REMARK  Name = ZINC12477082
REMARK  12 active torsions:
REMARK  status: ('A' for Active; 'I' for Inactive)
REMARK    1  A    between atoms: C_1  and  C_2
REMARK    2  A    between atoms: C_5  and  C_8
REMARK    3  A    between atoms: C_8  and  C_10
REMARK    4  A    between atoms: C_8  and  N_17
REMARK    5  A    between atoms: N_12  and  C_13
REMARK    6  A    between atoms: C_13  and  C_14
REMARK    7  A    between atoms: C_13  and  C_15
REMARK    8  A    between atoms: C_13  and  C_16
REMARK    9  A    between atoms: N_17  and  C_18
REMARK   10  A    between atoms: C_25  and  C_27
REMARK   11  A    between atoms: C_28  and  N_35
REMARK   12  A    between atoms: C_29  and  C_32
REMARK                            x       y       z     vdW  Elec       q    Type
REMARK                         _______ _______ _______ _____ _____    ______ ____
ROOT
ATOM      1  N   UNL     1      -3.695   1.617  -0.174  0.00  0.00    -0.248 N 
ATOM      2  C   UNL     1      -4.380   1.551  -1.333  0.00  0.00    +0.262 C 
ATOM      3  O   UNL     1      -3.966   0.860  -2.246  0.00  0.00    -0.269 OA
ENDROOT
BRANCH   1   4
ATOM      4  C   UNL     1      -4.172   2.412   0.875  0.00  0.00    +0.073 A 
ATOM      5  C   UNL     1      -3.819   3.752   0.950  0.00  0.00    +0.026 A 
ATOM      6  C   UNL     1      -4.290   4.533   1.987  0.00  0.00    +0.002 A 
ATOM      7  C   UNL     1      -5.114   3.982   2.951  0.00  0.00    +0.003 A 
ATOM      8  C   UNL     1      -5.468   2.647   2.882  0.00  0.00    +0.040 A 
ATOM      9  C   UNL     1      -5.004   1.861   1.844  0.00  0.00    +0.145 A 
ATOM     10  F   UNL     1      -5.355   0.558   1.773  0.00  0.00    -0.204 F 
ENDBRANCH   1   4
BRANCH   2  11
ATOM     11  C   UNL     1      -5.622   2.308  -1.494  0.00  0.00    +0.116 A 
ATOM     12  C   UNL     1      -6.478   2.382  -2.595  0.00  0.00    +0.076 A 
ATOM     13  C   UNL     1      -7.572   3.216  -2.366  0.00  0.00    +0.155 A 
ATOM     14  N   UNL     1      -7.688   3.821  -1.204  0.00  0.00    -0.203 NA
ATOM     15  S   UNL     1      -6.451   3.377  -0.335  0.00  0.00    +0.019 S 
BRANCH  13  16
ATOM     16  C   UNL     1      -8.586   3.420  -3.417  0.00  0.00    +0.262 C 
ATOM     17  O   UNL     1      -8.472   2.858  -4.489  0.00  0.00    -0.269 OA
ATOM     18  N   UNL     1      -9.640   4.228  -3.188  0.00  0.00    -0.324 N 
ATOM     19  H   UNL     1      -9.732   4.676  -2.333  0.00  0.00    +0.145 HD
ATOM     20  H   UNL     1     -10.308   4.362  -3.880  0.00  0.00    +0.145 HD
ENDBRANCH  13  16
BRANCH  12  21
ATOM     21  N   UNL     1      -6.263   1.700  -3.785  0.00  0.00    -0.355 N 
ATOM     22  H   UNL     1      -5.482   1.133  -3.886  0.00  0.00    +0.142 HD
ATOM     23  H   UNL     1      -6.894   1.790  -4.516  0.00  0.00    +0.142 HD
ENDBRANCH  12  21
ENDBRANCH   2  11
BRANCH   1  24
ATOM     24  C   UNL     1      -2.452   0.859  -0.013  0.00  0.00    +0.198 C 
BRANCH  24  29
ATOM     25  C   UNL     1      -2.789  -2.405   4.743  0.00  0.00    +0.044 C 
ATOM     26  C   UNL     1      -2.701  -1.554   3.503  0.00  0.00    -0.050 A 
ATOM     27  C   UNL     1      -2.588  -2.151   2.261  0.00  0.00    +0.004 A 
ATOM     28  C   UNL     1      -2.508  -1.370   1.123  0.00  0.00    +0.006 A 
ATOM     29  C   UNL     1      -2.540   0.008   1.227  0.00  0.00    -0.018 A 
ATOM     30  C   UNL     1      -2.647   0.605   2.469  0.00  0.00    +0.006 A 
ATOM     31  C   UNL     1      -2.733  -0.176   3.607  0.00  0.00    +0.004 A 
ENDBRANCH  24  29
BRANCH  24  32
ATOM     32  C   UNL     1      -1.294   1.815   0.115  0.00  0.00    +0.239 C 
ATOM     33  O   UNL     1      -1.488   3.011   0.075  0.00  0.00    -0.273 OA
ATOM     34  N   UNL     1      -0.043   1.340   0.273  0.00  0.00    -0.309 N 
ATOM     35  H   UNL     1       0.113   0.383   0.305  0.00  0.00    +0.149 HD
BRANCH  34  36
ATOM     36  C   UNL     1       1.084   2.269   0.391  0.00  0.00    +0.026 C 
ATOM     37  C   UNL     1       0.878   3.167   1.612  0.00  0.00    +0.031 C 
ATOM     38  C   UNL     1       2.383   1.477   0.554  0.00  0.00    +0.031 C 
ATOM     39  C   UNL     1       1.168   3.132  -0.869  0.00  0.00    +0.031 C 
ENDBRANCH  34  36
ENDBRANCH  24  32
ENDBRANCH   1  24
TORSDOF 8
