REMARK  Name = ZINC31155327
REMARK  6 active torsions:
REMARK  status: ('A' for Active; 'I' for Inactive)
REMARK    1  A    between atoms: C_1  and  C_2
REMARK    2  A    between atoms: C_6  and  C_24
REMARK    3  A    between atoms: C_6  and  C_25
REMARK    4  A    between atoms: C_19  and  C_21
REMARK    5  A    between atoms: C_19  and  O_23
REMARK    6  A    between atoms: C_21  and  O_22
REMARK                            x       y       z     vdW  Elec       q    Type
REMARK                         _______ _______ _______ _____ _____    ______ ____
ROOT
ATOM      1  C   UNL     1      -0.552   2.965   1.538  0.00  0.00    +0.012 C 
ATOM      2  C   UNL     1      -0.735   1.456   1.286  0.00  0.00    -0.025 C 
ATOM      3  C   UNL     1      -0.321   0.839   2.611  0.00  0.00    +0.007 C 
ATOM      4  C   UNL     1      -0.945  -0.502   2.902  0.00  0.00    +0.002 C 
ATOM      5  C   UNL     1      -2.443  -0.501   2.727  0.00  0.00    +0.018 C 
ATOM      6  C   UNL     1      -2.890   0.045   1.387  0.00  0.00    +0.072 C 
ATOM      7  C   UNL     1      -2.187   1.298   0.948  0.00  0.00    +0.012 C 
ATOM      8  C   UNL     1      -2.546   1.730  -0.461  0.00  0.00    +0.006 C 
ATOM      9  C   UNL     1      -1.638   1.149  -1.532  0.00  0.00    +0.007 C 
ATOM     10  C   UNL     1      -0.178   1.409  -1.226  0.00  0.00    -0.023 C 
ATOM     11  C   UNL     1       0.220   1.062   0.191  0.00  0.00    +0.002 C 
ATOM     12  C   UNL     1       1.676   1.385   0.474  0.00  0.00    +0.005 C 
ATOM     13  C   UNL     1       2.254   2.574  -0.265  0.00  0.00    +0.007 C 
ATOM     14  C   UNL     1       1.735   2.752  -1.685  0.00  0.00    +0.024 C 
ATOM     15  C   UNL     1       0.185   2.866  -1.578  0.00  0.00    +0.013 C 
ATOM     16  C   UNL     1       1.907   1.480  -2.537  0.00  0.00    +0.092 C 
ATOM     17  C   UNL     1       0.724   0.565  -2.162  0.00  0.00    +0.044 C 
ATOM     18  C   UNL     1      -2.730  -1.075   0.359  0.00  0.00    +0.023 C 
ENDROOT
BRANCH   6  19
ATOM     19  C   UNL     1      -4.371   0.343   1.517  0.00  0.00    +0.362 C 
ATOM     20  O   UNL     1      -4.788   1.451   1.276  0.00  0.00    -0.246 OA
ATOM     21  O   UNL     1      -5.219  -0.625   1.899  0.00  0.00    -0.246 OA
ENDBRANCH   6  19
BRANCH  16  22
ATOM     22  O   UNL     1       1.814   1.824  -3.928  0.00  0.00    -0.386 OA
ATOM     23  H   UNL     1       1.913   1.043  -4.696  0.00  0.00    +0.210 HD
ENDBRANCH  16  22
BRANCH  16  24
ATOM     24  C   UNL     1       3.242   0.790  -2.279  0.00  0.00    +0.190 C 
BRANCH  24  25
ATOM     25  O   UNL     1       3.339  -0.379  -3.096  0.00  0.00    -0.392 OA
ATOM     26  H   UNL     1       4.238  -1.011  -3.048  0.00  0.00    +0.210 HD
ENDBRANCH  24  25
ENDBRANCH  16  24
TORSDOF 4
