REMARK  Name = ZINC13940897
REMARK  6 active torsions:
REMARK  status: ('A' for Active; 'I' for Inactive)
REMARK    1  A    between atoms: C_1  and  C_2
REMARK    2  A    between atoms: C_5  and  N_9
REMARK    3  A    between atoms: C_13  and  C_14
REMARK    4  A    between atoms: C_18  and  O_21
REMARK    5  A    between atoms: C_19  and  O_20
REMARK    6  A    between atoms: O_21  and  C_22
REMARK                            x       y       z     vdW  Elec       q    Type
REMARK                         _______ _______ _______ _____ _____    ______ ____
ROOT
ATOM      1  N   UNL     1      -2.454   0.978   0.532  0.00  0.00    -0.184 N 
ATOM      2  C   UNL     1      -3.680   1.534   0.555  0.00  0.00    +0.272 C 
ATOM      3  O   UNL     1      -3.949   2.684   0.848  0.00  0.00    -0.268 OA
ATOM      4  C   UNL     1      -4.635   0.482   0.155  0.00  0.00    +0.102 C 
ATOM      5  C   UNL     1      -6.004   0.594   0.035  0.00  0.00    +0.030 C 
ATOM      6  C   UNL     1      -3.807  -0.717  -0.083  0.00  0.00    +0.266 C 
ATOM      7  O   UNL     1      -4.204  -1.813  -0.428  0.00  0.00    -0.268 OA
ATOM      8  N   UNL     1      -2.530  -0.363   0.156  0.00  0.00    -0.223 N 
ATOM      9  H   UNL     1      -1.769  -0.959   0.077  0.00  0.00    +0.174 HD
ENDROOT
BRANCH   1  14
ATOM     10  C   UNL     1       2.353   3.709   1.803  0.00  0.00    +0.045 C 
ATOM     11  C   UNL     1       1.076   2.982   1.468  0.00  0.00    -0.032 A 
ATOM     12  C   UNL     1      -0.133   3.651   1.524  0.00  0.00    +0.006 A 
ATOM     13  C   UNL     1      -1.305   2.988   1.218  0.00  0.00    +0.025 A 
ATOM     14  C   UNL     1      -1.269   1.649   0.849  0.00  0.00    +0.058 A 
ATOM     15  C   UNL     1      -0.054   0.978   0.799  0.00  0.00    +0.045 A 
ATOM     16  C   UNL     1       1.116   1.647   1.106  0.00  0.00    +0.046 A 
ATOM     17 CL   UNL     1       2.636   0.811   1.038  0.00  0.00    -0.083 Cl
ENDBRANCH   1  14
BRANCH   5  18
ATOM     18  C   UNL     1      -6.644   1.904   0.155  0.00  0.00    +0.022 A 
ATOM     19  C   UNL     1      -6.059   3.034  -0.438  0.00  0.00    +0.031 A 
ATOM     20  C   UNL     1      -6.667   4.264  -0.321  0.00  0.00    +0.045 A 
ATOM     21  C   UNL     1      -7.857   4.395   0.381  0.00  0.00    +0.069 A 
ATOM     22  C   UNL     1      -8.448   3.291   0.972  0.00  0.00    +0.163 A 
ATOM     23  C   UNL     1      -7.852   2.039   0.862  0.00  0.00    +0.166 A 
ATOM     24 CL   UNL     1      -5.941   5.658  -1.056  0.00  0.00    -0.083 Cl
BRANCH  23  25
ATOM     25  O   UNL     1      -8.431   0.954   1.436  0.00  0.00    -0.503 OA
ATOM     26  H   UNL     1      -8.147   0.793   2.346  0.00  0.00    +0.292 HD
ENDBRANCH  23  25
BRANCH  22  27
ATOM     27  O   UNL     1      -9.614   3.430   1.657  0.00  0.00    -0.491 OA
ATOM     28  C   UNL     1     -10.174   4.743   1.726  0.00  0.00    +0.277 C 
ENDBRANCH  22  27
ENDBRANCH   5  18
TORSDOF 4
