REMARK  Name = ZINC16655351
REMARK  6 active torsions:
REMARK  status: ('A' for Active; 'I' for Inactive)
REMARK    1  A    between atoms: C_4  and  N_7
REMARK    2  A    between atoms: C_16  and  C_18
REMARK    3  A    between atoms: C_18  and  O_19
REMARK    4  A    between atoms: O_19  and  C_20
REMARK    5  A    between atoms: C_20  and  C_22
REMARK    6  A    between atoms: C_27  and  N_28
REMARK                            x       y       z     vdW  Elec       q    Type
REMARK                         _______ _______ _______ _____ _____    ______ ____
ROOT
ATOM      1  N   UNL     1       8.924  10.459  -0.828  0.00  0.00    -0.269 N 
ATOM      2  C   UNL     1       7.673  10.937  -0.977  0.00  0.00    +0.307 C 
ATOM      3  O   UNL     1       7.481  12.137  -1.013  0.00  0.00    -0.252 OA
ATOM      4  N   UNL     1       6.635  10.085  -1.087  0.00  0.00    -0.282 N 
ATOM      5  C   UNL     1       5.291  10.581  -1.413  0.00  0.00    +0.128 C 
ATOM      6  C   UNL     1       4.316  10.106  -0.329  0.00  0.00    +0.127 C 
ATOM      7  N   UNL     1       4.508   8.664  -0.124  0.00  0.00    -0.296 N 
ATOM      8  C   UNL     1       5.851   8.168   0.208  0.00  0.00    +0.127 C 
ATOM      9  C   UNL     1       6.827   8.642  -0.882  0.00  0.00    +0.128 C 
ATOM     10  C   UNL     1       3.469   7.811  -0.233  0.00  0.00    +0.253 C 
ATOM     11  O   UNL     1       2.365   8.233  -0.503  0.00  0.00    -0.272 OA
ATOM     12  H   UNL     1       9.067   9.511  -0.684  0.00  0.00    +0.156 HD
ENDROOT
BRANCH   1  16
ATOM     13  C   UNL     1      12.178  13.056  -0.988  0.00  0.00    +0.000 A 
ATOM     14  C   UNL     1      12.357  11.709  -1.244  0.00  0.00    +0.002 A 
ATOM     15  C   UNL     1      11.281  10.846  -1.192  0.00  0.00    +0.023 A 
ATOM     16  C   UNL     1      10.018  11.332  -0.881  0.00  0.00    +0.035 A 
ATOM     17  C   UNL     1       9.840  12.686  -0.629  0.00  0.00    +0.023 A 
ATOM     18  C   UNL     1      10.922  13.543  -0.678  0.00  0.00    +0.002 A 
ENDBRANCH   1  16
BRANCH  10  19
ATOM     19  C   UNL     1       3.681   6.335  -0.021  0.00  0.00    +0.328 C 
BRANCH  19  20
ATOM     20  O   UNL     1       2.421   5.635  -0.192  0.00  0.00    -0.452 OA
BRANCH  20  21
ATOM     21  C   UNL     1       2.437   4.297  -0.035  0.00  0.00    +0.341 C 
ATOM     22  O   UNL     1       3.477   3.730   0.239  0.00  0.00    -0.245 OA
BRANCH  21  23
ATOM     23  C   UNL     1       1.195   3.521  -0.194  0.00  0.00    +0.081 A 
ATOM     24  C   UNL     1       0.049   4.128  -0.715  0.00  0.00    +0.032 A 
ATOM     25  C   UNL     1      -1.110   3.397  -0.861  0.00  0.00    +0.019 A 
ATOM     26  C   UNL     1      -1.145   2.059  -0.497  0.00  0.00    +0.017 A 
ATOM     27  C   UNL     1      -0.023   1.447   0.024  0.00  0.00    +0.024 A 
ATOM     28  C   UNL     1       1.155   2.168   0.178  0.00  0.00    +0.039 A 
ATOM     29 BR   UNL     1      -2.659   4.220  -1.568  0.00  0.00    -0.050 Br
BRANCH  28  30
ATOM     30  N   UNL     1       2.286   1.553   0.697  0.00  0.00    -0.357 N 
ATOM     31  H   UNL     1       2.387   0.590   0.635  0.00  0.00    +0.142 HD
ATOM     32  H   UNL     1       2.976   2.086   1.122  0.00  0.00    +0.142 HD
ENDBRANCH  28  30
ENDBRANCH  21  23
ENDBRANCH  20  21
ENDBRANCH  19  20
ENDBRANCH  10  19
TORSDOF 6
