REMARK  Name = ZINC64427050
REMARK  11 active torsions:
REMARK  status: ('A' for Active; 'I' for Inactive)
REMARK    1  A    between atoms: C_1  and  O_2
REMARK    2  A    between atoms: O_2  and  C_3
REMARK    3  A    between atoms: C_6  and  C_9
REMARK    4  A    between atoms: C_24  and  C_26
REMARK    5  A    between atoms: C_27  and  C_28
REMARK    6  A    between atoms: C_30  and  O_38
REMARK    7  A    between atoms: C_31  and  O_36
REMARK    8  A    between atoms: C_32  and  O_34
REMARK    9  A    between atoms: O_34  and  C_35
REMARK   10  A    between atoms: O_36  and  C_37
REMARK   11  A    between atoms: O_38  and  C_39
REMARK                            x       y       z     vdW  Elec       q    Type
REMARK                         _______ _______ _______ _____ _____    ______ ____
ROOT
ATOM      1  C   UNL     1       2.591  -2.539   4.288  0.00  0.00    +0.133 C 
ATOM      2  C   UNL     1       1.554  -2.915   5.352  0.00  0.00    +0.131 C 
ATOM      3  C   UNL     1       0.732  -4.059   4.773  0.00  0.00    -0.035 C 
ATOM      4  C   UNL     1      -0.536  -3.668   4.813  0.00  0.00    -0.001 A 
ATOM      5  C   UNL     1      -1.786  -4.361   4.460  0.00  0.00    +0.010 A 
ATOM      6  C   UNL     1      -2.931  -3.646   4.615  0.00  0.00    +0.001 A 
ATOM      7  C   UNL     1      -2.958  -2.328   5.082  0.00  0.00    +0.002 A 
ATOM      8  C   UNL     1      -1.858  -1.616   5.434  0.00  0.00    +0.026 A 
ATOM      9  C   UNL     1      -0.593  -2.263   5.318  0.00  0.00    +0.043 A 
ATOM     10  N   UNL     1       0.617  -1.820   5.611  0.00  0.00    -0.375 N 
ATOM     11  C   UNL     1       1.365  -5.312   4.217  0.00  0.00    +0.052 C 
ATOM     12  C   UNL     1       2.454  -4.856   3.228  0.00  0.00    +0.113 C 
ATOM     13  N   UNL     1       3.243  -3.777   3.833  0.00  0.00    -0.288 N 
ATOM     14  C   UNL     1       4.575  -3.921   3.975  0.00  0.00    +0.240 C 
ATOM     15  O   UNL     1       5.134  -4.899   3.515  0.00  0.00    -0.271 OA
ATOM     16  H   UNL     1       0.853  -0.936   5.933  0.00  0.00    +0.160 HD
ENDROOT
BRANCH   1  20
ATOM     17  C   UNL     1       0.654  -0.629   0.992  0.00  0.00    +0.120 A 
ATOM     18  C   UNL     1       1.616   0.053   1.723  0.00  0.00    +0.046 A 
ATOM     19  C   UNL     1       2.240  -0.566   2.788  0.00  0.00    +0.009 A 
ATOM     20  C   UNL     1       1.908  -1.865   3.126  0.00  0.00    -0.025 A 
ATOM     21  C   UNL     1       0.950  -2.547   2.399  0.00  0.00    +0.009 A 
ATOM     22  C   UNL     1       0.318  -1.930   1.337  0.00  0.00    +0.046 A 
BRANCH  17  24
ATOM     23  C   UNL     1       0.434   1.319  -0.353  0.00  0.00    +0.277 C 
ATOM     24  O   UNL     1       0.038  -0.022  -0.056  0.00  0.00    -0.495 OA
ENDBRANCH  17  24
ENDBRANCH   1  20
BRANCH  14  25
ATOM     25  C   UNL     1       5.350  -2.901   4.682  0.00  0.00    +0.068 C 
ATOM     26  C   UNL     1       6.696  -2.989   4.729  0.00  0.00    +0.013 C 
BRANCH  26  27
ATOM     27  C   UNL     1       7.474  -1.964   5.440  0.00  0.00    -0.018 A 
ATOM     28  C   UNL     1       6.821  -0.900   6.072  0.00  0.00    +0.057 A 
ATOM     29  C   UNL     1       7.556   0.061   6.739  0.00  0.00    +0.166 A 
ATOM     30  C   UNL     1       8.945  -0.027   6.782  0.00  0.00    +0.204 A 
ATOM     31  C   UNL     1       9.599  -1.084   6.153  0.00  0.00    +0.166 A 
ATOM     32  C   UNL     1       8.870  -2.053   5.490  0.00  0.00    +0.057 A 
BRANCH  31  33
ATOM     33  O   UNL     1      10.956  -1.167   6.197  0.00  0.00    -0.491 OA
ATOM     34  C   UNL     1      11.560  -2.277   5.531  0.00  0.00    +0.277 C 
ENDBRANCH  31  33
BRANCH  30  35
ATOM     35  O   UNL     1       9.665   0.920   7.439  0.00  0.00    -0.488 OA
ATOM     36  C   UNL     1       9.932   0.688   8.823  0.00  0.00    +0.277 C 
ENDBRANCH  30  35
BRANCH  29  37
ATOM     37  O   UNL     1       6.923   1.095   7.354  0.00  0.00    -0.491 OA
ATOM     38  C   UNL     1       5.496   1.125   7.270  0.00  0.00    +0.277 C 
ENDBRANCH  29  37
ENDBRANCH  26  27
ENDBRANCH  14  25
TORSDOF 7
