REMARK  Name = ZINC62550978
REMARK  4 active torsions:
REMARK  status: ('A' for Active; 'I' for Inactive)
REMARK    1  A    between atoms: C_1  and  C_2
REMARK    2  A    between atoms: C_8  and  O_22
REMARK    3  A    between atoms: N_12  and  S_13
REMARK    4  A    between atoms: S_13  and  C_16
REMARK                            x       y       z     vdW  Elec       q    Type
REMARK                         _______ _______ _______ _____ _____    ______ ____
ROOT
ATOM      1  C   UNL     1       0.185   1.502  -0.038  0.00  0.00    +0.044 C 
ATOM      2  C   UNL     1       0.151  -0.005  -0.033  0.00  0.00    -0.050 A 
ATOM      3  C   UNL     1       0.155  -0.699  -1.230  0.00  0.00    +0.005 A 
ATOM      4  C   UNL     1       0.123  -2.078  -1.225  0.00  0.00    +0.025 A 
ATOM      5  C   UNL     1       0.087  -2.770  -0.019  0.00  0.00    +0.057 A 
ATOM      6  C   UNL     1       0.087  -2.074   1.179  0.00  0.00    +0.004 A 
ATOM      7  C   UNL     1       0.122  -0.690   1.166  0.00  0.00    +0.011 A 
ATOM      8  C   UNL     1       0.059  -2.789   2.504  0.00  0.00    +0.148 C 
ATOM      9  C   UNL     1      -0.470  -4.213   2.333  0.00  0.00    +0.057 C 
ATOM     10  C   UNL     1       0.314  -4.902   1.209  0.00  0.00    +0.134 C 
ATOM     11  N   UNL     1       0.050  -4.169  -0.037  0.00  0.00    -0.202 N 
ENDROOT
BRANCH  11  12
ATOM     12  S   UNL     1      -0.286  -4.984  -1.439  0.00  0.00    +0.081 S 
ATOM     13  O   UNL     1      -0.628  -6.311  -1.064  0.00  0.00    -0.149 OA
ATOM     14  O   UNL     1      -1.161  -4.155  -2.191  0.00  0.00    -0.149 OA
BRANCH  12  15
ATOM     15  C   UNL     1       1.217  -5.090  -2.353  0.00  0.00    +0.147 A 
ATOM     16  C   UNL     1       2.167  -6.055  -2.323  0.00  0.00    +0.038 A 
ATOM     17  C   UNL     1       3.278  -5.929  -3.137  0.00  0.00    +0.025 A 
ATOM     18  C   UNL     1       3.382  -4.841  -3.941  0.00  0.00    +0.057 A 
ATOM     19  S   UNL     1       1.878  -3.957  -3.563  0.00  0.00    -0.061 S 
ATOM     20 BR   UNL     1       4.760  -4.385  -5.153  0.00  0.00    -0.043 Br
ENDBRANCH  12  15
ENDBRANCH  11  12
BRANCH   8  21
ATOM     21  O   UNL     1      -0.789  -2.077   3.407  0.00  0.00    -0.387 OA
ATOM     22  H   UNL     1      -0.856  -2.479   4.284  0.00  0.00    +0.210 HD
ENDBRANCH   8  21
TORSDOF 3
