REMARK  Name = ZINC08588963
REMARK  7 active torsions:
REMARK  status: ('A' for Active; 'I' for Inactive)
REMARK    1  A    between atoms: C_1  and  C_2
REMARK    2  A    between atoms: C_12  and  C_14
REMARK    3  A    between atoms: C_12  and  C_15
REMARK    4  A    between atoms: C_17  and  C_18
REMARK    5  A    between atoms: N_20  and  C_21
REMARK    6  A    between atoms: C_24  and  N_27
REMARK    7  A    between atoms: C_28  and  C_30
REMARK                            x       y       z     vdW  Elec       q    Type
REMARK                         _______ _______ _______ _____ _____    ______ ____
ROOT
ATOM      1  C   UNL     1      -0.319   1.468   0.027  0.00  0.00    +0.048 C 
ATOM      2  C   UNL     1      -0.189  -0.033   0.014  0.00  0.00    +0.008 A 
ATOM      3  C   UNL     1      -0.245  -0.874  -1.122  0.00  0.00    +0.038 A 
ATOM      4  C   UNL     1      -0.075  -2.187  -0.652  0.00  0.00    +0.137 A 
ATOM      5  C   UNL     1      -0.086  -3.245  -1.557  0.00  0.00    +0.050 A 
ATOM      6  C   UNL     1      -0.258  -3.018  -2.904  0.00  0.00    +0.050 A 
ATOM      7  C   UNL     1      -0.427  -1.726  -3.395  0.00  0.00    +0.133 A 
ATOM      8  C   UNL     1      -0.424  -0.646  -2.503  0.00  0.00    +0.070 A 
ATOM      9  C   UNL     1      -0.615   0.714  -3.025  0.00  0.00    +0.171 C 
ATOM     10  O   UNL     1      -0.835   1.653  -2.290  0.00  0.00    -0.292 OA
ATOM     11  C   UNL     1      -0.521   0.883  -4.531  0.00  0.00    +0.127 C 
ATOM     12  C   UNL     1      -1.222  -0.326  -5.166  0.00  0.00    +0.112 C 
ATOM     13  O   UNL     1      -0.588  -1.525  -4.724  0.00  0.00    -0.485 OA
ATOM     14  C   UNL     1      -2.693  -0.342  -4.747  0.00  0.00    +0.056 C 
ATOM     15  C   UNL     1      -1.126  -0.229  -6.690  0.00  0.00    +0.056 C 
ATOM     16  O   UNL     1       0.071  -2.122   0.687  0.00  0.00    -0.450 OA
ATOM     17  C   UNL     1       0.011  -0.837   1.092  0.00  0.00    +0.194 A 
ENDROOT
BRANCH  17  18
ATOM     18  C   UNL     1       0.138  -0.377   2.484  0.00  0.00    +0.284 C 
ATOM     19  O   UNL     1       0.065   0.810   2.741  0.00  0.00    -0.266 OA
ATOM     20  N   UNL     1       0.335  -1.270   3.473  0.00  0.00    -0.279 N 
ATOM     21  H   UNL     1       0.460  -2.209   3.261  0.00  0.00    +0.155 HD
BRANCH  20  22
ATOM     22  C   UNL     1       0.359  -0.844   4.806  0.00  0.00    +0.034 A 
ATOM     23  C   UNL     1      -0.180  -1.649   5.802  0.00  0.00    +0.025 A 
ATOM     24  C   UNL     1      -0.157  -1.228   7.117  0.00  0.00    +0.025 A 
ATOM     25  C   UNL     1       0.406  -0.001   7.444  0.00  0.00    +0.033 A 
ATOM     26  C   UNL     1       0.944   0.803   6.448  0.00  0.00    +0.025 A 
ATOM     27  C   UNL     1       0.926   0.380   5.134  0.00  0.00    +0.025 A 
BRANCH  25  28
ATOM     28  N   UNL     1       0.429   0.425   8.777  0.00  0.00    -0.286 N 
ATOM     29  C   UNL     1       0.331   1.738   9.067  0.00  0.00    +0.214 C 
ATOM     30  O   UNL     1       0.136   2.542   8.180  0.00  0.00    -0.276 OA
ATOM     31  C   UNL     1       0.463   2.207  10.493  0.00  0.00    +0.109 C 
ATOM     32  H   UNL     1       0.516  -0.224   9.493  0.00  0.00    +0.155 HD
ENDBRANCH  25  28
ENDBRANCH  20  22
ENDBRANCH  17  18
TORSDOF 3
