REMARK  Name = ZINC13093285
REMARK  6 active torsions:
REMARK  status: ('A' for Active; 'I' for Inactive)
REMARK    1  A    between atoms: C_5  and  N_7
REMARK    2  A    between atoms: C_11  and  S_13
REMARK    3  A    between atoms: S_13  and  C_14
REMARK    4  A    between atoms: C_14  and  C_15
REMARK    5  A    between atoms: N_17  and  C_18
REMARK    6  A    between atoms: C_21  and  C_24
REMARK                            x       y       z     vdW  Elec       q    Type
REMARK                         _______ _______ _______ _____ _____    ______ ____
ROOT
ATOM      1  S   UNL     1      -3.296   7.167  -0.405  0.00  0.00    -0.088 S 
ENDROOT
BRANCH   1   6
ATOM      2  N   UNL     1       1.159   3.486   0.070  0.00  0.00    -0.291 N 
ATOM      3  C   UNL     1      -0.048   4.168  -0.032  0.00  0.00    +0.187 A 
ATOM      4  N   UNL     1      -1.278   3.692  -0.042  0.00  0.00    -0.125 NA
ATOM      5  N   UNL     1      -2.345   4.555  -0.148  0.00  0.00    -0.133 NA
ATOM      6  C   UNL     1      -2.132   5.853  -0.250  0.00  0.00    +0.160 A 
ATOM      7  S   UNL     1      -0.348   5.922  -0.192  0.00  0.00    -0.024 S 
ATOM      8  H   UNL     1       1.991   3.981   0.132  0.00  0.00    +0.154 HD
BRANCH   2  13
ATOM      9  C   UNL     1      -0.003  -0.001   0.123  0.00  0.00    +0.002 A 
ATOM     10  C   UNL     1       1.202  -0.679   0.103  0.00  0.00    +0.002 A 
ATOM     11  C   UNL     1       2.394   0.022   0.073  0.00  0.00    +0.022 A 
ATOM     12  C   UNL     1       2.384   1.405   0.062  0.00  0.00    +0.062 A 
ATOM     13  C   UNL     1       1.174   2.089   0.081  0.00  0.00    +0.051 A 
ATOM     14  C   UNL     1      -0.021   1.380   0.112  0.00  0.00    +0.025 A 
ATOM     15 CL   UNL     1       3.879   2.284   0.025  0.00  0.00    -0.082 Cl
ENDBRANCH   2  13
ENDBRANCH   1   6
BRANCH   1  16
ATOM     16  C   UNL     1      -4.906   6.331  -0.391  0.00  0.00    +0.172 C 
BRANCH  16  17
ATOM     17  C   UNL     1      -6.004   7.354  -0.518  0.00  0.00    +0.227 C 
ATOM     18  O   UNL     1      -5.729   8.532  -0.609  0.00  0.00    -0.275 OA
ATOM     19  N   UNL     1      -7.293   6.961  -0.531  0.00  0.00    -0.285 N 
ATOM     20  H   UNL     1      -7.517   6.027  -0.397  0.00  0.00    +0.155 HD
BRANCH  19  21
ATOM     21  C   UNL     1      -8.306   7.897  -0.739  0.00  0.00    +0.033 A 
ATOM     22  C   UNL     1      -8.177   9.184  -0.224  0.00  0.00    +0.024 A 
ATOM     23  C   UNL     1      -9.172  10.112  -0.431  0.00  0.00    +0.017 A 
ATOM     24  C   UNL     1     -10.318   9.758  -1.149  0.00  0.00    +0.063 A 
ATOM     25  C   UNL     1     -10.446   8.463  -1.660  0.00  0.00    +0.017 A 
ATOM     26  C   UNL     1      -9.445   7.541  -1.454  0.00  0.00    +0.024 A 
BRANCH  24  27
ATOM     27  C   UNL     1     -11.389  10.748  -1.368  0.00  0.00    +0.387 C 
ATOM     28  O   UNL     1     -12.384  10.439  -1.993  0.00  0.00    -0.241 OA
ATOM     29  O   UNL     1     -11.263  11.996  -0.875  0.00  0.00    -0.241 OA
ENDBRANCH  24  27
ENDBRANCH  19  21
ENDBRANCH  16  17
ENDBRANCH   1  16
TORSDOF 6
