REMARK  Name = ZINC13341851
REMARK  10 active torsions:
REMARK  status: ('A' for Active; 'I' for Inactive)
REMARK    1  A    between atoms: C_1  and  C_2
REMARK    2  A    between atoms: C_3  and  C_30
REMARK    3  A    between atoms: N_9  and  C_27
REMARK    4  A    between atoms: C_10  and  S_12
REMARK    5  A    between atoms: S_12  and  C_13
REMARK    6  A    between atoms: C_13  and  C_14
REMARK    7  A    between atoms: N_16  and  C_17
REMARK    8  A    between atoms: C_19  and  C_25
REMARK    9  A    between atoms: C_21  and  C_23
REMARK   10  A    between atoms: C_27  and  C_28
REMARK                            x       y       z     vdW  Elec       q    Type
REMARK                         _______ _______ _______ _____ _____    ______ ____
ROOT
ATOM      1  C   UNL     1      -2.474   0.770   0.133  0.00  0.00    +0.173 C 
ENDROOT
BRANCH   1   2
ATOM      2  C   UNL     1      -1.210   1.582   0.018  0.00  0.00    +0.227 C 
ATOM      3  O   UNL     1      -1.271   2.791  -0.067  0.00  0.00    -0.275 OA
ATOM      4  N   UNL     1      -0.011   0.966   0.007  0.00  0.00    -0.285 N 
ATOM      5  H   UNL     1       0.036  -0.003   0.007  0.00  0.00    +0.155 HD
BRANCH   4   6
ATOM      6  C   UNL     1       1.166   1.724  -0.008  0.00  0.00    +0.035 A 
ATOM      7  C   UNL     1       1.209   2.920  -0.710  0.00  0.00    +0.038 A 
ATOM      8  C   UNL     1       2.379   3.681  -0.724  0.00  0.00    +0.066 A 
ATOM      9  C   UNL     1       3.508   3.233  -0.040  0.00  0.00    +0.030 A 
ATOM     10  C   UNL     1       3.463   2.028   0.659  0.00  0.00    +0.066 A 
ATOM     11  C   UNL     1       2.287   1.275   0.673  0.00  0.00    +0.038 A 
BRANCH  10  12
ATOM     12  C   UNL     1       4.657   1.549   1.386  0.00  0.00    +0.387 C 
ATOM     13  O   UNL     1       4.616   0.499   1.995  0.00  0.00    -0.241 OA
ATOM     14  O   UNL     1       5.790   2.277   1.372  0.00  0.00    -0.241 OA
ENDBRANCH  10  12
BRANCH   8  15
ATOM     15  C   UNL     1       2.423   4.958  -1.466  0.00  0.00    +0.387 C 
ATOM     16  O   UNL     1       1.438   5.348  -2.062  0.00  0.00    -0.241 OA
ATOM     17  O   UNL     1       3.554   5.689  -1.483  0.00  0.00    -0.241 OA
ENDBRANCH   8  15
ENDBRANCH   4   6
ENDBRANCH   1   2
BRANCH   1  18
ATOM     18  S   UNL     1      -3.906   1.877   0.119  0.00  0.00    -0.078 S 
BRANCH  18  28
ATOM     19  C   UNL     1      -9.641  -2.033   0.660  0.00  0.00    +0.045 C 
ATOM     20  C   UNL     1      -8.153  -2.268   0.609  0.00  0.00    -0.026 A 
ATOM     21  C   UNL     1      -7.660  -3.514   0.676  0.00  0.00    -0.008 A 
ATOM     22  S   UNL     1      -5.897  -3.268   0.578  0.00  0.00    -0.073 S 
ATOM     23  C   UNL     1      -5.873  -1.498   0.449  0.00  0.00    +0.117 A 
ATOM     24  C   UNL     1      -7.236  -1.148   0.487  0.00  0.00    +0.075 A 
ATOM     25  C   UNL     1      -7.522   0.251   0.400  0.00  0.00    +0.263 A 
ATOM     26  O   UNL     1      -8.674   0.649   0.424  0.00  0.00    -0.267 OA
ATOM     27  N   UNL     1      -6.502   1.123   0.291  0.00  0.00    -0.283 N 
ATOM     28  C   UNL     1      -5.206   0.696   0.263  0.00  0.00    +0.173 A 
ATOM     29  N   UNL     1      -4.915  -0.587   0.336  0.00  0.00    -0.216 NA
ATOM     30  C   UNL     1      -8.416  -4.811   0.804  0.00  0.00    +0.052 C 
BRANCH  27  31
ATOM     31  C   UNL     1      -6.789   2.557   0.201  0.00  0.00    +0.154 C 
BRANCH  31  32
ATOM     32  C   UNL     1      -6.952   2.947  -1.245  0.00  0.00    -0.013 C 
ATOM     33  C   UNL     1      -8.043   3.554  -1.641  0.00  0.00    +0.005 C 
ENDBRANCH  31  32
ENDBRANCH  27  31
ENDBRANCH  18  28
ENDBRANCH   1  18
TORSDOF 8
