REMARK  Name = ZINC40782428
REMARK  6 active torsions:
REMARK  status: ('A' for Active; 'I' for Inactive)
REMARK    1  A    between atoms: C_1  and  C_2
REMARK    2  A    between atoms: C_2  and  O_3
REMARK    3  A    between atoms: O_3  and  C_4
REMARK    4  A    between atoms: C_13  and  N_26
REMARK    5  A    between atoms: C_14  and  N_18
REMARK    6  A    between atoms: N_18  and  C_19
REMARK                            x       y       z     vdW  Elec       q    Type
REMARK                         _______ _______ _______ _____ _____    ______ ____
ROOT
ATOM      1  C   UNL     1       0.720  -2.137  -1.225  0.00  0.00    +0.403 C 
ATOM      2  O   UNL     1       0.381  -2.859  -0.308  0.00  0.00    -0.226 OA
ATOM      3  N   UNL     1       1.340  -2.661  -2.301  0.00  0.00    -0.264 N 
ATOM      4  C   UNL     1       1.761  -1.799  -3.414  0.00  0.00    +0.130 C 
ATOM      5  C   UNL     1       3.262  -2.005  -3.654  0.00  0.00    +0.125 C 
ATOM      6  N   UNL     1       3.530  -3.448  -3.734  0.00  0.00    -0.311 N 
ATOM      7  C   UNL     1       3.109  -4.310  -2.620  0.00  0.00    +0.125 C 
ATOM      8  C   UNL     1       1.614  -4.103  -2.378  0.00  0.00    +0.130 C 
ATOM      9  C   UNL     1       4.170  -3.988  -4.843  0.00  0.00    +0.147 A 
ATOM     10  C   UNL     1       5.565  -4.026  -4.908  0.00  0.00    +0.106 A 
ATOM     11  C   UNL     1       6.156  -4.579  -6.045  0.00  0.00    +0.149 A 
ATOM     12  N   UNL     1       5.375  -5.045  -7.017  0.00  0.00    -0.219 NA
ATOM     13  C   UNL     1       4.062  -4.989  -6.916  0.00  0.00    +0.225 A 
ATOM     14  N   UNL     1       3.464  -4.481  -5.857  0.00  0.00    -0.219 NA
ENDROOT
BRANCH  10  15
ATOM     15  N   UNL     1       6.350  -3.523  -3.859  0.00  0.00    -0.353 N 
ATOM     16  H   UNL     1       5.929  -3.226  -3.037  0.00  0.00    +0.143 HD
ATOM     17  H   UNL     1       7.314  -3.471  -3.956  0.00  0.00    +0.143 HD
ENDBRANCH  10  15
BRANCH  11  18
ATOM     18  N   UNL     1       7.540  -4.642  -6.161  0.00  0.00    -0.298 N 
ATOM     19  H   UNL     1       8.102  -4.371  -5.418  0.00  0.00    +0.154 HD
BRANCH  18  20
ATOM     20  C   UNL     1       8.123  -5.095  -7.348  0.00  0.00    +0.032 A 
ATOM     21  C   UNL     1       9.324  -5.791  -7.313  0.00  0.00    +0.024 A 
ATOM     22  C   UNL     1       9.896  -6.238  -8.488  0.00  0.00    +0.016 A 
ATOM     23  C   UNL     1       9.275  -5.992  -9.699  0.00  0.00    +0.013 A 
ATOM     24  C   UNL     1       8.078  -5.299  -9.737  0.00  0.00    +0.016 A 
ATOM     25  C   UNL     1       7.498  -4.854  -8.566  0.00  0.00    +0.024 A 
ATOM     26  I   UNL     1      10.148  -6.670 -11.479  0.00  0.00    -0.044 I 
ENDBRANCH  18  20
ENDBRANCH  11  18
BRANCH   1  27
ATOM     27  O   UNL     1       0.475  -0.815  -1.166  0.00  0.00    -0.451 OA
BRANCH  27  29
ATOM     28  C   UNL     1      -0.377   1.185  -0.110  0.00  0.00    +0.048 C 
ATOM     29  C   UNL     1      -0.186  -0.329   0.004  0.00  0.00    +0.230 C 
ENDBRANCH  27  29
ENDBRANCH   1  27
TORSDOF 5
