REMARK  Name = ZINC09647778
REMARK  4 active torsions:
REMARK  status: ('A' for Active; 'I' for Inactive)
REMARK    1  A    between atoms: C_1  and  C_2
REMARK    2  A    between atoms: N_11  and  C_15
REMARK    3  A    between atoms: C_15  and  C_16
REMARK    4  A    between atoms: C_21  and  C_24
REMARK                            x       y       z     vdW  Elec       q    Type
REMARK                         _______ _______ _______ _____ _____    ______ ____
ROOT
ATOM      1  C   UNL     1      -2.969   0.347   5.573  0.00  0.00    +0.237 C 
ATOM      2  O   UNL     1      -1.778   0.378   5.343  0.00  0.00    -0.274 OA
ATOM      3  N   UNL     1      -3.409   0.315   6.847  0.00  0.00    -0.263 N 
ATOM      4  C   UNL     1      -2.498   0.319   7.896  0.00  0.00    +0.165 A 
ATOM      5  N   UNL     1      -2.723   0.291   9.197  0.00  0.00    -0.225 NA
ATOM      6  C   UNL     1      -1.724   0.300  10.067  0.00  0.00    +0.080 A 
ATOM      7  C   UNL     1      -0.436   0.337   9.611  0.00  0.00    +0.076 A 
ATOM      8  S   UNL     1      -0.712   0.353   7.844  0.00  0.00    -0.060 S 
ATOM      9  H   UNL     1      -4.361   0.290   7.030  0.00  0.00    +0.157 HD
ENDROOT
BRANCH   6  10
ATOM     10  C   UNL     1      -2.001   0.269  11.524  0.00  0.00    +0.001 A 
ATOM     11  C   UNL     1      -0.957   0.384  12.440  0.00  0.00    +0.010 A 
ATOM     12  C   UNL     1      -1.228   0.351  13.790  0.00  0.00    +0.004 A 
ATOM     13  C   UNL     1      -2.532   0.205  14.249  0.00  0.00    -0.044 A 
ATOM     14  C   UNL     1      -3.569   0.097  13.348  0.00  0.00    -0.044 A 
ATOM     15  C   UNL     1      -3.306   0.132  11.986  0.00  0.00    +0.014 A 
ATOM     16  C   UNL     1      -5.005  -0.052  13.778  0.00  0.00    +0.035 C 
ATOM     17  C   UNL     1      -5.085  -0.503  15.235  0.00  0.00    +0.005 C 
ATOM     18  C   UNL     1      -4.212   0.434  16.079  0.00  0.00    +0.005 C 
ATOM     19  C   UNL     1      -2.748   0.164  15.740  0.00  0.00    +0.035 C 
ENDBRANCH   6  10
BRANCH   1  20
ATOM     20  C   UNL     1      -3.956   0.343   4.435  0.00  0.00    +0.214 C 
BRANCH  20  30
ATOM     21  C   UNL     1      -0.002   1.056   2.507  0.00  0.00    +0.010 C 
ATOM     22  C   UNL     1      -0.730   1.580   1.267  0.00  0.00    +0.018 C 
ATOM     23  C   UNL     1      -0.013   1.086   0.008  0.00  0.00    +0.006 C 
ATOM     24  C   UNL     1      -0.753   1.593  -1.231  0.00  0.00    +0.000 C 
ATOM     25  C   UNL     1      -2.186   1.056  -1.227  0.00  0.00    +0.003 C 
ATOM     26  C   UNL     1      -2.911   1.550   0.027  0.00  0.00    +0.035 C 
ATOM     27  C   UNL     1      -2.167   1.069   1.268  0.00  0.00    +0.115 C 
ATOM     28  C   UNL     1      -2.885   1.517   2.521  0.00  0.00    +0.247 C 
ATOM     29  O   UNL     1      -3.102   2.655   2.875  0.00  0.00    -0.273 OA
ATOM     30  N   UNL     1      -3.233   0.381   3.161  0.00  0.00    -0.215 N 
ATOM     31  C   UNL     1      -2.836  -0.706   2.489  0.00  0.00    +0.310 C 
ATOM     32  O   UNL     1      -3.035  -1.844   2.866  0.00  0.00    -0.252 OA
ATOM     33  N   UNL     1      -2.191  -0.397   1.347  0.00  0.00    -0.285 N 
ATOM     34  H   UNL     1      -1.817  -1.020   0.705  0.00  0.00    +0.151 HD
ENDBRANCH  20  30
ENDBRANCH   1  20
TORSDOF 3
