REMARK  Name = ZINC13245124
REMARK  7 active torsions:
REMARK  status: ('A' for Active; 'I' for Inactive)
REMARK    1  A    between atoms: C_3  and  N_11
REMARK    2  A    between atoms: C_6  and  C_7
REMARK    3  A    between atoms: C_7  and  C_8
REMARK    4  A    between atoms: C_12  and  C_14
REMARK    5  A    between atoms: C_14  and  S_15
REMARK    6  A    between atoms: S_15  and  C_16
REMARK    7  A    between atoms: C_19  and  C_22
REMARK                            x       y       z     vdW  Elec       q    Type
REMARK                         _______ _______ _______ _____ _____    ______ ____
ROOT
ATOM      1  C   UNL     1       6.047   2.241   0.171  0.00  0.00    +0.173 C 
ENDROOT
BRANCH   1   3
ATOM      2  N   UNL     1       3.584   2.123  -0.021  0.00  0.00    -0.285 N 
ATOM      3  C   UNL     1       4.758   1.467   0.066  0.00  0.00    +0.227 C 
ATOM      4  O   UNL     1       4.777   0.255   0.060  0.00  0.00    -0.275 OA
ATOM      5  H   UNL     1       3.573   3.091  -0.093  0.00  0.00    +0.155 HD
BRANCH   2   8
ATOM      6  C   UNL     1       1.084  -0.460   0.750  0.00  0.00    +0.006 A 
ATOM      7  C   UNL     1       2.273   0.242   0.738  0.00  0.00    +0.023 A 
ATOM      8  C   UNL     1       2.381   1.409  -0.007  0.00  0.00    +0.033 A 
ATOM      9  C   UNL     1       1.292   1.866  -0.738  0.00  0.00    +0.023 A 
ATOM     10  C   UNL     1       0.105   1.159  -0.722  0.00  0.00    +0.006 A 
ATOM     11  C   UNL     1       0.001  -0.002   0.021  0.00  0.00    -0.037 A 
BRANCH  11  12
ATOM     12  C   UNL     1      -1.295  -0.771   0.036  0.00  0.00    +0.160 C 
BRANCH  12  13
ATOM     13  C   UNL     1      -2.162  -0.271   1.163  0.00  0.00    +0.360 C 
ATOM     14  O   UNL     1      -1.765   0.626   1.886  0.00  0.00    -0.246 OA
ATOM     15  O   UNL     1      -3.261  -0.764   1.351  0.00  0.00    -0.246 OA
ENDBRANCH  12  13
ENDBRANCH  11  12
ENDBRANCH   2   8
ENDBRANCH   1   3
BRANCH   1  16
ATOM     16  S   UNL     1       7.440   1.083   0.272  0.00  0.00    -0.079 S 
BRANCH  16  17
ATOM     17  C   UNL     1       8.855   2.127   0.388  0.00  0.00    +0.167 A 
ATOM     18  N   UNL     1      10.146   1.706   0.480  0.00  0.00    -0.333 N 
ATOM     19  H   UNL     1      10.455   0.787   0.494  0.00  0.00    +0.168 HD
ATOM     20  C   UNL     1      10.935   2.842   0.551  0.00  0.00    +0.067 A 
ATOM     21  C   UNL     1      10.090   3.905   0.498  0.00  0.00    +0.139 A 
ATOM     22  N   UNL     1       8.839   3.441   0.394  0.00  0.00    -0.230 NA
BRANCH  20  23
ATOM     23  C   UNL     1      12.408   2.889   0.661  0.00  0.00    -0.000 A 
ATOM     24  C   UNL     1      13.146   1.705   0.698  0.00  0.00    +0.011 A 
ATOM     25  C   UNL     1      14.521   1.755   0.801  0.00  0.00    +0.016 A 
ATOM     26  C   UNL     1      15.168   2.977   0.867  0.00  0.00    +0.018 A 
ATOM     27  C   UNL     1      14.442   4.155   0.831  0.00  0.00    +0.016 A 
ATOM     28  C   UNL     1      13.067   4.118   0.723  0.00  0.00    +0.011 A 
ATOM     29 BR   UNL     1      17.053   3.037   1.009  0.00  0.00    -0.050 Br
ENDBRANCH  20  23
ENDBRANCH  16  17
ENDBRANCH   1  16
TORSDOF 7
