REMARK  Name = ZINC25260701
REMARK  11 active torsions:
REMARK  status: ('A' for Active; 'I' for Inactive)
REMARK    1  A    between atoms: C_1  and  C_2
REMARK    2  A    between atoms: C_2  and  C_3
REMARK    3  A    between atoms: C_3  and  C_5
REMARK    4  A    between atoms: C_3  and  C_6
REMARK    5  A    between atoms: C_6  and  C_8
REMARK    6  A    between atoms: C_6  and  N_29
REMARK    7  A    between atoms: N_10  and  C_11
REMARK    8  A    between atoms: C_14  and  C_28
REMARK    9  A    between atoms: C_15  and  S_17
REMARK   10  A    between atoms: S_17  and  N_20
REMARK   11  A    between atoms: N_20  and  C_21
REMARK                            x       y       z     vdW  Elec       q    Type
REMARK                         _______ _______ _______ _____ _____    ______ ____
ROOT
ATOM      1  C   UNL     1      -0.876   3.665   4.969  0.00  0.00    +0.035 A 
ATOM      2  C   UNL     1      -1.665   2.615   5.420  0.00  0.00    +0.024 A 
ATOM      3  C   UNL     1      -2.430   2.767   6.559  0.00  0.00    +0.007 A 
ATOM      4  C   UNL     1      -2.420   3.969   7.245  0.00  0.00    -0.024 A 
ATOM      5  C   UNL     1      -1.641   5.018   6.795  0.00  0.00    +0.113 A 
ATOM      6  C   UNL     1      -0.869   4.870   5.659  0.00  0.00    +0.052 A 
ATOM      7  C   UNL     1      -3.261   4.134   8.485  0.00  0.00    +0.046 C 
ENDROOT
BRANCH   1  10
ATOM      8  C   UNL     1       0.446   2.312   3.526  0.00  0.00    +0.238 C 
ATOM      9  O   UNL     1       0.336   1.391   4.307  0.00  0.00    -0.273 OA
ATOM     10  N   UNL     1      -0.096   3.512   3.818  0.00  0.00    -0.284 N 
ATOM     11  H   UNL     1       0.076   4.370   3.152  0.00  0.00    +0.155 HD
BRANCH   8  12
ATOM     12  C   UNL     1       1.188   2.116   2.229  0.00  0.00    +0.163 C 
BRANCH  12  13
ATOM     13  N   UNL     1       2.064   0.947   2.340  0.00  0.00    -0.288 N 
ATOM     14  C   UNL     1       1.538  -0.266   2.600  0.00  0.00    +0.298 C 
ATOM     15  O   UNL     1       0.337  -0.390   2.744  0.00  0.00    -0.253 OA
ATOM     16  N   UNL     1       2.344  -1.342   2.702  0.00  0.00    -0.313 N 
ATOM     17  H   UNL     1       3.150   1.060   2.210  0.00  0.00    +0.151 HD
ATOM     18  H   UNL     1       1.915  -2.332   2.915  0.00  0.00    +0.146 HD
ATOM     19  H   UNL     1       3.430  -1.230   2.572  0.00  0.00    +0.146 HD
ENDBRANCH  12  13
BRANCH  12  20
ATOM     20  C   UNL     1       0.185   1.897   1.095  0.00  0.00    +0.015 C 
ATOM     21  C   UNL     1      -0.730   3.118   0.980  0.00  0.00    +0.010 C 
BRANCH  20  23
ATOM     22  C   UNL     1      -0.057   1.355  -1.332  0.00  0.00    +0.004 C 
ATOM     23  C   UNL     1       0.938   1.698  -0.221  0.00  0.00    +0.002 C 
ENDBRANCH  20  23
ENDBRANCH  12  20
ENDBRANCH   8  12
ENDBRANCH   1  10
BRANCH   5  24
ATOM     24  S   UNL     1      -1.632   6.546   7.672  0.00  0.00    +0.073 S 
ATOM     25  O   UNL     1      -0.716   7.397   6.996  0.00  0.00    -0.150 OA
ATOM     26  O   UNL     1      -2.991   6.903   7.880  0.00  0.00    -0.150 OA
BRANCH  24  27
ATOM     27  N   UNL     1      -0.986   6.249   9.168  0.00  0.00    -0.216 N 
ATOM     28  H   UNL     1      -1.615   6.338  10.066  0.00  0.00    +0.174 HD
BRANCH  27  29
ATOM     29  C   UNL     1       0.358   5.885   9.288  0.00  0.00    +0.048 A 
ATOM     30  C   UNL     1       0.895   4.918   8.449  0.00  0.00    +0.025 A 
ATOM     31  C   UNL     1       2.224   4.563   8.567  0.00  0.00    +0.017 A 
ATOM     32  C   UNL     1       3.018   5.163   9.529  0.00  0.00    +0.018 A 
ATOM     33  C   UNL     1       2.485   6.123  10.370  0.00  0.00    +0.017 A 
ATOM     34  C   UNL     1       1.157   6.485  10.252  0.00  0.00    +0.025 A 
ATOM     35 BR   UNL     1       4.837   4.670   9.692  0.00  0.00    -0.050 Br
ENDBRANCH  27  29
ENDBRANCH  24  27
ENDBRANCH   5  24
TORSDOF 8
