REMARK  Name = ZINC16607933
REMARK  5 active torsions:
REMARK  status: ('A' for Active; 'I' for Inactive)
REMARK    1  A    between atoms: C_1  and  C_2
REMARK    2  A    between atoms: N_4  and  C_26
REMARK    3  A    between atoms: C_9  and  C_17
REMARK    4  A    between atoms: C_11  and  C_15
REMARK    5  A    between atoms: C_12  and  N_14
REMARK                            x       y       z     vdW  Elec       q    Type
REMARK                         _______ _______ _______ _____ _____    ______ ____
ROOT
ATOM      1  C   UNL     1       1.333   3.119  -2.449  0.00  0.00    +0.063 C 
ATOM      2  C   UNL     1       2.016   2.758  -1.155  0.00  0.00    +0.043 C 
ATOM      3  N   UNL     1       3.282   2.682  -0.968  0.00  0.00    -0.185 NA
ATOM      4  N   UNL     1       3.630   2.360   0.353  0.00  0.00    -0.185 N 
ATOM      5  C   UNL     1       2.425   1.707   0.953  0.00  0.00    +0.294 C 
ATOM      6  C   UNL     1       1.334   2.424   0.140  0.00  0.00    +0.109 C 
ATOM      7  C   UNL     1       0.048   1.660   0.017  0.00  0.00    +0.078 C 
ATOM      8  C   UNL     1       0.269   0.180  -0.102  0.00  0.00    +0.094 C 
ATOM      9  C   UNL     1       1.459  -0.377   0.210  0.00  0.00    +0.194 C 
ATOM     10  O   UNL     1       2.527   0.335   0.571  0.00  0.00    -0.455 OA
ENDROOT
BRANCH   7  11
ATOM     11  C   UNL     1      -0.691   2.142  -1.205  0.00  0.00    -0.035 A 
ATOM     12  C   UNL     1      -0.654   1.401  -2.371  0.00  0.00    +0.008 A 
ATOM     13  C   UNL     1      -1.330   1.840  -3.494  0.00  0.00    +0.050 A 
ATOM     14  C   UNL     1      -2.048   3.024  -3.453  0.00  0.00    +0.166 A 
ATOM     15  C   UNL     1      -2.085   3.771  -2.278  0.00  0.00    +0.167 A 
ATOM     16  C   UNL     1      -1.409   3.323  -1.155  0.00  0.00    +0.053 A 
ATOM     17  O   UNL     1      -2.849   4.882  -2.491  0.00  0.00    -0.453 OA
ATOM     18  C   UNL     1      -3.613   4.601  -3.679  0.00  0.00    +0.466 C 
ATOM     19  O   UNL     1      -2.789   3.667  -4.402  0.00  0.00    -0.453 OA
ENDBRANCH   7  11
BRANCH   4  20
ATOM     20  C   UNL     1       4.853   2.600   0.981  0.00  0.00    +0.055 A 
ATOM     21  C   UNL     1       5.042   2.224   2.306  0.00  0.00    +0.025 A 
ATOM     22  C   UNL     1       6.256   2.457   2.922  0.00  0.00    +0.002 A 
ATOM     23  C   UNL     1       7.279   3.075   2.226  0.00  0.00    +0.000 A 
ATOM     24  C   UNL     1       7.092   3.456   0.910  0.00  0.00    +0.002 A 
ATOM     25  C   UNL     1       5.883   3.221   0.285  0.00  0.00    +0.025 A 
ENDBRANCH   4  20
BRANCH   9  26
ATOM     26  N   UNL     1       1.574  -1.743   0.155  0.00  0.00    -0.329 N 
ATOM     27  H   UNL     1       0.811  -2.284  -0.104  0.00  0.00    +0.145 HD
ATOM     28  H   UNL     1       2.418  -2.168   0.374  0.00  0.00    +0.145 HD
ENDBRANCH   9  26
BRANCH   8  29
ATOM     29  C   UNL     1      -0.802  -0.656  -0.555  0.00  0.00    +0.100 C 
ATOM     30  N   UNL     1      -1.651  -1.320  -0.914  0.00  0.00    -0.191 NA
ENDBRANCH   8  29
TORSDOF 4
