REMARK  Name = ZINC63141252
REMARK  6 active torsions:
REMARK  status: ('A' for Active; 'I' for Inactive)
REMARK    1  A    between atoms: C_1  and  O_2
REMARK    2  A    between atoms: O_2  and  C_3
REMARK    3  A    between atoms: C_6  and  C_9
REMARK    4  A    between atoms: C_9  and  C_10
REMARK    5  A    between atoms: C_10  and  N_11
REMARK    6  A    between atoms: C_31  and  C_33
REMARK                            x       y       z     vdW  Elec       q    Type
REMARK                         _______ _______ _______ _____ _____    ______ ____
ROOT
ATOM      1  N   UNL     1       2.249  -3.470   6.551  0.00  0.00    -0.291 N 
ATOM      2  C   UNL     1       2.341  -4.939   6.640  0.00  0.00    +0.203 C 
ATOM      3  C   UNL     1       3.760  -5.311   7.012  0.00  0.00    +0.234 C 
ATOM      4  O   UNL     1       4.344  -6.218   6.459  0.00  0.00    -0.274 OA
ATOM      5  N   UNL     1       4.357  -4.571   8.004  0.00  0.00    -0.279 N 
ATOM      6  C   UNL     1       3.514  -3.574   8.628  0.00  0.00    +0.167 C 
ATOM      7  C   UNL     1       2.828  -2.757   7.563  0.00  0.00    +0.237 C 
ATOM      8  O   UNL     1       2.789  -1.545   7.603  0.00  0.00    -0.274 OA
ATOM      9  C   UNL     1       4.106  -2.715   9.716  0.00  0.00    +0.065 C 
ATOM     10  C   UNL     1       5.593  -2.932   9.786  0.00  0.00    -0.034 C 
ATOM     11  C   UNL     1       6.607  -2.096   9.961  0.00  0.00    -0.001 A 
ATOM     12  C   UNL     1       6.650  -0.643  10.197  0.00  0.00    +0.010 A 
ATOM     13  C   UNL     1       7.886  -0.093  10.325  0.00  0.00    +0.001 A 
ATOM     14  C   UNL     1       9.070  -0.833  10.243  0.00  0.00    +0.002 A 
ATOM     15  C   UNL     1       9.124  -2.172  10.032  0.00  0.00    +0.026 A 
ATOM     16  C   UNL     1       7.887  -2.864   9.886  0.00  0.00    +0.043 A 
ATOM     17  N   UNL     1       7.648  -4.126   9.689  0.00  0.00    -0.375 N 
ATOM     18  C   UNL     1       6.195  -4.328   9.640  0.00  0.00    +0.131 C 
ATOM     19  C   UNL     1       5.762  -4.840   8.275  0.00  0.00    +0.133 C 
ATOM     20  H   UNL     1       8.319  -4.819   9.590  0.00  0.00    +0.160 HD
ENDROOT
BRANCH  19  21
ATOM     21  C   UNL     1       6.006  -6.324   8.175  0.00  0.00    -0.023 A 
ATOM     22  C   UNL     1       5.071  -7.213   8.674  0.00  0.00    +0.005 A 
ATOM     23  C   UNL     1       5.294  -8.573   8.583  0.00  0.00    +0.002 A 
ATOM     24  C   UNL     1       6.452  -9.047   7.995  0.00  0.00    +0.020 A 
ATOM     25  C   UNL     1       7.388  -8.158   7.497  0.00  0.00    +0.041 A 
ATOM     26  C   UNL     1       7.161  -6.796   7.582  0.00  0.00    +0.025 A 
ATOM     27 CL   UNL     1       8.842  -8.752   6.758  0.00  0.00    -0.084 Cl
ENDBRANCH  19  21
BRANCH   1  28
ATOM     28  C   UNL     1       1.577  -2.808   5.431  0.00  0.00    +0.113 C 
BRANCH  28  29
ATOM     29  C   UNL     1       2.587  -2.550   4.310  0.00  0.00    +0.054 C 
BRANCH  29  33
ATOM     30  C   UNL     1       0.626  -0.618   1.042  0.00  0.00    +0.120 A 
ATOM     31  C   UNL     1       1.202   0.138   2.051  0.00  0.00    +0.046 A 
ATOM     32  C   UNL     1       1.835  -0.488   3.107  0.00  0.00    +0.007 A 
ATOM     33  C   UNL     1       1.895  -1.869   3.158  0.00  0.00    -0.046 A 
ATOM     34  C   UNL     1       1.322  -2.625   2.152  0.00  0.00    +0.007 A 
ATOM     35  C   UNL     1       0.682  -2.003   1.098  0.00  0.00    +0.046 A 
BRANCH  30  37
ATOM     36  C   UNL     1      -0.017   1.425   0.010  0.00  0.00    +0.277 C 
ATOM     37  O   UNL     1       0.002  -0.004   0.002  0.00  0.00    -0.495 OA
ENDBRANCH  30  37
ENDBRANCH  29  33
ENDBRANCH  28  29
ENDBRANCH   1  28
TORSDOF 5
