REMARK  Name = ZINC38994401
REMARK  7 active torsions:
REMARK  status: ('A' for Active; 'I' for Inactive)
REMARK    1  A    between atoms: C_6  and  C_7
REMARK    2  A    between atoms: C_9  and  C_13
REMARK    3  A    between atoms: C_17  and  S_21
REMARK    4  A    between atoms: N_19  and  N_20
REMARK    5  A    between atoms: S_21  and  C_22
REMARK    6  A    between atoms: C_22  and  C_23
REMARK    7  A    between atoms: N_25  and  C_26
REMARK                            x       y       z     vdW  Elec       q    Type
REMARK                         _______ _______ _______ _____ _____    ______ ____
ROOT
ATOM      1  C   UNL     1      -3.294  -3.111   1.258  0.00  0.00    +0.185 C 
ATOM      2  N   UNL     1      -2.564  -4.403   1.343  0.00  0.00    -0.234 NA
ATOM      3  N   UNL     1      -3.414  -5.248   2.187  0.00  0.00    -0.228 NA
ATOM      4  C   UNL     1      -4.786  -4.709   2.089  0.00  0.00    +0.214 C 
ATOM      5  N   UNL     1      -4.717  -3.534   1.187  0.00  0.00    -0.197 NA
ATOM      6  H   UNL     1      -1.654  -4.277   1.759  0.00  0.00    +0.143 HD
ATOM      7  H   UNL     1      -3.381  -6.210   1.884  0.00  0.00    +0.143 HD
ENDROOT
BRANCH   1  10
ATOM      8  C   UNL     1      -1.315  -0.729  -0.021  0.00  0.00    +0.091 C 
ATOM      9  C   UNL     1      -1.399  -2.074  -0.016  0.00  0.00    +0.034 C 
ATOM     10  C   UNL     1      -2.893  -2.345  -0.005  0.00  0.00    +0.187 C 
ATOM     11  N   UNL     1      -3.479  -0.995  -0.007  0.00  0.00    -0.176 NA
ATOM     12  N   UNL     1      -2.556  -0.177  -0.010  0.00  0.00    -0.154 NA
BRANCH   8  18
ATOM     13  C   UNL     1      -0.073   1.433  -0.032  0.00  0.00    +0.011 A 
ATOM     14  C   UNL     1       1.109   2.144  -0.042  0.00  0.00    +0.020 A 
ATOM     15  C   UNL     1       2.322   1.475  -0.053  0.00  0.00    +0.041 A 
ATOM     16  C   UNL     1       2.354   0.091  -0.054  0.00  0.00    +0.020 A 
ATOM     17  C   UNL     1       1.177  -0.629  -0.044  0.00  0.00    +0.011 A 
ATOM     18  C   UNL     1      -0.046   0.040  -0.033  0.00  0.00    +0.002 A 
ATOM     19 CL   UNL     1       3.806   2.375  -0.065  0.00  0.00    -0.084 Cl
ENDBRANCH   8  18
ENDBRANCH   1  10
BRANCH   5  20
ATOM     20  N   UNL     1      -5.600  -2.471   1.640  0.00  0.00    -0.264 NA
ATOM     21  H   UNL     1      -6.566  -2.759   1.592  0.00  0.00    +0.137 HD
ATOM     22  H   UNL     1      -5.358  -2.173   2.573  0.00  0.00    +0.137 HD
ENDBRANCH   5  20
BRANCH   4  23
ATOM     23  S   UNL     1      -5.899  -5.964   1.400  0.00  0.00    -0.115 S 
BRANCH  23  24
ATOM     24  C   UNL     1      -5.172  -6.356  -0.215  0.00  0.00    +0.168 C 
BRANCH  24  25
ATOM     25  C   UNL     1      -6.012  -7.401  -0.904  0.00  0.00    +0.227 C 
ATOM     26  O   UNL     1      -7.003  -7.838  -0.359  0.00  0.00    -0.275 OA
ATOM     27  N   UNL     1      -5.661  -7.850  -2.125  0.00  0.00    -0.284 N 
ATOM     28  H   UNL     1      -4.906  -7.455  -2.589  0.00  0.00    +0.155 HD
BRANCH  27  29
ATOM     29  C   UNL     1      -6.386  -8.887  -2.724  0.00  0.00    +0.053 A 
ATOM     30  C   UNL     1      -7.756  -8.986  -2.521  0.00  0.00    +0.044 A 
ATOM     31  C   UNL     1      -8.469 -10.010  -3.115  0.00  0.00    +0.043 A 
ATOM     32  C   UNL     1      -7.819 -10.937  -3.912  0.00  0.00    +0.021 A 
ATOM     33  C   UNL     1      -6.455 -10.841  -4.115  0.00  0.00    +0.023 A 
ATOM     34  C   UNL     1      -5.737  -9.815  -3.529  0.00  0.00    +0.062 A 
ATOM     35 CL   UNL     1      -4.025  -9.692  -3.791  0.00  0.00    -0.082 Cl
ATOM     36 CL   UNL     1     -10.182 -10.135  -2.861  0.00  0.00    -0.083 Cl
ENDBRANCH  27  29
ENDBRANCH  24  25
ENDBRANCH  23  24
ENDBRANCH   4  23
TORSDOF 7
