REMARK  Name = ZINC64787661
REMARK  8 active torsions:
REMARK  status: ('A' for Active; 'I' for Inactive)
REMARK    1  A    between atoms: C_1  and  C_2
REMARK    2  A    between atoms: C_5  and  C_8
REMARK    3  A    between atoms: C_13  and  C_27
REMARK    4  A    between atoms: C_13  and  C_28
REMARK    5  A    between atoms: C_16  and  C_18
REMARK    6  A    between atoms: C_21  and  N_24
REMARK    7  A    between atoms: N_29  and  C_36
REMARK    8  A    between atoms: N_32  and  C_35
REMARK                            x       y       z     vdW  Elec       q    Type
REMARK                         _______ _______ _______ _____ _____    ______ ____
ROOT
ATOM      1  C   UNL     1      -0.524  -5.606  -1.166  0.00  0.00    +0.064 A 
ATOM      2  C   UNL     1      -0.736  -6.881  -1.664  0.00  0.00    +0.089 A 
ATOM      3  C   UNL     1       0.073  -7.790  -0.834  0.00  0.00    +0.083 A 
ATOM      4  C   UNL     1       0.694  -7.026   0.074  0.00  0.00    +0.078 A 
ATOM      5  N   UNL     1       0.343  -5.707  -0.126  0.00  0.00    -0.331 N 
ATOM      6  C   UNL     1       0.864  -4.610   0.704  0.00  0.00    +0.064 C 
ATOM      7  C   UNL     1       2.098  -5.124   1.455  0.00  0.00    +0.189 C 
ATOM      8  O   UNL     1       1.798  -6.375   2.079  0.00  0.00    -0.364 OA
ATOM      9  C   UNL     1       1.643  -7.466   1.165  0.00  0.00    +0.197 C 
ATOM     10  C   UNL     1       1.255  -3.430  -0.188  0.00  0.00    +0.036 C 
ATOM     11  C   UNL     1      -0.204  -4.169   1.706  0.00  0.00    +0.036 C 
ATOM     12  N   UNL     1       0.032  -9.156  -1.137  0.00  0.00    -0.294 N 
ATOM     13  C   UNL     1      -0.726  -9.603  -2.154  0.00  0.00    +0.332 A 
ATOM     14  O   UNL     1      -0.733 -10.797  -2.383  0.00  0.00    -0.246 OA
ATOM     15  N   UNL     1      -1.473  -8.806  -2.929  0.00  0.00    -0.263 N 
ATOM     16  C   UNL     1      -1.526  -7.469  -2.748  0.00  0.00    +0.266 A 
ATOM     17  O   UNL     1      -2.214  -6.769  -3.468  0.00  0.00    -0.267 OA
ATOM     18  C   UNL     1      -2.259  -9.405  -4.011  0.00  0.00    +0.157 C 
ATOM     19  C   UNL     1       0.818 -10.104  -0.343  0.00  0.00    +0.154 C 
ENDROOT
BRANCH   1  24
ATOM     20  C   UNL     1      -2.876  -0.751  -3.162  0.00  0.00    +0.044 C 
ATOM     21  C   UNL     1      -2.260  -2.023  -2.639  0.00  0.00    -0.050 A 
ATOM     22  C   UNL     1      -2.646  -2.519  -1.406  0.00  0.00    +0.004 A 
ATOM     23  C   UNL     1      -2.086  -3.682  -0.922  0.00  0.00    +0.010 A 
ATOM     24  C   UNL     1      -1.128  -4.361  -1.678  0.00  0.00    -0.001 A 
ATOM     25  C   UNL     1      -0.743  -3.854  -2.922  0.00  0.00    +0.010 A 
ATOM     26  C   UNL     1      -1.315  -2.692  -3.397  0.00  0.00    +0.004 A 
ENDBRANCH   1  24
BRANCH   9  27
ATOM     27  C   UNL     1       1.079  -8.669   1.877  0.00  0.00    -0.013 A 
ATOM     28  C   UNL     1       1.855  -9.801   2.043  0.00  0.00    +0.009 A 
ATOM     29  C   UNL     1       1.337 -10.904   2.696  0.00  0.00    +0.033 A 
ATOM     30  C   UNL     1       0.044 -10.874   3.184  0.00  0.00    +0.126 A 
ATOM     31  C   UNL     1      -0.731  -9.742   3.020  0.00  0.00    +0.033 A 
ATOM     32  C   UNL     1      -0.212  -8.637   2.370  0.00  0.00    +0.009 A 
BRANCH  30  33
ATOM     33  N   UNL     1      -0.510 -12.056   3.883  0.00  0.00    +0.056 N 
ATOM     34  O   UNL     1       0.168 -13.046   4.027  0.00  0.00    -0.126 OA
ATOM     35  O   UNL     1      -1.641 -12.030   4.310  0.00  0.00    -0.126 OA
ENDBRANCH  30  33
ENDBRANCH   9  27
TORSDOF 3
