REMARK  Name = ZINC55911374
REMARK  6 active torsions:
REMARK  status: ('A' for Active; 'I' for Inactive)
REMARK    1  A    between atoms: C_1  and  C_2
REMARK    2  A    between atoms: C_2  and  C_3
REMARK    3  A    between atoms: C_13  and  C_15
REMARK    4  A    between atoms: C_15  and  N_16
REMARK    5  A    between atoms: C_19  and  C_22
REMARK    6  A    between atoms: N_24  and  C_25
REMARK                            x       y       z     vdW  Elec       q    Type
REMARK                         _______ _______ _______ _____ _____    ______ ____
ROOT
ATOM      1  C   UNL     1       0.742  -0.511   1.242  0.00  0.00    -0.006 C 
ATOM      2  C   UNL     1       0.662  -2.039   1.298  0.00  0.00    +0.010 C 
ATOM      3  C   UNL     1       1.179  -2.544   2.646  0.00  0.00    +0.056 C 
ATOM      4  C   UNL     1       2.558  -1.948   2.894  0.00  0.00    +0.054 A 
ATOM      5  C   UNL     1       2.972  -0.854   2.204  0.00  0.00    +0.015 A 
ATOM      6  S   UNL     1       4.597  -0.581   2.852  0.00  0.00    -0.057 S 
ATOM      7  C   UNL     1       4.619  -1.869   3.940  0.00  0.00    +0.165 A 
ATOM      8  N   UNL     1       3.440  -2.425   3.768  0.00  0.00    -0.229 NA
ATOM      9  N   UNL     1       5.636  -2.250   4.807  0.00  0.00    -0.266 N 
ATOM     10  C   UNL     1       5.471  -3.319   5.611  0.00  0.00    +0.202 C 
ATOM     11  O   UNL     1       4.435  -3.948   5.578  0.00  0.00    -0.277 OA
ATOM     12  C   UNL     1       2.219  -0.091   1.167  0.00  0.00    +0.048 C 
ATOM     13  H   UNL     1       6.465  -1.746   4.834  0.00  0.00    +0.157 HD
ENDROOT
BRANCH   1  15
ATOM     14  C   UNL     1      -0.019   1.526   0.010  0.00  0.00    +0.004 C 
ATOM     15  C   UNL     1       0.002  -0.004   0.002  0.00  0.00    +0.000 C 
ENDBRANCH   1  15
BRANCH  10  16
ATOM     16  C   UNL     1       6.574  -3.732   6.552  0.00  0.00    +0.019 C 
BRANCH  16  17
ATOM     17  N   UNL     1       6.151  -4.915   7.312  0.00  0.00    +0.385 N 
ATOM     18  C   UNL     1       5.011  -4.564   8.167  0.00  0.00    -0.077 C 
ATOM     19  C   UNL     1       4.515  -5.812   8.901  0.00  0.00    -0.006 C 
ATOM     20  C   UNL     1       5.648  -6.374   9.764  0.00  0.00    +0.071 C 
ATOM     21  C   UNL     1       6.858  -6.668   8.872  0.00  0.00    -0.006 C 
ATOM     22  C   UNL     1       7.267  -5.388   8.140  0.00  0.00    -0.077 C 
ATOM     23  H   UNL     1       5.876  -5.645   6.672  0.00  0.00    -0.081 HD
BRANCH  20  24
ATOM     24  C   UNL     1       5.191  -7.647  10.428  0.00  0.00    +0.216 C 
ATOM     25  O   UNL     1       4.070  -8.065  10.232  0.00  0.00    -0.276 OA
ATOM     26  N   UNL     1       6.029  -8.322  11.241  0.00  0.00    -0.312 N 
ATOM     27  H   UNL     1       6.926  -7.987  11.398  0.00  0.00    +0.149 HD
BRANCH  26  28
ATOM     28  C   UNL     1       5.585  -9.559  11.887  0.00  0.00    +0.073 C 
ATOM     29  C   UNL     1       5.936  -9.750  13.364  0.00  0.00    +0.024 C 
ATOM     30  C   UNL     1       6.660 -10.569  12.293  0.00  0.00    +0.024 C 
ENDBRANCH  26  28
ENDBRANCH  20  24
ENDBRANCH  16  17
ENDBRANCH  10  16
TORSDOF 5
