REMARK  Name = ZINC33034038
REMARK  9 active torsions:
REMARK  status: ('A' for Active; 'I' for Inactive)
REMARK    1  A    between atoms: C_1  and  C_2
REMARK    2  A    between atoms: C_2  and  C_3
REMARK    3  A    between atoms: C_3  and  C_5
REMARK    4  A    between atoms: C_3  and  N_6
REMARK    5  A    between atoms: C_7  and  C_9
REMARK    6  A    between atoms: C_12  and  N_27
REMARK    7  A    between atoms: C_13  and  N_15
REMARK    8  A    between atoms: N_15  and  S_16
REMARK    9  A    between atoms: S_16  and  C_19
REMARK                            x       y       z     vdW  Elec       q    Type
REMARK                         _______ _______ _______ _____ _____    ______ ____
ROOT
ATOM      1  C   UNL     1       2.062   5.186  -2.948  0.00  0.00    +0.039 A 
ATOM      2  C   UNL     1       2.125   4.889  -4.312  0.00  0.00    +0.015 A 
ATOM      3  C   UNL     1       2.770   3.750  -4.741  0.00  0.00    +0.026 A 
ATOM      4  C   UNL     1       3.359   2.892  -3.819  0.00  0.00    +0.052 A 
ATOM      5  C   UNL     1       3.299   3.183  -2.454  0.00  0.00    +0.070 A 
ATOM      6  C   UNL     1       2.648   4.322  -2.019  0.00  0.00    +0.039 A 
ENDROOT
BRANCH   4   7
ATOM      7  N   UNL     1       4.010   1.741  -4.258  0.00  0.00    -0.332 N 
ATOM      8  C   UNL     1       3.750   1.500  -5.684  0.00  0.00    +0.086 C 
ATOM      9  C   UNL     1       4.416   0.188  -6.106  0.00  0.00    -0.063 C 
ATOM     10  N   UNL     1       5.860   0.267  -5.843  0.00  0.00    +0.381 N 
ATOM     11  C   UNL     1       6.120   0.509  -4.417  0.00  0.00    -0.063 C 
ATOM     12  C   UNL     1       5.454   1.821  -3.995  0.00  0.00    +0.086 C 
ATOM     13  H   UNL     1       6.338  -0.679  -6.134  0.00  0.00    -0.086 HD
ATOM     14  H   UNL     1       6.294   1.092  -6.426  0.00  0.00    -0.086 HD
ENDBRANCH   4   7
BRANCH   1  16
ATOM     15  N   UNL     1       0.801   7.236  -3.385  0.00  0.00    -0.309 N 
ATOM     16  C   UNL     1       1.371   6.407  -2.489  0.00  0.00    +0.244 C 
ATOM     17  O   UNL     1       1.317   6.664  -1.302  0.00  0.00    -0.270 OA
ATOM     18  H   UNL     1       0.851   7.003  -4.459  0.00  0.00    +0.149 HD
BRANCH  15  19
ATOM     19  C   UNL     1       0.116   8.448  -2.929  0.00  0.00    +0.070 C 
ATOM     20  C   UNL     1      -1.326   8.106  -2.549  0.00  0.00    +0.028 C 
BRANCH  19  22
ATOM     21  C   UNL     1       1.551   9.921  -4.349  0.00  0.00    +0.005 C 
ATOM     22  C   UNL     1       0.114   9.486  -4.053  0.00  0.00    +0.018 C 
ENDBRANCH  19  22
ENDBRANCH  15  19
ENDBRANCH   1  16
BRANCH   5  23
ATOM     23  N   UNL     1       3.893   2.318  -1.526  0.00  0.00    -0.214 N 
ATOM     24  H   UNL     1       4.963   2.416  -1.290  0.00  0.00    +0.174 HD
BRANCH  23  25
ATOM     25  S   UNL     1       2.985   1.148  -0.785  0.00  0.00    +0.072 S 
ATOM     26  O   UNL     1       1.821   1.793  -0.286  0.00  0.00    -0.150 OA
ATOM     27  O   UNL     1       3.870   0.417   0.053  0.00  0.00    -0.150 OA
BRANCH  25  28
ATOM     28  C   UNL     1       2.445   0.035  -2.040  0.00  0.00    +0.110 A 
ATOM     29  C   UNL     1       1.249   0.261  -2.695  0.00  0.00    +0.032 A 
ATOM     30  C   UNL     1       0.824  -0.611  -3.680  0.00  0.00    +0.042 A 
ATOM     31  C   UNL     1       1.596  -1.711  -4.010  0.00  0.00    +0.142 A 
ATOM     32  C   UNL     1       2.795  -1.937  -3.354  0.00  0.00    +0.078 A 
ATOM     33  C   UNL     1       3.218  -1.062  -2.369  0.00  0.00    +0.051 A 
ATOM     34 CL   UNL     1       3.766  -3.316  -3.766  0.00  0.00    -0.081 Cl
ATOM     35  F   UNL     1       1.182  -2.564  -4.973  0.00  0.00    -0.204 F 
ENDBRANCH  25  28
ENDBRANCH  23  25
ENDBRANCH   5  23
TORSDOF 7
