REMARK  Name = ZINC48722837
REMARK  7 active torsions:
REMARK  status: ('A' for Active; 'I' for Inactive)
REMARK    1  A    between atoms: C_1  and  C_2
REMARK    2  A    between atoms: C_2  and  C_4
REMARK    3  A    between atoms: C_7  and  N_10
REMARK    4  A    between atoms: C_11  and  C_13
REMARK    5  A    between atoms: N_15  and  C_16
REMARK    6  A    between atoms: C_16  and  C_17
REMARK    7  A    between atoms: C_17  and  N_23
REMARK                            x       y       z     vdW  Elec       q    Type
REMARK                         _______ _______ _______ _____ _____    ______ ____
ROOT
ATOM      1  C   UNL     1      -1.721  -5.352  -8.316  0.00  0.00    +0.299 C 
ATOM      2  O   UNL     1      -0.896  -4.473  -8.175  0.00  0.00    -0.265 OA
ATOM      3  N   UNL     1      -1.472  -6.590  -7.845  0.00  0.00    -0.309 N 
ATOM      4  H   UNL     1      -2.131  -7.293  -7.957  0.00  0.00    +0.149 HD
ENDROOT
BRANCH   1   6
ATOM      5  N   UNL     1      -3.260  -3.825  -9.481  0.00  0.00    -0.278 N 
ATOM      6  C   UNL     1      -3.011  -5.063  -9.011  0.00  0.00    +0.303 C 
ATOM      7  O   UNL     1      -3.835  -5.942  -9.151  0.00  0.00    -0.265 OA
ATOM      8  H   UNL     1      -2.573  -3.141  -9.436  0.00  0.00    +0.155 HD
BRANCH   5  12
ATOM      9  C   UNL     1      -6.969  -2.935 -11.127  0.00  0.00    +0.017 A 
ATOM     10  C   UNL     1      -6.870  -3.852 -10.073  0.00  0.00    +0.013 A 
ATOM     11  C   UNL     1      -5.648  -4.142  -9.535  0.00  0.00    +0.024 A 
ATOM     12  C   UNL     1      -4.502  -3.527 -10.033  0.00  0.00    +0.034 A 
ATOM     13  C   UNL     1      -4.596  -2.614 -11.080  0.00  0.00    +0.024 A 
ATOM     14  C   UNL     1      -5.813  -2.323 -11.629  0.00  0.00    +0.013 A 
BRANCH   9  16
ATOM     15  C   UNL     1      -9.522  -3.280 -11.168  0.00  0.00    +0.091 C 
ATOM     16  C   UNL     1      -8.280  -2.620 -11.709  0.00  0.00    +0.160 C 
ATOM     17  O   UNL     1      -8.363  -1.830 -12.625  0.00  0.00    -0.292 OA
ENDBRANCH   9  16
ENDBRANCH   5  12
ENDBRANCH   1   6
BRANCH   3  18
ATOM     18  C   UNL     1      -0.206  -6.874  -7.164  0.00  0.00    +0.093 C 
BRANCH  18  19
ATOM     19  C   UNL     1      -0.127  -8.367  -6.836  0.00  0.00    -0.050 C 
ATOM     20  C   UNL     1       1.136  -8.643  -6.019  0.00  0.00    -0.010 C 
ATOM     21  C   UNL     1       2.368  -8.232  -6.828  0.00  0.00    -0.001 C 
ATOM     22  C   UNL     1       2.415  -9.038  -8.128  0.00  0.00    -0.000 C 
ATOM     23  C   UNL     1       1.152  -8.762  -8.946  0.00  0.00    -0.001 C 
ATOM     24  C   UNL     1      -0.080  -9.172  -8.136  0.00  0.00    -0.010 C 
BRANCH  19  25
ATOM     25  N   UNL     1      -1.310  -8.761  -6.059  0.00  0.00    +0.384 N 
ATOM     26  C   UNL     1      -1.379  -7.954  -4.834  0.00  0.00    -0.078 C 
ATOM     27  C   UNL     1      -2.652  -8.304  -4.061  0.00  0.00    -0.019 C 
ATOM     28  C   UNL     1      -2.628  -9.791  -3.694  0.00  0.00    -0.004 C 
ATOM     29  C   UNL     1      -2.481 -10.619  -4.973  0.00  0.00    -0.019 C 
ATOM     30  C   UNL     1      -1.214 -10.184  -5.713  0.00  0.00    -0.078 C 
ATOM     31  H   UNL     1      -2.140  -8.604  -6.610  0.00  0.00    -0.081 HD
ENDBRANCH  19  25
ENDBRANCH  18  19
ENDBRANCH   3  18
TORSDOF 6
