REMARK  Name = ZINC33595002
REMARK  8 active torsions:
REMARK  status: ('A' for Active; 'I' for Inactive)
REMARK    1  A    between atoms: C_3  and  C_12
REMARK    2  A    between atoms: C_5  and  O_7
REMARK    3  A    between atoms: O_7  and  C_8
REMARK    4  A    between atoms: N_20  and  C_23
REMARK    5  A    between atoms: C_27  and  C_29
REMARK    6  A    between atoms: N_33  and  C_34
REMARK    7  A    between atoms: C_34  and  C_35
REMARK    8  A    between atoms: C_35  and  C_36
REMARK                            x       y       z     vdW  Elec       q    Type
REMARK                         _______ _______ _______ _____ _____    ______ ____
ROOT
ATOM      1  C   UNL     1       3.671   2.190  -0.021  0.00  0.00    +0.129 C 
ATOM      2  C   UNL     1       3.960   2.760  -1.409  0.00  0.00    +0.139 C 
ATOM      3  C   UNL     1       4.960   3.884  -0.945  0.00  0.00    +0.242 C 
ATOM      4  C   UNL     1       5.651   4.192  -2.186  0.00  0.00    +0.258 C 
ATOM      5  O   UNL     1       6.088   5.267  -2.537  0.00  0.00    -0.272 OA
ATOM      6  N   UNL     1       5.703   3.008  -2.873  0.00  0.00    -0.208 N 
ATOM      7  C   UNL     1       4.875   2.038  -2.347  0.00  0.00    +0.234 C 
ATOM      8  O   UNL     1       4.885   0.850  -2.583  0.00  0.00    -0.274 OA
ATOM      9  O   UNL     1       4.312   4.518   0.074  0.00  0.00    -0.283 OA
ATOM     10  N   UNL     1       3.553   3.443   0.797  0.00  0.00    -0.178 NA
ENDROOT
BRANCH   1  13
ATOM     11  C   UNL     1      -0.017   1.377   0.010  0.00  0.00    +0.004 A 
ATOM     12  C   UNL     1       1.171   2.086   0.002  0.00  0.00    +0.005 A 
ATOM     13  C   UNL     1       2.379   1.415  -0.013  0.00  0.00    -0.024 A 
ATOM     14  C   UNL     1       2.403   0.033  -0.021  0.00  0.00    +0.051 A 
ATOM     15  C   UNL     1       1.214  -0.680  -0.013  0.00  0.00    +0.130 A 
ATOM     16  C   UNL     1       0.002  -0.004   0.002  0.00  0.00    +0.046 A 
BRANCH  15  17
ATOM     17  O   UNL     1       1.235  -2.039  -0.021  0.00  0.00    -0.406 OA
BRANCH  17  18
ATOM     18  C   UNL     1      -0.028  -2.708  -0.013  0.00  0.00    +0.575 C 
ATOM     19  F   UNL     1      -0.760  -2.336  -1.146  0.00  0.00    -0.133 F 
ATOM     20  F   UNL     1       0.176  -4.091  -0.023  0.00  0.00    -0.133 F 
ATOM     21  F   UNL     1      -0.738  -2.349   1.138  0.00  0.00    -0.133 F 
ENDBRANCH  17  18
ENDBRANCH  15  17
ENDBRANCH   1  13
BRANCH   6  22
ATOM     22  C   UNL     1       6.504   2.803  -4.005  0.00  0.00    +0.045 A 
ATOM     23  C   UNL     1       6.495   1.572  -4.649  0.00  0.00    +0.024 A 
ATOM     24  C   UNL     1       7.282   1.364  -5.766  0.00  0.00    +0.003 A 
ATOM     25  C   UNL     1       8.084   2.378  -6.250  0.00  0.00    +0.015 A 
ATOM     26  C   UNL     1       8.101   3.620  -5.610  0.00  0.00    +0.065 A 
ATOM     27  C   UNL     1       7.301   3.830  -4.485  0.00  0.00    +0.039 A 
BRANCH  26  28
ATOM     28  C   UNL     1       8.956   4.706  -6.124  0.00  0.00    +0.387 C 
ATOM     29  O   UNL     1       9.653   4.521  -7.112  0.00  0.00    -0.241 OA
ATOM     30  O   UNL     1       8.969   5.792  -5.561  0.00  0.00    -0.241 OA
ENDBRANCH  26  28
ENDBRANCH   6  22
BRANCH  10  31
ATOM     31  C   UNL     1       4.075   3.237   2.154  0.00  0.00    +0.124 C 
BRANCH  31  32
ATOM     32  C   UNL     1       3.715   4.440   3.028  0.00  0.00    +0.113 C 
BRANCH  32  33
ATOM     33  C   UNL     1       4.252   4.228   4.420  0.00  0.00    +0.212 C 
ATOM     34  O   UNL     1       4.862   3.215   4.688  0.00  0.00    -0.276 OA
ATOM     35  N   UNL     1       4.053   5.165   5.369  0.00  0.00    -0.329 N 
ATOM     36  H   UNL     1       3.565   5.976   5.155  0.00  0.00    +0.145 HD
ATOM     37  H   UNL     1       4.398   5.029   6.265  0.00  0.00    +0.145 HD
ENDBRANCH  32  33
ENDBRANCH  31  32
ENDBRANCH  10  31
TORSDOF 8
