REMARK  Name = ZINC39593055
REMARK  7 active torsions:
REMARK  status: ('A' for Active; 'I' for Inactive)
REMARK    1  A    between atoms: C_6  and  C_7
REMARK    2  A    between atoms: C_9  and  C_13
REMARK    3  A    between atoms: C_17  and  S_21
REMARK    4  A    between atoms: N_19  and  N_20
REMARK    5  A    between atoms: S_21  and  C_22
REMARK    6  A    between atoms: C_22  and  C_23
REMARK    7  A    between atoms: N_25  and  C_26
REMARK                            x       y       z     vdW  Elec       q    Type
REMARK                         _______ _______ _______ _____ _____    ______ ____
ROOT
ATOM      1  C   UNL     1      -3.317  -3.177   1.124  0.00  0.00    +0.244 C 
ATOM      2  N   UNL     1      -3.070  -2.447   2.375  0.00  0.00    -0.167 NA
ATOM      3  N   UNL     1      -4.121  -2.013   2.855  0.00  0.00    -0.159 NA
ATOM      4  C   UNL     1      -5.274  -2.369   2.018  0.00  0.00    +0.272 C 
ATOM      5  N   UNL     1      -4.776  -3.452   1.127  0.00  0.00    -0.183 NA
ENDROOT
BRANCH   1   8
ATOM      6  C   UNL     1      -1.299  -0.762  -0.024  0.00  0.00    +0.091 C 
ATOM      7  C   UNL     1      -1.438  -2.097  -0.136  0.00  0.00    +0.035 C 
ATOM      8  C   UNL     1      -2.940  -2.312  -0.080  0.00  0.00    +0.195 C 
ATOM      9  N   UNL     1      -3.470  -0.947   0.069  0.00  0.00    -0.176 NA
ATOM     10  N   UNL     1      -2.515  -0.167   0.097  0.00  0.00    -0.154 NA
BRANCH   6  16
ATOM     11  C   UNL     1       0.029   1.345   0.105  0.00  0.00    +0.011 A 
ATOM     12  C   UNL     1       1.238   2.009   0.104  0.00  0.00    +0.020 A 
ATOM     13  C   UNL     1       2.420   1.299  -0.024  0.00  0.00    +0.041 A 
ATOM     14  C   UNL     1       2.395  -0.079  -0.153  0.00  0.00    +0.020 A 
ATOM     15  C   UNL     1       1.191  -0.752  -0.153  0.00  0.00    +0.011 A 
ATOM     16  C   UNL     1      -0.002  -0.043  -0.024  0.00  0.00    +0.002 A 
ATOM     17 CL   UNL     1       3.939   2.141  -0.024  0.00  0.00    -0.084 Cl
ENDBRANCH   6  16
ENDBRANCH   1   8
BRANCH   5  18
ATOM     18  N   UNL     1      -5.058  -4.762   1.690  0.00  0.00    -0.263 NA
ATOM     19  H   UNL     1      -6.039  -4.987   1.609  0.00  0.00    +0.137 HD
ATOM     20  H   UNL     1      -4.488  -5.473   1.256  0.00  0.00    +0.137 HD
ENDBRANCH   5  18
BRANCH   4  21
ATOM     21  S   UNL     1      -6.640  -2.974   3.047  0.00  0.00    -0.107 S 
BRANCH  21  22
ATOM     22  C   UNL     1      -7.306  -1.473   3.817  0.00  0.00    +0.168 C 
BRANCH  22  23
ATOM     23  C   UNL     1      -8.382  -1.849   4.803  0.00  0.00    +0.227 C 
ATOM     24  O   UNL     1      -8.670  -3.016   4.970  0.00  0.00    -0.275 OA
ATOM     25  N   UNL     1      -9.023  -0.890   5.500  0.00  0.00    -0.285 N 
ATOM     26  H   UNL     1      -8.747   0.036   5.418  0.00  0.00    +0.155 HD
BRANCH  25  27
ATOM     27  C   UNL     1     -10.088  -1.230   6.342  0.00  0.00    +0.033 A 
ATOM     28  C   UNL     1     -11.173  -0.374   6.472  0.00  0.00    +0.024 A 
ATOM     29  C   UNL     1     -12.223  -0.712   7.303  0.00  0.00    +0.017 A 
ATOM     30  C   UNL     1     -12.194  -1.904   8.007  0.00  0.00    +0.018 A 
ATOM     31  C   UNL     1     -11.114  -2.759   7.879  0.00  0.00    +0.017 A 
ATOM     32  C   UNL     1     -10.064  -2.428   7.045  0.00  0.00    +0.024 A 
ATOM     33 BR   UNL     1     -13.633  -2.363   9.144  0.00  0.00    -0.050 Br
ENDBRANCH  25  27
ENDBRANCH  22  23
ENDBRANCH  21  22
ENDBRANCH   4  21
TORSDOF 7
