REMARK  Name = ZINC63270113
REMARK  9 active torsions:
REMARK  status: ('A' for Active; 'I' for Inactive)
REMARK    1  A    between atoms: C_1  and  C_2
REMARK    2  A    between atoms: C_5  and  C_8
REMARK    3  A    between atoms: C_9  and  C_10
REMARK    4  A    between atoms: C_9  and  N_24
REMARK    5  A    between atoms: N_12  and  C_13
REMARK    6  A    between atoms: C_13  and  C_14
REMARK    7  A    between atoms: C_14  and  C_15
REMARK    8  A    between atoms: C_25  and  C_27
REMARK    9  A    between atoms: C_31  and  C_33
REMARK                            x       y       z     vdW  Elec       q    Type
REMARK                         _______ _______ _______ _____ _____    ______ ____
ROOT
ATOM      1  C   UNL     1      -0.379  -4.367   0.051  0.00  0.00    +0.036 C 
ATOM      2  C   UNL     1       0.187  -4.933   1.141  0.00  0.00    +0.097 C 
ENDROOT
BRANCH   1   7
ATOM      3  C   UNL     1      -3.089   0.681   0.512  0.00  0.00    +0.044 C 
ATOM      4  C   UNL     1      -2.379  -0.642   0.391  0.00  0.00    -0.050 A 
ATOM      5  C   UNL     1      -2.410  -1.539   1.445  0.00  0.00    +0.004 A 
ATOM      6  C   UNL     1      -1.763  -2.752   1.342  0.00  0.00    +0.008 A 
ATOM      7  C   UNL     1      -1.073  -3.075   0.169  0.00  0.00    -0.023 A 
ATOM      8  C   UNL     1      -1.046  -2.164  -0.892  0.00  0.00    +0.008 A 
ATOM      9  C   UNL     1      -1.703  -0.957  -0.775  0.00  0.00    +0.004 A 
ENDBRANCH   1   7
BRANCH   2  10
ATOM     10  C   UNL     1       0.239  -4.192   2.410  0.00  0.00    +0.258 C 
ATOM     11  O   UNL     1      -0.503  -4.498   3.325  0.00  0.00    -0.269 OA
ATOM     12  N   UNL     1       1.110  -3.175   2.561  0.00  0.00    -0.310 N 
ATOM     13  H   UNL     1       1.651  -2.884   1.810  0.00  0.00    +0.149 HD
BRANCH  12  14
ATOM     14  C   UNL     1       1.239  -2.507   3.858  0.00  0.00    +0.109 C 
BRANCH  14  15
ATOM     15  C   UNL     1       2.287  -1.396   3.758  0.00  0.00    +0.052 C 
BRANCH  15  16
ATOM     16  C   UNL     1       2.420  -0.709   5.093  0.00  0.00    -0.040 C 
ATOM     17  C   UNL     1       3.329  -0.977   6.058  0.00  0.00    -0.001 A 
ATOM     18  C   UNL     1       4.423  -1.951   6.151  0.00  0.00    +0.010 A 
ATOM     19  C   UNL     1       5.181  -1.982   7.271  0.00  0.00    +0.001 A 
ATOM     20  C   UNL     1       4.947  -1.110   8.343  0.00  0.00    +0.002 A 
ATOM     21  C   UNL     1       3.961  -0.188   8.332  0.00  0.00    +0.026 A 
ATOM     22  C   UNL     1       3.103  -0.067   7.204  0.00  0.00    +0.043 A 
ATOM     23  N   UNL     1       2.094   0.732   6.957  0.00  0.00    -0.380 N 
ATOM     24  C   UNL     1       1.568   0.423   5.622  0.00  0.00    +0.144 C 
ATOM     25  H   UNL     1       1.753   1.416   7.554  0.00  0.00    +0.160 HD
ENDBRANCH  15  16
ENDBRANCH  14  15
ENDBRANCH  12  14
ENDBRANCH   2  10
BRANCH   2  26
ATOM     26  N   UNL     1       0.721  -6.222   1.062  0.00  0.00    -0.277 N 
ATOM     27  C   UNL     1       1.324  -6.769   2.136  0.00  0.00    +0.248 C 
ATOM     28  O   UNL     1       1.320  -6.181   3.201  0.00  0.00    -0.270 OA
ATOM     29  H   UNL     1       0.659  -6.723   0.234  0.00  0.00    +0.155 HD
BRANCH  27  30
ATOM     30  C   UNL     1       1.989  -8.084   2.021  0.00  0.00    +0.037 A 
ATOM     31  C   UNL     1       2.000  -8.759   0.799  0.00  0.00    +0.013 A 
ATOM     32  C   UNL     1       2.623  -9.986   0.698  0.00  0.00    +0.001 A 
ATOM     33  C   UNL     1       3.235 -10.548   1.805  0.00  0.00    +0.003 A 
ATOM     34  C   UNL     1       3.227  -9.884   3.019  0.00  0.00    -0.050 A 
ATOM     35  C   UNL     1       2.614  -8.653   3.132  0.00  0.00    +0.016 A 
ATOM     36  C   UNL     1       3.896 -10.504   4.219  0.00  0.00    +0.044 C 
ENDBRANCH  27  30
ENDBRANCH   2  26
TORSDOF 7
