REMARK  Name = ZINC60334473
REMARK  5 active torsions:
REMARK  status: ('A' for Active; 'I' for Inactive)
REMARK    1  A    between atoms: C_1  and  N_2
REMARK    2  A    between atoms: C_4  and  C_7
REMARK    3  A    between atoms: C_10  and  C_12
REMARK    4  A    between atoms: N_14  and  C_15
REMARK    5  A    between atoms: C_22  and  C_25
REMARK                            x       y       z     vdW  Elec       q    Type
REMARK                         _______ _______ _______ _____ _____    ______ ____
ROOT
ATOM      1  C   UNL     1      -3.132  -6.428  -3.775  0.00  0.00    +0.036 A 
ATOM      2  C   UNL     1      -2.276  -6.721  -4.835  0.00  0.00    +0.025 A 
ATOM      3  C   UNL     1      -2.768  -7.280  -5.995  0.00  0.00    +0.029 A 
ATOM      4  C   UNL     1      -4.123  -7.554  -6.111  0.00  0.00    +0.067 A 
ATOM      5  C   UNL     1      -4.994  -7.262  -5.047  0.00  0.00    +0.091 A 
ATOM      6  C   UNL     1      -4.483  -6.700  -3.873  0.00  0.00    +0.053 A 
ATOM      7  N   UNL     1      -6.240  -7.629  -5.435  0.00  0.00    -0.227 NA
ATOM      8  C   UNL     1      -6.197  -8.122  -6.652  0.00  0.00    +0.146 A 
ATOM      9  N   UNL     1      -4.907  -8.097  -7.115  0.00  0.00    -0.337 N 
ATOM     10  H   UNL     1      -4.600  -8.402  -7.983  0.00  0.00    +0.167 HD
ENDROOT
BRANCH   8  11
ATOM     11  C   UNL     1      -7.356  -8.624  -7.404  0.00  0.00    +0.054 A 
ATOM     12  C   UNL     1      -8.684  -8.682  -7.022  0.00  0.00    +0.019 A 
ATOM     13  C   UNL     1      -9.598  -9.200  -7.909  0.00  0.00    +0.008 A 
ATOM     14  C   UNL     1      -9.172  -9.636  -9.124  0.00  0.00    +0.046 A 
ATOM     15  S   UNL     1      -7.418  -9.311  -9.051  0.00  0.00    -0.094 S 
ENDBRANCH   8  11
BRANCH   1  18
ATOM     16  C   UNL     1      -1.601  -4.979  -2.669  0.00  0.00    +0.221 C 
ATOM     17  O   UNL     1      -1.074  -4.741  -3.735  0.00  0.00    -0.275 OA
ATOM     18  N   UNL     1      -2.618  -5.861  -2.602  0.00  0.00    -0.285 N 
ATOM     19  H   UNL     1      -2.995  -6.102  -1.741  0.00  0.00    +0.155 HD
BRANCH  16  22
ATOM     20  C   UNL     1       0.041  -3.301  -1.560  0.00  0.00    +0.035 C 
ATOM     21  C   UNL     1       0.274  -4.662  -0.900  0.00  0.00    +0.022 C 
ATOM     22  C   UNL     1      -1.117  -4.290  -1.419  0.00  0.00    +0.083 C 
BRANCH  20  26
ATOM     23  C   UNL     1      -0.013   1.449   0.039  0.00  0.00    +0.172 C 
ATOM     24  N   UNL     1       0.009  -0.016   0.022  0.00  0.00    -0.274 N 
ATOM     25  C   UNL     1       0.010  -0.798  -1.078  0.00  0.00    +0.112 A 
ATOM     26  C   UNL     1       0.033  -2.087  -0.668  0.00  0.00    -0.006 A 
ATOM     27  C   UNL     1       0.046  -2.094   0.731  0.00  0.00    +0.138 A 
ATOM     28  N   UNL     1       0.038  -0.853   1.145  0.00  0.00    -0.180 NA
ENDBRANCH  20  26
ENDBRANCH  16  22
ENDBRANCH   1  18
TORSDOF 4
