REMARK  Name = ZINC39480350
REMARK  2 active torsions:
REMARK  status: ('A' for Active; 'I' for Inactive)
REMARK    1  A    between atoms: C_1  and  N_2
REMARK    2  A    between atoms: C_8  and  O_9
REMARK                            x       y       z     vdW  Elec       q    Type
REMARK                         _______ _______ _______ _____ _____    ______ ____
ROOT
ATOM      1  C   UNL     1      -0.018   1.461   0.010  0.00  0.00    +0.137 C 
ATOM      2  N   UNL     1       0.002  -0.004   0.002  0.00  0.00    -0.283 N 
ATOM      3  C   UNL     1      -1.245  -0.586   0.005  0.00  0.00    +0.080 A 
ATOM      4  C   UNL     1      -2.255   0.123   0.624  0.00  0.00    -0.015 A 
ATOM      5  C   UNL     1      -3.565   0.031   0.329  0.00  0.00    +0.020 A 
ATOM      6  C   UNL     1      -3.941  -1.081  -0.435  0.00  0.00    +0.017 A 
ATOM      7  C   UNL     1      -2.975  -1.989  -0.838  0.00  0.00    +0.061 A 
ATOM      8  C   UNL     1      -1.620  -1.762  -0.632  0.00  0.00    +0.139 A 
ATOM      9  I   UNL     1      -5.947  -1.370  -0.964  0.00  0.00    -0.044 I 
ATOM     10  C   UNL     1      -1.766   0.589   2.033  0.00  0.00    +0.100 C 
ATOM     11  C   UNL     1      -0.373  -0.032   1.996  0.00  0.00    +0.089 C 
ATOM     12  N   UNL     1       0.753   0.584   1.906  0.00  0.00    -0.238 NA
ATOM     13  C   UNL     1       1.751  -0.137   1.324  0.00  0.00    +0.142 A 
ATOM     14  C   UNL     1       1.256  -0.548  -0.013  0.00  0.00    +0.156 A 
ATOM     15  N   UNL     1       2.017  -1.234  -0.775  0.00  0.00    -0.218 NA
ATOM     16  C   UNL     1       3.238  -1.582  -0.380  0.00  0.00    +0.225 A 
ATOM     17  N   UNL     1       3.721  -1.243   0.800  0.00  0.00    -0.222 NA
ATOM     18  C   UNL     1       2.998  -0.523   1.680  0.00  0.00    +0.160 A 
ATOM     19 CL   UNL     1       3.650  -0.090   3.230  0.00  0.00    -0.060 Cl
ATOM     20 BR   UNL     1      -0.293  -1.919   2.093  0.00  0.00    -0.033 Br
ENDROOT
BRANCH   8  21
ATOM     21  O   UNL     1      -0.688  -2.663  -1.044  0.00  0.00    -0.505 OA
ATOM     22  H   UNL     1      -0.468  -3.332  -0.381  0.00  0.00    +0.292 HD
ENDBRANCH   8  21
TORSDOF 1
