REMARK  Name = ZINC14868705
REMARK  7 active torsions:
REMARK  status: ('A' for Active; 'I' for Inactive)
REMARK    1  A    between atoms: C_1  and  C_2
REMARK    2  A    between atoms: C_5  and  C_7
REMARK    3  A    between atoms: N_9  and  C_10
REMARK    4  A    between atoms: C_12  and  S_22
REMARK    5  A    between atoms: C_15  and  N_16
REMARK    6  A    between atoms: C_21  and  N_61
REMARK    7  A    between atoms: S_22  and  N_25
REMARK                            x       y       z     vdW  Elec       q    Type
REMARK                         _______ _______ _______ _____ _____    ______ ____
ROOT
ATOM      1  C   UNL     1       5.300  -0.665  -2.042  0.00  0.00    +0.057 A 
ATOM      2  C   UNL     1       4.853  -0.355  -0.767  0.00  0.00    +0.053 A 
ATOM      3  C   UNL     1       3.947  -1.183  -0.131  0.00  0.00    +0.107 A 
ATOM      4  C   UNL     1       3.489  -2.326  -0.760  0.00  0.00    +0.030 A 
ATOM      5  C   UNL     1       3.924  -2.640  -2.034  0.00  0.00    +0.027 A 
ATOM      6  C   UNL     1       4.833  -1.815  -2.680  0.00  0.00    +0.051 A 
ENDROOT
BRANCH   6   7
ATOM      7  N   UNL     1       5.279  -2.134  -3.967  0.00  0.00    -0.332 N 
ATOM      8  C   UNL     1       4.171  -2.105  -4.931  0.00  0.00    +0.086 C 
ATOM      9  C   UNL     1       4.713  -2.380  -6.336  0.00  0.00    -0.060 C 
ATOM     10  C   UNL     1       6.495  -3.715  -5.387  0.00  0.00    -0.060 C 
ATOM     11  C   UNL     1       5.953  -3.440  -3.982  0.00  0.00    +0.086 C 
ATOM     12  C   UNL     1       5.855  -4.021  -7.702  0.00  0.00    -0.096 C 
ATOM     13  N   UNL     1       5.368  -3.705  -6.342  0.00  0.00    +0.380 N 
ATOM     14  H   UNL     1       4.684  -4.417  -6.059  0.00  0.00    -0.082 HD
ENDBRANCH   6   7
BRANCH   1  17
ATOM     15  C   UNL     1       7.037   0.961  -1.964  0.00  0.00    +0.255 C 
ATOM     16  O   UNL     1       7.051   0.872  -0.751  0.00  0.00    -0.269 OA
ATOM     17  N   UNL     1       6.218   0.173  -2.689  0.00  0.00    -0.279 N 
ATOM     18  H   UNL     1       6.263   0.186  -3.658  0.00  0.00    +0.155 HD
BRANCH  15  23
ATOM     19  C   UNL     1       9.936   4.262  -5.421  0.00  0.00    +0.051 C 
ATOM     20  C   UNL     1       9.292   3.498  -4.292  0.00  0.00    -0.013 A 
ATOM     21  C   UNL     1       9.515   3.617  -2.957  0.00  0.00    +0.011 A 
ATOM     22  C   UNL     1       8.816   2.818  -2.087  0.00  0.00    +0.021 A 
ATOM     23  C   UNL     1       7.910   1.926  -2.639  0.00  0.00    +0.074 A 
ATOM     24  S   UNL     1       8.091   2.251  -4.383  0.00  0.00    -0.089 S 
ENDBRANCH  15  23
ENDBRANCH   1  17
BRANCH   3  25
ATOM     25  S   UNL     1       3.381  -0.786   1.490  0.00  0.00    +0.061 S 
ATOM     26  O   UNL     1       4.378   0.039   2.077  0.00  0.00    -0.153 OA
ATOM     27  O   UNL     1       2.956  -2.006   2.082  0.00  0.00    -0.153 OA
BRANCH  25  28
ATOM     28  N   UNL     1       2.029   0.154   1.319  0.00  0.00    -0.177 NA
ATOM     29  C   UNL     1       0.696  -0.458   1.244  0.00  0.00    +0.109 C 
ATOM     30  C   UNL     1      -0.008   0.046  -0.019  0.00  0.00    +0.017 C 
ATOM     31  C   UNL     1      -0.019   1.576  -0.016  0.00  0.00    +0.003 C 
ATOM     32  C   UNL     1       1.419   2.098  -0.024  0.00  0.00    +0.017 C 
ATOM     33  C   UNL     1       2.139   1.617   1.240  0.00  0.00    +0.109 C 
ENDBRANCH  25  28
ENDBRANCH   3  25
TORSDOF 5
