REMARK  Name = ZINC12477066
REMARK  14 active torsions:
REMARK  status: ('A' for Active; 'I' for Inactive)
REMARK    1  A    between atoms: C_1  and  C_2
REMARK    2  A    between atoms: C_5  and  C_8
REMARK    3  A    between atoms: C_8  and  C_10
REMARK    4  A    between atoms: C_8  and  N_17
REMARK    5  A    between atoms: N_12  and  C_13
REMARK    6  A    between atoms: C_13  and  C_14
REMARK    7  A    between atoms: C_13  and  C_15
REMARK    8  A    between atoms: C_13  and  C_16
REMARK    9  A    between atoms: N_17  and  C_18
REMARK   10  A    between atoms: C_22  and  C_25
REMARK   11  A    between atoms: C_23  and  C_24
REMARK   12  A    between atoms: C_26  and  C_28
REMARK   13  A    between atoms: C_29  and  N_36
REMARK   14  A    between atoms: C_30  and  C_33
REMARK                            x       y       z     vdW  Elec       q    Type
REMARK                         _______ _______ _______ _____ _____    ______ ____
ROOT
ATOM      1  N   UNL     1       2.271   1.386   2.032  0.00  0.00    -0.251 N 
ATOM      2  C   UNL     1       2.689   2.377   2.844  0.00  0.00    +0.262 C 
ATOM      3  O   UNL     1       2.828   2.170   4.036  0.00  0.00    -0.269 OA
ENDROOT
BRANCH   1   4
ATOM      4  C   UNL     1       2.112   1.624   0.663  0.00  0.00    +0.041 A 
ATOM      5  C   UNL     1       0.919   2.147   0.182  0.00  0.00    +0.024 A 
ATOM      6  C   UNL     1       0.765   2.382  -1.170  0.00  0.00    +0.002 A 
ATOM      7  C   UNL     1       1.797   2.096  -2.045  0.00  0.00    +0.004 A 
ATOM      8  C   UNL     1       2.988   1.580  -1.569  0.00  0.00    -0.046 A 
ATOM      9  C   UNL     1       3.147   1.338  -0.218  0.00  0.00    -0.026 A 
ATOM     10  C   UNL     1       4.443   0.771   0.300  0.00  0.00    +0.046 C 
ATOM     11  C   UNL     1       4.113   1.276  -2.525  0.00  0.00    +0.044 C 
ENDBRANCH   1   4
BRANCH   2  12
ATOM     12  C   UNL     1       2.976   3.703   2.294  0.00  0.00    +0.116 A 
ATOM     13  C   UNL     1       3.408   4.858   2.948  0.00  0.00    +0.076 A 
ATOM     14  C   UNL     1       3.576   5.934   2.076  0.00  0.00    +0.155 A 
ATOM     15  N   UNL     1       3.317   5.773   0.797  0.00  0.00    -0.203 NA
ATOM     16  S   UNL     1       2.860   4.276   0.612  0.00  0.00    +0.019 S 
BRANCH  14  17
ATOM     17  C   UNL     1       4.033   7.241   2.584  0.00  0.00    +0.262 C 
ATOM     18  O   UNL     1       4.270   7.383   3.768  0.00  0.00    -0.269 OA
ATOM     19  N   UNL     1       4.188   8.277   1.736  0.00  0.00    -0.324 N 
ATOM     20  H   UNL     1       3.998   8.163   0.792  0.00  0.00    +0.145 HD
ATOM     21  H   UNL     1       4.488   9.137   2.071  0.00  0.00    +0.145 HD
ENDBRANCH  14  17
BRANCH  13  22
ATOM     22  N   UNL     1       3.648   4.928   4.313  0.00  0.00    -0.355 N 
ATOM     23  H   UNL     1       3.516   4.144   4.869  0.00  0.00    +0.142 HD
ATOM     24  H   UNL     1       3.948   5.760   4.712  0.00  0.00    +0.142 HD
ENDBRANCH  13  22
ENDBRANCH   2  12
BRANCH   1  25
ATOM     25  C   UNL     1       1.984   0.059   2.583  0.00  0.00    +0.197 C 
BRANCH  25  30
ATOM     26  C   UNL     1      -2.445   0.427   6.277  0.00  0.00    +0.044 C 
ATOM     27  C   UNL     1      -1.290   0.331   5.313  0.00  0.00    -0.050 A 
ATOM     28  C   UNL     1      -0.157  -0.380   5.662  0.00  0.00    +0.004 A 
ATOM     29  C   UNL     1       0.903  -0.468   4.778  0.00  0.00    +0.006 A 
ATOM     30  C   UNL     1       0.829   0.155   3.546  0.00  0.00    -0.018 A 
ATOM     31  C   UNL     1      -0.302   0.870   3.200  0.00  0.00    +0.006 A 
ATOM     32  C   UNL     1      -1.364   0.953   4.082  0.00  0.00    +0.004 A 
ENDBRANCH  25  30
BRANCH  25  33
ATOM     33  C   UNL     1       1.627  -0.883   1.463  0.00  0.00    +0.239 C 
ATOM     34  O   UNL     1       0.870  -0.524   0.586  0.00  0.00    -0.273 OA
ATOM     35  N   UNL     1       2.150  -2.125   1.435  0.00  0.00    -0.309 N 
ATOM     36  H   UNL     1       2.756  -2.412   2.136  0.00  0.00    +0.149 HD
BRANCH  35  37
ATOM     37  C   UNL     1       1.804  -3.042   0.346  0.00  0.00    +0.026 C 
ATOM     38  C   UNL     1       2.231  -2.431  -0.990  0.00  0.00    +0.031 C 
ATOM     39  C   UNL     1       2.526  -4.375   0.552  0.00  0.00    +0.031 C 
ATOM     40  C   UNL     1       0.292  -3.277   0.339  0.00  0.00    +0.031 C 
ENDBRANCH  35  37
ENDBRANCH  25  33
ENDBRANCH   1  25
TORSDOF 8
