REMARK  Name = ZINC01412763
REMARK  8 active torsions:
REMARK  status: ('A' for Active; 'I' for Inactive)
REMARK    1  A    between atoms: C_1  and  C_2
REMARK    2  A    between atoms: C_4  and  C_34
REMARK    3  A    between atoms: C_5  and  N_9
REMARK    4  A    between atoms: C_6  and  C_8
REMARK    5  A    between atoms: C_10  and  C_12
REMARK    6  A    between atoms: C_12  and  N_19
REMARK    7  A    between atoms: N_15  and  C_18
REMARK    8  A    between atoms: C_20  and  C_25
REMARK                            x       y       z     vdW  Elec       q    Type
REMARK                         _______ _______ _______ _____ _____    ______ ____
ROOT
ATOM      1  C   UNL     1      -0.546  -6.550   0.848  0.00  0.00    +0.111 C 
ATOM      2  C   UNL     1       0.799  -7.230   0.577  0.00  0.00    +0.017 C 
ATOM      3  C   UNL     1       0.597  -8.746   0.529  0.00  0.00    -0.077 C 
ATOM      4  N   UNL     1       0.061  -9.213   1.813  0.00  0.00    +0.378 N 
ATOM      5  C   UNL     1      -1.262  -8.620   2.046  0.00  0.00    -0.077 C 
ATOM      6  C   UNL     1      -1.131  -7.099   2.153  0.00  0.00    +0.017 C 
ATOM      7  C   UNL     1      -0.058 -10.677   1.790  0.00  0.00    -0.096 C 
ATOM      8  H   UNL     1       0.686  -8.940   2.557  0.00  0.00    -0.082 HD
ENDROOT
BRANCH   1   9
ATOM      9  N   UNL     1      -1.468  -6.826  -0.257  0.00  0.00    -0.280 N 
ATOM     10  C   UNL     1      -2.826  -7.351  -0.314  0.00  0.00    +0.116 C 
ATOM     11  C   UNL     1      -2.758  -7.210  -1.830  0.00  0.00    +0.123 C 
ATOM     12  C   UNL     1      -1.375  -6.683  -1.584  0.00  0.00    +0.219 C 
ATOM     13  O   UNL     1      -0.498  -6.277  -2.317  0.00  0.00    -0.275 OA
BRANCH  10  14
ATOM     14  C   UNL     1      -3.847  -6.447   0.329  0.00  0.00    -0.023 A 
ATOM     15  C   UNL     1      -3.826  -5.090   0.070  0.00  0.00    +0.009 A 
ATOM     16  C   UNL     1      -4.761  -4.257   0.657  0.00  0.00    +0.050 A 
ATOM     17  C   UNL     1      -5.721  -4.782   1.507  0.00  0.00    +0.166 A 
ATOM     18  C   UNL     1      -5.742  -6.150   1.767  0.00  0.00    +0.167 A 
ATOM     19  C   UNL     1      -4.806  -6.979   1.171  0.00  0.00    +0.055 A 
ATOM     20  O   UNL     1      -6.770  -6.416   2.624  0.00  0.00    -0.453 OA
ATOM     21  C   UNL     1      -7.123  -5.147   3.206  0.00  0.00    +0.466 C 
ATOM     22  O   UNL     1      -6.736  -4.191   2.201  0.00  0.00    -0.453 OA
ENDBRANCH  10  14
ENDBRANCH   1   9
BRANCH   1  24
ATOM     23  N   UNL     1      -0.199  -4.305  -0.132  0.00  0.00    -0.283 N 
ATOM     24  C   UNL     1      -0.342  -5.062   0.974  0.00  0.00    +0.241 C 
ATOM     25  O   UNL     1      -0.307  -4.546   2.071  0.00  0.00    -0.273 OA
ATOM     26  H   UNL     1      -0.150  -4.726  -1.004  0.00  0.00    +0.155 HD
BRANCH  23  31
ATOM     27  C   UNL     1       0.118   1.341   0.315  0.00  0.00    +0.044 C 
ATOM     28  C   UNL     1       0.034  -0.159   0.196  0.00  0.00    -0.050 A 
ATOM     29  C   UNL     1       0.930  -0.956   0.884  0.00  0.00    +0.008 A 
ATOM     30  C   UNL     1       0.855  -2.331   0.777  0.00  0.00    -0.029 A 
ATOM     31  C   UNL     1      -0.121  -2.912  -0.021  0.00  0.00    +0.039 A 
ATOM     32  C   UNL     1      -1.020  -2.108  -0.710  0.00  0.00    -0.029 A 
ATOM     33  C   UNL     1      -0.943  -0.734  -0.595  0.00  0.00    +0.008 A 
ATOM     34  C   UNL     1      -2.081  -2.735  -1.578  0.00  0.00    +0.045 C 
ATOM     35  C   UNL     1       1.833  -3.200   1.526  0.00  0.00    +0.045 C 
ENDBRANCH  23  31
ENDBRANCH   1  24
TORSDOF 4
