REMARK  Name = ZINC46027670
REMARK  8 active torsions:
REMARK  status: ('A' for Active; 'I' for Inactive)
REMARK    1  A    between atoms: C_1  and  C_2
REMARK    2  A    between atoms: C_2  and  C_3
REMARK    3  A    between atoms: C_6  and  C_22
REMARK    4  A    between atoms: C_8  and  S_9
REMARK    5  A    between atoms: S_9  and  N_12
REMARK    6  A    between atoms: N_12  and  C_13
REMARK    7  A    between atoms: C_16  and  C_19
REMARK    8  A    between atoms: N_27  and  C_29
REMARK                            x       y       z     vdW  Elec       q    Type
REMARK                         _______ _______ _______ _____ _____    ______ ____
ROOT
ATOM      1  C   UNL     1      -1.788  -0.824   0.010  0.00  0.00    -0.021 A 
ATOM      2  C   UNL     1      -2.792  -0.886   0.959  0.00  0.00    +0.006 A 
ATOM      3  C   UNL     1      -3.951  -1.589   0.696  0.00  0.00    +0.010 A 
ATOM      4  C   UNL     1      -4.108  -2.236  -0.528  0.00  0.00    +0.004 A 
ATOM      5  C   UNL     1      -3.093  -2.169  -1.481  0.00  0.00    +0.039 A 
ATOM      6  C   UNL     1      -1.940  -1.460  -1.209  0.00  0.00    +0.112 A 
ENDROOT
BRANCH   4   7
ATOM      7  C   UNL     1      -5.351  -2.993  -0.816  0.00  0.00    +0.095 A 
ATOM      8  C   UNL     1      -6.609  -2.448  -0.452  0.00  0.00    -0.011 A 
ATOM      9  C   UNL     1      -7.722  -3.164  -0.736  0.00  0.00    +0.024 A 
ATOM     10  C   UNL     1      -7.561  -4.420  -1.370  0.00  0.00    +0.270 A 
ATOM     11  O   UNL     1      -8.537  -5.103  -1.638  0.00  0.00    -0.266 OA
ATOM     12  N   UNL     1      -6.326  -4.856  -1.676  0.00  0.00    -0.232 N 
ATOM     13  N   UNL     1      -5.281  -4.159  -1.411  0.00  0.00    -0.168 NA
ATOM     14  C   UNL     1      -6.169  -6.156  -2.333  0.00  0.00    +0.176 C 
ATOM     15  C   UNL     1      -9.110  -2.685  -0.415  0.00  0.00    +0.041 C 
ATOM     16  C   UNL     1      -9.062  -1.562   0.621  0.00  0.00    +0.005 C 
ATOM     17  C   UNL     1      -8.052  -0.509   0.149  0.00  0.00    +0.005 C 
ATOM     18  C   UNL     1      -6.650  -1.111   0.234  0.00  0.00    +0.038 C 
ENDBRANCH   4   7
BRANCH   6  19
ATOM     19  S   UNL     1      -0.658  -1.370  -2.414  0.00  0.00    +0.073 S 
ATOM     20  O   UNL     1      -1.072  -2.176  -3.509  0.00  0.00    -0.150 OA
ATOM     21  O   UNL     1      -0.335   0.006  -2.562  0.00  0.00    -0.150 OA
BRANCH  19  22
ATOM     22  N   UNL     1       0.677  -2.103  -1.765  0.00  0.00    -0.216 N 
ATOM     23  H   UNL     1       1.482  -1.587  -1.600  0.00  0.00    +0.174 HD
BRANCH  22  24
ATOM     24  C   UNL     1       0.645  -3.458  -1.456  0.00  0.00    +0.048 A 
ATOM     25  C   UNL     1      -0.449  -3.991  -0.779  0.00  0.00    +0.025 A 
ATOM     26  C   UNL     1      -0.484  -5.332  -0.472  0.00  0.00    +0.015 A 
ATOM     27  C   UNL     1       0.581  -6.159  -0.841  0.00  0.00    +0.037 A 
ATOM     28  C   UNL     1       1.678  -5.622  -1.520  0.00  0.00    +0.015 A 
ATOM     29  C   UNL     1       1.704  -4.281  -1.829  0.00  0.00    +0.025 A 
BRANCH  27  30
ATOM     30  C   UNL     1       0.547  -7.597  -0.513  0.00  0.00    +0.242 C 
ATOM     31  O   UNL     1      -0.407  -8.064   0.079  0.00  0.00    -0.270 OA
ATOM     32  N   UNL     1       1.575  -8.394  -0.868  0.00  0.00    -0.325 N 
ATOM     33  H   UNL     1       2.336  -8.022  -1.340  0.00  0.00    +0.145 HD
ATOM     34  H   UNL     1       1.552  -9.339  -0.653  0.00  0.00    +0.145 HD
ENDBRANCH  27  30
ENDBRANCH  22  24
ENDBRANCH  19  22
ENDBRANCH   6  19
BRANCH   1  36
ATOM     35  C   UNL     1      -0.741   1.424  -0.024  0.00  0.00    +0.009 C 
ATOM     36  C   UNL     1      -0.525  -0.055   0.302  0.00  0.00    +0.034 C 
ENDBRANCH   1  36
TORSDOF 6
