REMARK  Name = ZINC13249982
REMARK  10 active torsions:
REMARK  status: ('A' for Active; 'I' for Inactive)
REMARK    1  A    between atoms: C_1  and  C_2
REMARK    2  A    between atoms: C_2  and  C_3
REMARK    3  A    between atoms: C_3  and  C_4
REMARK    4  A    between atoms: C_4  and  N_5
REMARK    5  A    between atoms: N_5  and  C_6
REMARK    6  A    between atoms: C_9  and  C_25
REMARK    7  A    between atoms: C_11  and  N_12
REMARK    8  A    between atoms: N_12  and  S_13
REMARK    9  A    between atoms: S_13  and  C_16
REMARK   10  A    between atoms: C_18  and  C_23
REMARK                            x       y       z     vdW  Elec       q    Type
REMARK                         _______ _______ _______ _____ _____    ______ ____
ROOT
ATOM      1  C   UNL     1       0.106  -2.923  -2.825  0.00  0.00    +0.050 A 
ATOM      2  C   UNL     1       1.038  -3.936  -2.996  0.00  0.00    +0.025 A 
ATOM      3  C   UNL     1       1.323  -4.796  -1.952  0.00  0.00    +0.014 A 
ATOM      4  C   UNL     1       0.685  -4.647  -0.734  0.00  0.00    +0.057 A 
ATOM      5  C   UNL     1      -0.241  -3.637  -0.553  0.00  0.00    +0.038 A 
ATOM      6  C   UNL     1      -0.533  -2.769  -1.595  0.00  0.00    +0.069 A 
ENDROOT
BRANCH   4   7
ATOM      7  C   UNL     1       1.001  -5.589   0.399  0.00  0.00    +0.417 C 
ATOM      8  F   UNL     1       0.138  -6.689   0.345  0.00  0.00    -0.166 F 
ATOM      9  F   UNL     1       2.324  -6.029   0.285  0.00  0.00    -0.166 F 
ATOM     10  F   UNL     1       0.834  -4.924   1.618  0.00  0.00    -0.166 F 
ENDBRANCH   4   7
BRANCH   1  11
ATOM     11  N   UNL     1      -0.189  -2.054  -3.883  0.00  0.00    -0.342 N 
ATOM     12  H   UNL     1      -0.838  -1.344  -3.760  0.00  0.00    +0.146 HD
BRANCH  11  13
ATOM     13  C   UNL     1       0.483  -2.218  -5.174  0.00  0.00    +0.101 C 
BRANCH  13  14
ATOM     14  C   UNL     1      -0.015  -1.148  -6.148  0.00  0.00    +0.018 C 
BRANCH  14  16
ATOM     15  C   UNL     1       0.188  -0.249  -8.470  0.00  0.00    +0.004 C 
ATOM     16  C   UNL     1       0.687  -1.319  -7.496  0.00  0.00    -0.002 C 
ENDBRANCH  14  16
ENDBRANCH  13  14
ENDBRANCH  11  13
ENDBRANCH   1  11
BRANCH   6  17
ATOM     17  N   UNL     1      -1.471  -1.746  -1.414  0.00  0.00    -0.214 N 
ATOM     18  H   UNL     1      -2.051  -1.485  -2.146  0.00  0.00    +0.174 HD
BRANCH  17  19
ATOM     19  S   UNL     1      -1.589  -0.980   0.050  0.00  0.00    +0.073 S 
ATOM     20  O   UNL     1      -2.587   0.020  -0.094  0.00  0.00    -0.150 OA
ATOM     21  O   UNL     1      -0.262  -0.679   0.459  0.00  0.00    -0.150 OA
BRANCH  19  22
ATOM     22  C   UNL     1      -2.216  -2.155   1.203  0.00  0.00    +0.123 A 
ATOM     23  C   UNL     1      -1.444  -2.544   2.278  0.00  0.00    +0.045 A 
ATOM     24  C   UNL     1      -1.943  -3.476   3.191  0.00  0.00    +0.065 A 
ATOM     25  C   UNL     1      -3.222  -4.008   3.009  0.00  0.00    +0.016 A 
ATOM     26  C   UNL     1      -3.983  -3.611   1.931  0.00  0.00    +0.018 A 
ATOM     27  C   UNL     1      -3.483  -2.687   1.028  0.00  0.00    +0.044 A 
ATOM     28 BR   UNL     1      -4.534  -2.147  -0.448  0.00  0.00    -0.048 Br
BRANCH  24  29
ATOM     29  C   UNL     1      -1.122  -3.897   4.344  0.00  0.00    +0.387 C 
ATOM     30  O   UNL     1      -0.010  -3.433   4.499  0.00  0.00    -0.241 OA
ATOM     31  O   UNL     1      -1.606  -4.796   5.223  0.00  0.00    -0.241 OA
ENDBRANCH  24  29
ENDBRANCH  19  22
ENDBRANCH  17  19
ENDBRANCH   6  17
TORSDOF 9
