REMARK  Name = ZINC38965930
REMARK  5 active torsions:
REMARK  status: ('A' for Active; 'I' for Inactive)
REMARK    1  A    between atoms: C_1  and  C_2
REMARK    2  A    between atoms: C_4  and  C_8
REMARK    3  A    between atoms: N_14  and  N_15
REMARK    4  A    between atoms: C_16  and  C_17
REMARK    5  A    between atoms: C_22  and  O_23
REMARK                            x       y       z     vdW  Elec       q    Type
REMARK                         _______ _______ _______ _____ _____    ______ ____
ROOT
ATOM      1  C   UNL     1      -0.975  -2.966   1.026  0.00  0.00    +0.265 C 
ATOM      2  N   UNL     1      -2.433  -3.115   1.167  0.00  0.00    -0.169 NA
ATOM      3  N   UNL     1      -2.674  -4.306   1.378  0.00  0.00    -0.096 NA
ATOM      4  C   UNL     1      -1.583  -5.081   1.415  0.00  0.00    +0.198 C 
ATOM      5  S   UNL     1      -1.594  -6.771   1.687  0.00  0.00    -0.013 S 
ATOM      6  N   UNL     1      -0.468  -4.340   1.207  0.00  0.00    -0.173 N 
ENDROOT
BRANCH   1  10
ATOM      7  C   UNL     1      -0.144   1.197  -1.032  0.00  0.00    +0.067 C 
ATOM      8  C   UNL     1      -0.109  -0.287  -0.774  0.00  0.00    +0.058 C 
ATOM      9  C   UNL     1      -1.188  -1.048  -0.576  0.00  0.00    +0.030 C 
ATOM     10  C   UNL     1      -0.620  -2.440  -0.367  0.00  0.00    +0.198 C 
ATOM     11  N   UNL     1       0.832  -2.228  -0.492  0.00  0.00    -0.176 NA
ATOM     12  N   UNL     1       1.019  -1.030  -0.719  0.00  0.00    -0.159 NA
ENDBRANCH   1  10
BRANCH   6  13
ATOM     13  N   UNL     1       0.864  -4.776   1.172  0.00  0.00    -0.183 NA
ATOM     14  C   UNL     1       1.134  -6.044   1.241  0.00  0.00    +0.142 C 
BRANCH  14  15
ATOM     15  C   UNL     1       2.534  -6.497   1.311  0.00  0.00    +0.038 A 
ATOM     16  C   UNL     1       2.829  -7.861   1.379  0.00  0.00    +0.028 A 
ATOM     17  C   UNL     1       4.143  -8.278   1.444  0.00  0.00    +0.020 A 
ATOM     18  C   UNL     1       5.171  -7.349   1.442  0.00  0.00    +0.034 A 
ATOM     19  C   UNL     1       4.891  -5.997   1.375  0.00  0.00    +0.061 A 
ATOM     20  C   UNL     1       3.578  -5.561   1.304  0.00  0.00    +0.139 A 
ATOM     21 BR   UNL     1       6.304  -4.740   1.374  0.00  0.00    -0.046 Br
ATOM     22 BR   UNL     1       4.541 -10.124   1.537  0.00  0.00    -0.050 Br
BRANCH  20  23
ATOM     23  O   UNL     1       3.303  -4.233   1.232  0.00  0.00    -0.505 OA
ATOM     24  H   UNL     1       3.192  -3.807   2.093  0.00  0.00    +0.292 HD
ENDBRANCH  20  23
ENDBRANCH  14  15
ENDBRANCH   6  13
TORSDOF 4
