REMARK  Name = ZINC63883814
REMARK  8 active torsions:
REMARK  status: ('A' for Active; 'I' for Inactive)
REMARK    1  A    between atoms: C_1  and  C_2
REMARK    2  A    between atoms: C_4  and  C_17
REMARK    3  A    between atoms: N_8  and  C_9
REMARK    4  A    between atoms: C_17  and  C_19
REMARK    5  A    between atoms: C_17  and  N_20
REMARK    6  A    between atoms: N_20  and  C_21
REMARK    7  A    between atoms: C_21  and  C_22
REMARK    8  A    between atoms: C_27  and  C_28
REMARK                            x       y       z     vdW  Elec       q    Type
REMARK                         _______ _______ _______ _____ _____    ______ ____
ROOT
ATOM      1  C   UNL     1      -2.479   0.504  -0.166  0.00  0.00    -0.069 C 
ATOM      2  C   UNL     1      -2.378   0.867  -1.649  0.00  0.00    -0.013 C 
ENDROOT
BRANCH   1   5
ATOM      3  C   UNL     1      -0.114   1.704   0.144  0.00  0.00    +0.030 C 
ATOM      4  C   UNL     1       0.024   0.181   0.102  0.00  0.00    +0.091 C 
ATOM      5  C   UNL     1      -1.369  -0.486   0.193  0.00  0.00    +0.012 C 
ATOM      6  C   UNL     1      -1.423  -0.865   1.698  0.00  0.00    +0.106 C 
ATOM      7  N   UNL     1      -0.001  -1.193   1.980  0.00  0.00    -0.240 NA
ATOM      8  N   UNL     1       0.767  -0.296   1.279  0.00  0.00    -0.261 N 
ATOM      9  H   UNL     1       0.212  -2.140   1.707  0.00  0.00    +0.144 HD
BRANCH   8  10
ATOM     10  C   UNL     1       2.061   0.105   1.631  0.00  0.00    +0.080 A 
ATOM     11  C   UNL     1       2.351   1.453   1.793  0.00  0.00    +0.030 A 
ATOM     12  C   UNL     1       3.629   1.847   2.140  0.00  0.00    +0.040 A 
ATOM     13  C   UNL     1       4.621   0.899   2.326  0.00  0.00    +0.126 A 
ATOM     14  C   UNL     1       4.336  -0.446   2.165  0.00  0.00    +0.078 A 
ATOM     15  C   UNL     1       3.057  -0.846   1.824  0.00  0.00    +0.148 A 
ATOM     16  F   UNL     1       2.777  -2.159   1.672  0.00  0.00    -0.203 F 
ATOM     17  F   UNL     1       5.870   1.288   2.665  0.00  0.00    -0.205 F 
ENDBRANCH   8  10
ENDBRANCH   1   5
BRANCH   1  18
ATOM     18  N   UNL     1      -3.787  -0.108   0.101  0.00  0.00    +0.382 N 
ATOM     19  H   UNL     1      -3.922  -0.896  -0.516  0.00  0.00    -0.085 HD
ATOM     20  H   UNL     1      -3.822  -0.422   1.059  0.00  0.00    -0.085 HD
BRANCH  18  21
ATOM     21  C   UNL     1      -4.847   0.882  -0.130  0.00  0.00    -0.067 C 
BRANCH  21  22
ATOM     22  C   UNL     1      -6.210   0.244   0.148  0.00  0.00    +0.066 C 
ATOM     23  C   UNL     1      -6.532  -0.804  -0.899  0.00  0.00    +0.115 C 
ATOM     24  N   UNL     1      -7.608  -0.399  -1.493  0.00  0.00    -0.161 NA
ATOM     25  N   UNL     1      -8.074   0.809  -0.984  0.00  0.00    -0.153 NA
ATOM     26  C   UNL     1      -7.320   1.263  -0.017  0.00  0.00    +0.077 C 
BRANCH  26  27
ATOM     27  C   UNL     1      -7.508   2.504   0.752  0.00  0.00    +0.001 A 
ATOM     28  C   UNL     1      -6.600   2.851   1.758  0.00  0.00    +0.010 A 
ATOM     29  C   UNL     1      -6.780   4.015   2.474  0.00  0.00    +0.003 A 
ATOM     30  C   UNL     1      -7.857   4.840   2.201  0.00  0.00    +0.038 A 
ATOM     31  C   UNL     1      -8.762   4.504   1.207  0.00  0.00    +0.124 A 
ATOM     32  C   UNL     1      -8.591   3.344   0.477  0.00  0.00    +0.048 A 
ATOM     33  F   UNL     1      -9.811   5.315   0.947  0.00  0.00    -0.205 F 
ENDBRANCH  26  27
ENDBRANCH  21  22
ENDBRANCH  18  21
ENDBRANCH   1  18
TORSDOF 6
