REMARK  Name = ZINC66967355
REMARK  4 active torsions:
REMARK  status: ('A' for Active; 'I' for Inactive)
REMARK    1  A    between atoms: C_1  and  C_2
REMARK    2  A    between atoms: C_4  and  C_18
REMARK    3  A    between atoms: C_7  and  N_8
REMARK    4  A    between atoms: C_25  and  C_27
REMARK                            x       y       z     vdW  Elec       q    Type
REMARK                         _______ _______ _______ _____ _____    ______ ____
ROOT
ATOM      1  C   UNL     1       1.850   1.605  -0.770  0.00  0.00    +0.045 C 
ATOM      2  C   UNL     1       1.274   0.225  -0.584  0.00  0.00    -0.028 A 
ATOM      3  C   UNL     1       1.122  -0.608  -1.669  0.00  0.00    +0.018 A 
ATOM      4  C   UNL     1       0.588  -1.888  -1.495  0.00  0.00    +0.037 A 
ATOM      5  C   UNL     1       0.209  -2.317  -0.220  0.00  0.00    +0.015 A 
ATOM      6  C   UNL     1       0.364  -1.478   0.861  0.00  0.00    +0.024 A 
ATOM      7  C   UNL     1       0.902  -0.207   0.685  0.00  0.00    +0.038 A 
ENDROOT
BRANCH   7   8
ATOM      8  N   UNL     1       1.062   0.638   1.783  0.00  0.00    -0.269 N 
ATOM      9  C   UNL     1       0.244   0.522   2.847  0.00  0.00    +0.306 C 
ATOM     10  O   UNL     1      -0.587  -0.365   2.882  0.00  0.00    -0.252 OA
ATOM     11  N   UNL     1       0.347   1.390   3.873  0.00  0.00    -0.285 N 
ATOM     12  C   UNL     1      -0.555   1.238   5.027  0.00  0.00    +0.110 C 
ATOM     13  C   UNL     1       0.092   1.399   6.426  0.00  0.00    +0.030 C 
ATOM     14  C   UNL     1       1.401   0.686   6.564  0.00  0.00    +0.071 C 
ATOM     15  S   UNL     1       2.771   1.782   6.039  0.00  0.00    -0.159 S 
ATOM     16  C   UNL     1       2.669   1.848   4.295  0.00  0.00    +0.088 C 
ATOM     17  C   UNL     1       1.331   2.423   3.808  0.00  0.00    +0.120 C 
ATOM     18  H   UNL     1       1.763   1.308   1.780  0.00  0.00    +0.156 HD
ENDBRANCH   7   8
BRANCH   4  19
ATOM     19  C   UNL     1       0.423  -2.784  -2.656  0.00  0.00    +0.247 C 
ATOM     20  O   UNL     1       0.223  -2.317  -3.761  0.00  0.00    -0.270 OA
ATOM     21  N   UNL     1       0.495  -4.120  -2.492  0.00  0.00    -0.295 N 
ATOM     22  C   UNL     1       0.853  -4.696  -1.189  0.00  0.00    +0.108 C 
ATOM     23  C   UNL     1       2.030  -5.657  -1.382  0.00  0.00    +0.019 C 
ATOM     24  C   UNL     1       1.667  -6.693  -2.448  0.00  0.00    +0.003 C 
ATOM     25  C   UNL     1       1.399  -5.986  -3.778  0.00  0.00    +0.022 C 
ATOM     26  C   UNL     1       0.209  -5.028  -3.611  0.00  0.00    +0.073 C 
ATOM     27  C   UNL     1       0.017  -4.217  -4.894  0.00  0.00    +0.028 C 
ENDBRANCH   4  19
TORSDOF 2
