REMARK  Name = ZINC03636337
REMARK  6 active torsions:
REMARK  status: ('A' for Active; 'I' for Inactive)
REMARK    1  A    between atoms: C_1  and  C_2
REMARK    2  A    between atoms: C_2  and  C_3
REMARK    3  A    between atoms: C_2  and  C_4
REMARK    4  A    between atoms: N_11  and  C_16
REMARK    5  A    between atoms: N_14  and  C_15
REMARK    6  A    between atoms: C_17  and  C_29
REMARK                            x       y       z     vdW  Elec       q    Type
REMARK                         _______ _______ _______ _____ _____    ______ ____
ROOT
ATOM      1  C   UNL     1      -0.782   5.149  -0.247  0.00  0.00    +0.228 C 
ATOM      2  O   UNL     1      -1.682   4.492   0.229  0.00  0.00    -0.275 OA
ATOM      3  N   UNL     1      -0.680   5.286  -1.584  0.00  0.00    -0.224 N 
ATOM      4  C   UNL     1      -1.722   5.822  -2.324  0.00  0.00    +0.125 A 
ATOM      5  C   UNL     1      -1.776   5.719  -3.677  0.00  0.00    +0.068 A 
ATOM      6  C   UNL     1      -2.865   6.300  -4.362  0.00  0.00    +0.262 A 
ATOM      7  O   UNL     1      -2.934   6.224  -5.576  0.00  0.00    -0.267 OA
ATOM      8  N   UNL     1      -3.827   6.937  -3.669  0.00  0.00    -0.264 N 
ATOM      9  C   UNL     1      -3.758   7.023  -2.328  0.00  0.00    +0.333 A 
ATOM     10  O   UNL     1      -4.637   7.600  -1.717  0.00  0.00    -0.246 OA
ATOM     11  N   UNL     1      -2.729   6.480  -1.654  0.00  0.00    -0.284 N 
ATOM     12  C   UNL     1      -2.679   6.590  -0.194  0.00  0.00    +0.155 C 
ATOM     13  C   UNL     1      -4.958   7.540  -4.379  0.00  0.00    +0.157 C 
ATOM     14  C   UNL     1      -0.719   5.003  -4.479  0.00  0.00    +0.093 C 
ATOM     15  C   UNL     1       0.488   4.759  -3.614  0.00  0.00    +0.034 C 
ATOM     16  C   UNL     1       0.466   4.892  -2.252  0.00  0.00    +0.058 C 
ATOM     17  C   UNL     1       1.791   4.572  -1.711  0.00  0.00    +0.008 A 
ATOM     18  C   UNL     1       2.269   4.564  -0.407  0.00  0.00    +0.010 A 
ATOM     19  C   UNL     1       3.607   4.206  -0.224  0.00  0.00    +0.001 A 
ATOM     20  C   UNL     1       4.423   3.874  -1.279  0.00  0.00    +0.001 A 
ATOM     21  C   UNL     1       3.958   3.876  -2.599  0.00  0.00    +0.012 A 
ATOM     22  C   UNL     1       2.636   4.228  -2.795  0.00  0.00    +0.031 A 
ATOM     23  C   UNL     1       1.823   4.337  -4.027  0.00  0.00    +0.193 C 
ATOM     24  O   UNL     1       2.196   4.122  -5.164  0.00  0.00    -0.287 OA
ENDROOT
BRANCH  14  25
ATOM     25  C   UNL     1      -1.266   3.688  -4.970  0.00  0.00    -0.035 A 
ATOM     26  C   UNL     1      -1.693   2.736  -4.064  0.00  0.00    +0.006 A 
ATOM     27  C   UNL     1      -2.200   1.531  -4.514  0.00  0.00    +0.020 A 
ATOM     28  C   UNL     1      -2.270   1.274  -5.872  0.00  0.00    +0.041 A 
ATOM     29  C   UNL     1      -1.837   2.226  -6.778  0.00  0.00    +0.020 A 
ATOM     30  C   UNL     1      -1.335   3.432  -6.327  0.00  0.00    +0.006 A 
ATOM     31 CL   UNL     1      -2.901  -0.241  -6.437  0.00  0.00    -0.084 Cl
ENDBRANCH  14  25
BRANCH   1  33
ATOM     32  C   UNL     1      -0.357   7.125   1.191  0.00  0.00    +0.017 C 
ATOM     33  C   UNL     1       0.225   5.814   0.657  0.00  0.00    +0.070 C 
ATOM     34  C   UNL     1       0.550   4.886   1.829  0.00  0.00    +0.017 C 
ENDBRANCH   1  33
TORSDOF 2
