REMARK  Name = ZINC08622765
REMARK  6 active torsions:
REMARK  status: ('A' for Active; 'I' for Inactive)
REMARK    1  A    between atoms: C_1  and  C_2
REMARK    2  A    between atoms: C_2  and  C_28
REMARK    3  A    between atoms: N_5  and  C_9
REMARK    4  A    between atoms: C_9  and  C_10
REMARK    5  A    between atoms: C_13  and  C_23
REMARK    6  A    between atoms: C_16  and  C_18
REMARK                            x       y       z     vdW  Elec       q    Type
REMARK                         _______ _______ _______ _____ _____    ______ ____
ROOT
ATOM      1  C   UNL     1       5.277   5.712  -0.021  0.00  0.00    +0.215 C 
ENDROOT
BRANCH   1   6
ATOM      2  C   UNL     1       8.976   8.397   1.068  0.00  0.00    +0.047 C 
ATOM      3  C   UNL     1       7.531   8.597   0.604  0.00  0.00    +0.135 C 
ATOM      4  C   UNL     1       6.649   7.464   1.089  0.00  0.00    +0.251 C 
ATOM      5  O   UNL     1       6.417   7.156   2.238  0.00  0.00    -0.272 OA
ATOM      6  N   UNL     1       6.178   6.868  -0.025  0.00  0.00    -0.215 N 
ATOM      7  C   UNL     1       6.628   7.466  -1.133  0.00  0.00    +0.310 C 
ATOM      8  O   UNL     1       6.338   7.111  -2.259  0.00  0.00    -0.252 OA
ATOM      9  N   UNL     1       7.440   8.505  -0.863  0.00  0.00    -0.281 N 
ATOM     10  H   UNL     1       7.879   9.080  -1.509  0.00  0.00    +0.152 HD
BRANCH   3  11
ATOM     11  C   UNL     1       7.001   9.923   1.085  0.00  0.00    -0.015 A 
ATOM     12  C   UNL     1       6.384  10.014   2.319  0.00  0.00    +0.007 A 
ATOM     13  C   UNL     1       5.902  11.231   2.764  0.00  0.00    +0.020 A 
ATOM     14  C   UNL     1       6.028  12.357   1.969  0.00  0.00    +0.041 A 
ATOM     15  C   UNL     1       6.641  12.264   0.732  0.00  0.00    +0.020 A 
ATOM     16  C   UNL     1       7.127  11.047   0.291  0.00  0.00    +0.007 A 
ATOM     17 CL   UNL     1       5.418  13.884   2.523  0.00  0.00    -0.084 Cl
ENDBRANCH   3  11
ENDBRANCH   1   6
BRANCH   1  18
ATOM     18  C   UNL     1       6.089   4.443  -0.034  0.00  0.00    +0.253 C 
ATOM     19  O   UNL     1       7.301   4.498  -0.045  0.00  0.00    -0.272 OA
ATOM     20  N   UNL     1       5.469   3.246  -0.034  0.00  0.00    -0.183 N 
ATOM     21  C   UNL     1       6.139   1.936  -0.046  0.00  0.00    +0.143 C 
ATOM     22  C   UNL     1       4.970   0.931  -0.039  0.00  0.00    +0.088 C 
ATOM     23  C   UNL     1       3.737   1.806  -0.024  0.00  0.00    +0.075 C 
ATOM     24  N   UNL     1       4.090   3.048  -0.026  0.00  0.00    -0.180 NA
BRANCH  23  25
ATOM     25  C   UNL     1       2.353   1.320  -0.013  0.00  0.00    +0.035 A 
ATOM     26  C   UNL     1       1.174   2.044   0.002  0.00  0.00    +0.017 A 
ATOM     27  C   UNL     1      -0.016   1.354   0.009  0.00  0.00    +0.008 A 
ATOM     28  C   UNL     1       0.002  -0.004   0.002  0.00  0.00    +0.046 A 
ATOM     29  S   UNL     1       1.751  -0.361  -0.017  0.00  0.00    -0.095 S 
ENDBRANCH  23  25
BRANCH  21  30
ATOM     30  C   UNL     1       6.992   1.765   1.185  0.00  0.00    +0.013 A 
ATOM     31  C   UNL     1       8.173   1.115   1.321  0.00  0.00    +0.013 A 
ATOM     32  C   UNL     1       8.784   1.087   2.561  0.00  0.00    +0.008 A 
ATOM     33  C   UNL     1       8.184   1.712   3.603  0.00  0.00    +0.045 A 
ATOM     34  S   UNL     1       6.712   2.373   2.840  0.00  0.00    -0.100 S 
ENDBRANCH  21  30
ENDBRANCH   1  18
TORSDOF 5
