REMARK  Name = ZINC57686694
REMARK  7 active torsions:
REMARK  status: ('A' for Active; 'I' for Inactive)
REMARK    1  A    between atoms: C_1  and  C_2
REMARK    2  A    between atoms: C_7  and  O_8
REMARK    3  A    between atoms: O_8  and  C_9
REMARK    4  A    between atoms: C_9  and  C_10
REMARK    5  A    between atoms: C_10  and  C_11
REMARK    6  A    between atoms: C_11  and  C_13
REMARK    7  A    between atoms: C_11  and  C_15
REMARK                            x       y       z     vdW  Elec       q    Type
REMARK                         _______ _______ _______ _____ _____    ______ ____
ROOT
ATOM      1  C   UNL     1       0.047   0.106   4.793  0.00  0.00    +0.064 C 
ENDROOT
BRANCH   1   2
ATOM      2  C   UNL     1       0.048  -0.819   3.574  0.00  0.00    +0.230 C 
BRANCH   2   3
ATOM      3  O   UNL     1       0.025  -0.033   2.381  0.00  0.00    -0.492 OA
BRANCH   3  10
ATOM      4  C   UNL     1      -0.018   1.503   0.010  0.00  0.00    +0.047 C 
ATOM      5  C   UNL     1       0.002  -0.004   0.002  0.00  0.00    -0.007 A 
ATOM      6  C   UNL     1       0.006  -0.689  -1.198  0.00  0.00    +0.027 A 
ATOM      7  C   UNL     1       0.024  -2.072  -1.206  0.00  0.00    +0.041 A 
ATOM      8  C   UNL     1       0.040  -2.773  -0.013  0.00  0.00    +0.023 A 
ATOM      9  C   UNL     1       0.036  -2.092   1.189  0.00  0.00    +0.047 A 
ATOM     10  C   UNL     1       0.023  -0.704   1.199  0.00  0.00    +0.123 A 
ATOM     11 CL   UNL     1       0.028  -2.930  -2.715  0.00  0.00    -0.084 Cl
ENDBRANCH   3  10
ENDBRANCH   2   3
ENDBRANCH   1   2
BRANCH   1  12
ATOM     12  C   UNL     1       0.071  -0.736   6.071  0.00  0.00    +0.127 C 
BRANCH  12  13
ATOM     13  C   UNL     1      -0.054   0.168   7.270  0.00  0.00    +0.005 A 
ATOM     14  C   UNL     1       0.891   1.152   7.495  0.00  0.00    +0.008 A 
ATOM     15  C   UNL     1       0.777   1.981   8.595  0.00  0.00    +0.000 A 
ATOM     16  C   UNL     1      -0.281   1.828   9.472  0.00  0.00    +0.003 A 
ATOM     17  C   UNL     1      -1.227   0.845   9.248  0.00  0.00    +0.038 A 
ATOM     18  C   UNL     1      -1.117   0.017   8.144  0.00  0.00    +0.128 A 
ATOM     19  F   UNL     1      -2.044  -0.940   7.922  0.00  0.00    -0.205 F 
ENDBRANCH  12  13
BRANCH  12  20
ATOM     20  C   UNL     1       1.339  -1.479   6.146  0.00  0.00    +0.071 C 
ATOM     21  N   UNL     1       2.318  -2.052   6.203  0.00  0.00    -0.196 NA
ENDBRANCH  12  20
ENDBRANCH   1  12
TORSDOF 6
