REMARK  Name = ZINC05647560
REMARK  5 active torsions:
REMARK  status: ('A' for Active; 'I' for Inactive)
REMARK    1  A    between atoms: N_11  and  C1*_14
REMARK    2  A    between atoms: C2*_16  and  O2*_26
REMARK    3  A    between atoms: C3*_18  and  O3*_25
REMARK    4  A    between atoms: C4*_20  and  C5*_23
REMARK    5  A    between atoms: C5*_23  and  O5*_24
REMARK                            x       y       z     vdW  Elec       q    Type
REMARK                         _______ _______ _______ _____ _____    ______ ____
ROOT
ATOM      1  C   UNL     1       2.397   5.220   0.023  0.00  0.00    +0.131 A 
ATOM      2  C   UNL     1       1.057   5.352   0.042  0.00  0.00    +0.115 A 
ATOM      3  N   UNL     1       0.526   4.083   0.036  0.00  0.00    -0.276 N 
ATOM      4  C   UNL     1       1.588   3.211   0.013  0.00  0.00    +0.169 A 
ATOM      5  N   UNL     1       2.698   3.914   0.006  0.00  0.00    -0.234 NA
ATOM      6  C   UNL     1       1.308   1.768   0.003  0.00  0.00    +0.151 A 
ATOM      7  C   UNL     1      -0.016   1.359   0.016  0.00  0.00    +0.169 A 
ATOM      8  N   UNL     1      -1.018   2.308   0.043  0.00  0.00    -0.203 NA
ATOM      9  C   UNL     1      -0.735   3.622   0.048  0.00  0.00    +0.188 A 
ATOM     10  S   UNL     1      -2.026   4.745   0.076  0.00  0.00    -0.011 SA
ATOM     11  N   UNL     1       0.002  -0.004   0.002  0.00  0.00    -0.285 N 
ATOM     12  C   UNL     1       1.307  -0.396  -0.019  0.00  0.00    +0.203 A 
ATOM     13  N   UNL     1       2.076   0.656  -0.018  0.00  0.00    -0.230 NA
ENDROOT
BRANCH  11  14
ATOM     14  C1* UNL     1      -1.167  -0.886   0.008  0.00  0.00    +0.253 C 
ATOM     15  C2* UNL     1      -1.762  -1.002  -1.413  0.00  0.00    +0.195 C 
ATOM     16  C3* UNL     1      -1.113  -2.280  -1.988  0.00  0.00    +0.178 C 
ATOM     17  C4* UNL     1      -0.203  -2.786  -0.847  0.00  0.00    +0.177 C 
ATOM     18  O4* UNL     1      -0.779  -2.233   0.357  0.00  0.00    -0.346 OA
BRANCH  16  19
ATOM     19  O3* UNL     1      -2.113  -3.253  -2.300  0.00  0.00    -0.386 OA
ATOM     20  H3* UNL     1      -1.821  -4.226  -2.721  0.00  0.00    +0.210 HD
ENDBRANCH  16  19
BRANCH  15  21
ATOM     21  O2* UNL     1      -1.409   0.139  -2.197  0.00  0.00    -0.385 OA
ATOM     22  H2* UNL     1      -1.752   0.218  -3.239  0.00  0.00    +0.210 HD
ENDBRANCH  15  21
BRANCH  17  23
ATOM     23  C5* UNL     1      -0.219  -4.315  -0.791  0.00  0.00    +0.190 C 
BRANCH  23  24
ATOM     24  O5* UNL     1       0.715  -4.766   0.192  0.00  0.00    -0.392 OA
ATOM     25  H5* UNL     1       0.844  -5.843   0.376  0.00  0.00    +0.210 HD
ENDBRANCH  23  24
ENDBRANCH  17  23
ENDBRANCH  11  14
TORSDOF 5
