REMARK  Name = ZINC01354076
REMARK  5 active torsions:
REMARK  status: ('A' for Active; 'I' for Inactive)
REMARK    1  A    between atoms: C_3  and  C_26
REMARK    2  A    between atoms: C_5  and  N_7
REMARK    3  A    between atoms: N_10  and  C_11
REMARK    4  A    between atoms: N_15  and  C_18
REMARK    5  A    between atoms: C_18  and  C_19
REMARK                            x       y       z     vdW  Elec       q    Type
REMARK                         _______ _______ _______ _____ _____    ______ ____
ROOT
ATOM      1  C   UNL     1       2.219   8.121  -0.101  0.00  0.00    +0.100 A 
ATOM      2  C   UNL     1       3.409   7.447  -0.120  0.00  0.00    +0.030 A 
ATOM      3  C   UNL     1       4.608   8.175  -0.135  0.00  0.00    +0.020 A 
ATOM      4  C   UNL     1       4.579   9.527  -0.132  0.00  0.00    +0.089 A 
ATOM      5  N   UNL     1       3.396  10.199  -0.113  0.00  0.00    -0.309 N 
ATOM      6  C   UNL     1       2.226   9.533  -0.104  0.00  0.00    +0.273 A 
ATOM      7  O   UNL     1       1.172  10.149  -0.093  0.00  0.00    -0.266 OA
ENDROOT
BRANCH   1  11
ATOM      8  N   UNL     1      -0.987   6.855   0.992  0.00  0.00    -0.269 N 
ATOM      9  C   UNL     1       0.133   7.602   0.924  0.00  0.00    +0.308 C 
ATOM     10  O   UNL     1       0.356   8.442   1.774  0.00  0.00    -0.252 OA
ATOM     11  N   UNL     1       1.006   7.418  -0.086  0.00  0.00    -0.265 N 
ATOM     12  H   UNL     1      -1.128   6.135   0.358  0.00  0.00    +0.156 HD
ATOM     13  H   UNL     1       0.795   6.798  -0.802  0.00  0.00    +0.157 HD
BRANCH   8  18
ATOM     14  C   UNL     1      -3.635   6.331   3.494  0.00  0.00    +0.003 A 
ATOM     15  C   UNL     1      -3.852   7.622   3.932  0.00  0.00    +0.019 A 
ATOM     16  C   UNL     1      -3.116   8.677   3.388  0.00  0.00    +0.054 A 
ATOM     17  C   UNL     1      -2.155   8.418   2.409  0.00  0.00    +0.042 A 
ATOM     18  C   UNL     1      -1.946   7.119   1.977  0.00  0.00    +0.036 A 
ATOM     19  C   UNL     1      -2.687   6.077   2.521  0.00  0.00    +0.023 A 
BRANCH  16  20
ATOM     20  C   UNL     1      -3.343  10.018   3.836  0.00  0.00    +0.099 C 
ATOM     21  N   UNL     1      -3.523  11.082   4.191  0.00  0.00    -0.191 NA
ENDBRANCH  16  20
ENDBRANCH   8  18
ENDBRANCH   1  11
BRANCH   5  22
ATOM     22  C   UNL     1       3.396  11.664  -0.111  0.00  0.00    +0.160 C 
BRANCH  22  23
ATOM     23  C   UNL     1       3.375  12.169  -1.530  0.00  0.00    -0.027 A 
ATOM     24  C   UNL     1       4.562  12.406  -2.197  0.00  0.00    +0.008 A 
ATOM     25  C   UNL     1       4.545  12.864  -3.500  0.00  0.00    +0.038 A 
ATOM     26  C   UNL     1       3.336  13.096  -4.136  0.00  0.00    +0.123 A 
ATOM     27  C   UNL     1       2.147  12.863  -3.466  0.00  0.00    +0.038 A 
ATOM     28  C   UNL     1       2.168  12.399  -2.164  0.00  0.00    +0.008 A 
ATOM     29  F   UNL     1       3.317  13.549  -5.408  0.00  0.00    -0.205 F 
ENDBRANCH  22  23
ENDBRANCH   5  22
TORSDOF 5
