REMARK  Name = ZINC12700436
REMARK  9 active torsions:
REMARK  status: ('A' for Active; 'I' for Inactive)
REMARK    1  A    between atoms: C_1  and  C_2
REMARK    2  A    between atoms: C_3  and  S_8
REMARK    3  A    between atoms: C_4  and  C_7
REMARK    4  A    between atoms: S_8  and  N_11
REMARK    5  A    between atoms: C_17  and  C_19
REMARK    6  A    between atoms: C_17  and  C_20
REMARK    7  A    between atoms: C_17  and  N_65
REMARK    8  A    between atoms: N_22  and  C_23
REMARK    9  A    between atoms: C_24  and  C_33
REMARK                            x       y       z     vdW  Elec       q    Type
REMARK                         _______ _______ _______ _____ _____    ______ ____
ROOT
ATOM      1  C   UNL     1       5.717   5.623   3.441  0.00  0.00    +0.016 C 
ATOM      2  C   UNL     1       6.658   4.819   4.339  0.00  0.00    -0.004 C 
ENDROOT
BRANCH   1   9
ATOM      3  N   UNL     1       2.278   3.183   2.634  0.00  0.00    -0.178 NA
ATOM      4  C   UNL     1       2.872   3.438   1.351  0.00  0.00    +0.107 C 
ATOM      5  C   UNL     1       4.368   3.083   1.203  0.00  0.00    -0.001 C 
ATOM      6  C   UNL     1       5.133   3.505   2.482  0.00  0.00    -0.076 C 
ATOM      7  C   UNL     1       3.720   4.422   4.076  0.00  0.00    -0.060 C 
ATOM      8  C   UNL     1       2.316   4.262   3.678  0.00  0.00    +0.091 C 
ATOM      9  N   UNL     1       4.616   4.744   2.976  0.00  0.00    +0.388 N 
ATOM     10  H   UNL     1       4.095   5.223   2.233  0.00  0.00    -0.081 HD
BRANCH   3  11
ATOM     11  S   UNL     1       1.568   1.723   2.958  0.00  0.00    +0.066 S 
ATOM     12  O   UNL     1       1.598   1.561   4.369  0.00  0.00    -0.153 OA
ATOM     13  O   UNL     1       2.155   0.780   2.070  0.00  0.00    -0.153 OA
BRANCH  11  16
ATOM     14  C   UNL     1      -0.013   1.086   0.008  0.00  0.00    +0.071 C 
ATOM     15  C   UNL     1      -0.718   1.572   1.248  0.00  0.00    +0.107 A 
ATOM     16  C   UNL     1      -0.129   1.855   2.501  0.00  0.00    +0.170 A 
ATOM     17  C   UNL     1      -1.171   2.253   3.270  0.00  0.00    +0.161 A 
ATOM     18  O   UNL     1      -2.261   2.193   2.493  0.00  0.00    -0.358 OA
ATOM     19  N   UNL     1      -1.990   1.819   1.375  0.00  0.00    -0.081 NA
ATOM     20  C   UNL     1      -1.115   2.680   4.715  0.00  0.00    +0.091 C 
ENDBRANCH  11  16
ENDBRANCH   3  11
ENDBRANCH   1   9
BRANCH   1  21
ATOM     21  C   UNL     1       6.481   6.147   2.252  0.00  0.00    +0.204 C 
ATOM     22  O   UNL     1       6.149   5.830   1.130  0.00  0.00    -0.277 OA
ATOM     23  N   UNL     1       7.535   6.967   2.437  0.00  0.00    -0.280 N 
ATOM     24  H   UNL     1       7.801   7.221   3.335  0.00  0.00    +0.155 HD
BRANCH  23  25
ATOM     25  C   UNL     1       8.239   7.449   1.343  0.00  0.00    +0.090 A 
ATOM     26  C   UNL     1       9.337   8.293   1.329  0.00  0.00    +0.084 A 
ATOM     27  C   UNL     1       9.901   8.653   0.036  0.00  0.00    -0.018 A 
ATOM     28  C   UNL     1       9.267   8.117  -1.030  0.00  0.00    -0.004 A 
ATOM     29  S   UNL     1       7.963   7.136  -0.338  0.00  0.00    -0.077 S 
ATOM     30  C   UNL     1       9.591   8.306  -2.479  0.00  0.00    +0.043 C 
ATOM     31  C   UNL     1      11.094   8.079  -2.694  0.00  0.00    +0.005 C 
ATOM     32  C   UNL     1      11.816   9.410  -2.509  0.00  0.00    +0.001 C 
ATOM     33  C   UNL     1      11.100  10.255  -1.457  0.00  0.00    +0.005 C 
ATOM     34  C   UNL     1      11.122   9.553  -0.103  0.00  0.00    +0.037 C 
BRANCH  26  35
ATOM     35  C   UNL     1       9.900   8.795   2.547  0.00  0.00    +0.102 C 
ATOM     36  N   UNL     1      10.347   9.192   3.513  0.00  0.00    -0.191 NA
ENDBRANCH  26  35
ENDBRANCH  23  25
ENDBRANCH   1  21
TORSDOF 6
