REMARK  Name = ZINC17090746
REMARK  7 active torsions:
REMARK  status: ('A' for Active; 'I' for Inactive)
REMARK    1  A    between atoms: C_1  and  C_2
REMARK    2  A    between atoms: C_3  and  C_30
REMARK    3  A    between atoms: C_5  and  C_28
REMARK    4  A    between atoms: C_7  and  C_10
REMARK    5  A    between atoms: N_12  and  C_13
REMARK    6  A    between atoms: C_14  and  C_22
REMARK    7  A    between atoms: N_24  and  C_25
REMARK                            x       y       z     vdW  Elec       q    Type
REMARK                         _______ _______ _______ _____ _____    ______ ____
ROOT
ATOM      1  C   UNL     1       5.248   1.165  -1.033  0.00  0.00    +0.084 A 
ATOM      2  C   UNL     1       4.846   0.691   0.208  0.00  0.00    +0.069 A 
ATOM      3  C   UNL     1       5.593   1.137   1.371  0.00  0.00    -0.023 A 
ATOM      4  C   UNL     1       6.622   1.972   1.109  0.00  0.00    -0.004 A 
ATOM      5  S   UNL     1       6.601   2.178  -0.649  0.00  0.00    -0.077 S 
ATOM      6  C   UNL     1       7.562   2.586   2.100  0.00  0.00    +0.043 C 
ATOM      7  C   UNL     1       6.951   2.433   3.503  0.00  0.00    +0.005 C 
ATOM      8  C   UNL     1       6.494   0.982   3.679  0.00  0.00    +0.005 C 
ATOM      9  C   UNL     1       5.273   0.711   2.799  0.00  0.00    +0.037 C 
ENDROOT
BRANCH   1  12
ATOM     10  C   UNL     1       5.232   1.451  -3.384  0.00  0.00    +0.222 C 
ATOM     11  O   UNL     1       6.189   2.191  -3.290  0.00  0.00    -0.275 OA
ATOM     12  N   UNL     1       4.701   0.893  -2.278  0.00  0.00    -0.279 N 
ATOM     13  H   UNL     1       3.936   0.301  -2.353  0.00  0.00    +0.155 HD
BRANCH  10  19
ATOM     14  C   UNL     1       7.741   2.369  -6.703  0.00  0.00    +0.039 C 
ATOM     15  C   UNL     1       6.390   2.347  -6.034  0.00  0.00    -0.073 C 
ATOM     16  C   UNL     1       5.849   3.481  -5.723  0.00  0.00    -0.073 C 
ATOM     17  C   UNL     1       4.517   3.619  -5.046  0.00  0.00    +0.046 C 
ATOM     18  C   UNL     1       3.728   2.313  -5.164  0.00  0.00    +0.118 C 
ATOM     19  C   UNL     1       4.638   1.155  -4.737  0.00  0.00    +0.093 C 
ATOM     20  C   UNL     1       5.757   1.013  -5.770  0.00  0.00    +0.044 C 
ATOM     21  C   UNL     1       6.603   4.741  -6.062  0.00  0.00    +0.039 C 
BRANCH  18  22
ATOM     22  C   UNL     1       2.520   2.368  -4.264  0.00  0.00    +0.360 C 
ATOM     23  O   UNL     1       2.397   1.564  -3.370  0.00  0.00    -0.246 OA
ATOM     24  O   UNL     1       1.582   3.309  -4.455  0.00  0.00    -0.246 OA
ENDBRANCH  18  22
ENDBRANCH  10  19
ENDBRANCH   1  12
BRANCH   2  25
ATOM     25  C   UNL     1       3.705  -0.221   0.340  0.00  0.00    +0.247 C 
ATOM     26  O   UNL     1       3.880  -1.424   0.290  0.00  0.00    -0.270 OA
ATOM     27  N   UNL     1       2.464   0.274   0.517  0.00  0.00    -0.308 N 
ATOM     28  H   UNL     1       2.325   1.233   0.557  0.00  0.00    +0.149 HD
BRANCH  27  29
ATOM     29  C   UNL     1       1.325  -0.637   0.649  0.00  0.00    +0.073 C 
ATOM     30  C   UNL     1       0.297  -0.329   1.740  0.00  0.00    +0.024 C 
ATOM     31  C   UNL     1      -0.057  -0.100   0.269  0.00  0.00    +0.024 C 
ENDBRANCH  27  29
ENDBRANCH   2  25
TORSDOF 5
