REMARK  Name = ZINC00809262
REMARK  4 active torsions:
REMARK  status: ('A' for Active; 'I' for Inactive)
REMARK    1  A    between atoms: C_1  and  O_2
REMARK    2  A    between atoms: O_2  and  C_3
REMARK    3  A    between atoms: C_5  and  C_10
REMARK    4  A    between atoms: C_8  and  O_9
REMARK                            x       y       z     vdW  Elec       q    Type
REMARK                         _______ _______ _______ _____ _____    ______ ____
ROOT
ATOM      1  C   UNL     1       2.745  -0.804   3.703  0.00  0.00    +0.028 C 
ATOM      2  C   UNL     1       3.331  -1.080   4.896  0.00  0.00    +0.081 A 
ATOM      3  C   UNL     1       4.581  -1.800   5.178  0.00  0.00    +0.273 A 
ATOM      4  O   UNL     1       5.262  -2.253   4.276  0.00  0.00    -0.266 OA
ATOM      5  N   UNL     1       4.949  -1.938   6.460  0.00  0.00    -0.236 N 
ATOM      6  C   UNL     1       6.024  -2.526   7.150  0.00  0.00    +0.168 A 
ATOM      7  C   UNL     1       5.791  -2.317   8.516  0.00  0.00    +0.111 A 
ATOM      8  C   UNL     1       6.716  -2.805   9.444  0.00  0.00    +0.048 A 
ATOM      9  C   UNL     1       7.827  -3.477   8.962  0.00  0.00    +0.038 A 
ATOM     10  C   UNL     1       7.986  -3.644   7.596  0.00  0.00    +0.128 A 
ATOM     11  N   UNL     1       7.099  -3.173   6.740  0.00  0.00    -0.234 NA
ATOM     12 BR   UNL     1       9.117  -4.165  10.161  0.00  0.00    -0.049 Br
ATOM     13  N   UNL     1       4.624  -1.632   8.628  0.00  0.00    -0.219 NA
ATOM     14  C   UNL     1       4.139  -1.413   7.439  0.00  0.00    +0.183 A 
ATOM     15  S   UNL     1       2.786  -0.674   6.548  0.00  0.00    -0.046 S 
ENDROOT
BRANCH   1  18
ATOM     16  C   UNL     1      -0.354   0.908   2.466  0.00  0.00    +0.162 A 
ATOM     17  C   UNL     1       0.751   0.081   2.511  0.00  0.00    +0.057 A 
ATOM     18  C   UNL     1       1.569   0.073   3.648  0.00  0.00    -0.020 A 
ATOM     19  C   UNL     1       1.261   0.904   4.732  0.00  0.00    +0.012 A 
ATOM     20  C   UNL     1       0.157   1.726   4.678  0.00  0.00    +0.050 A 
ATOM     21  C   UNL     1      -0.650   1.736   3.548  0.00  0.00    +0.158 A 
BRANCH  16  23
ATOM     22  C   UNL     1      -0.785   0.049   0.291  0.00  0.00    +0.277 C 
ATOM     23  O   UNL     1      -1.151   0.918   1.364  0.00  0.00    -0.491 OA
ENDBRANCH  16  23
BRANCH  21  24
ATOM     24  O   UNL     1      -1.734   2.554   3.498  0.00  0.00    -0.503 OA
ATOM     25  H   UNL     1      -2.546   2.151   3.837  0.00  0.00    +0.292 HD
ENDBRANCH  21  24
ENDBRANCH   1  18
TORSDOF 3
