REMARK  Name = ZINC39631970
REMARK  13 active torsions:
REMARK  status: ('A' for Active; 'I' for Inactive)
REMARK    1  A    between atoms: C_1  and  C_2
REMARK    2  A    between atoms: C_5  and  C_9
REMARK    3  A    between atoms: C_6  and  C_8
REMARK    4  A    between atoms: C_13  and  C_22
REMARK    5  A    between atoms: N_24  and  C_25
REMARK    6  A    between atoms: C_25  and  C_27
REMARK    7  A    between atoms: C_25  and  C_28
REMARK    8  A    between atoms: C_28  and  C_29
REMARK    9  A    between atoms: C_29  and  C_30
REMARK   10  A    between atoms: C_30  and  C_31
REMARK   11  A    between atoms: C_31  and  C_32
REMARK   12  A    between atoms: C_31  and  C_33
REMARK   13  A    between atoms: C_31  and  O_34
REMARK                            x       y       z     vdW  Elec       q    Type
REMARK                         _______ _______ _______ _____ _____    ______ ____
ROOT
ATOM      1  C   UNL     1       0.059  -4.400   0.056  0.00  0.00    +0.247 C 
ATOM      2  O   UNL     1       0.232  -4.967   1.117  0.00  0.00    -0.270 OA
ATOM      3  N   UNL     1      -0.079  -5.118  -1.077  0.00  0.00    -0.296 N 
ATOM      4  C   UNL     1      -0.194  -4.612  -2.464  0.00  0.00    +0.121 C 
ATOM      5  C   UNL     1       0.638  -5.601  -3.311  0.00  0.00    +0.100 C 
ATOM      6  C   UNL     1       0.662  -6.899  -2.487  0.00  0.00    -0.004 C 
ATOM      7  C   UNL     1      -0.143  -6.593  -1.215  0.00  0.00    +0.115 C 
ATOM      8  C   UNL     1       0.007  -8.034  -3.268  0.00  0.00    -0.010 C 
ATOM      9  C   UNL     1       0.095  -9.326  -2.452  0.00  0.00    -0.082 C 
ATOM     10  N   UNL     1       1.503  -9.642  -2.182  0.00  0.00    +0.379 N 
ATOM     11  C   UNL     1       2.100  -8.589  -1.351  0.00  0.00    -0.082 C 
ATOM     12  C   UNL     1       2.097  -7.266  -2.120  0.00  0.00    -0.010 C 
ATOM     13  H   UNL     1       1.561 -10.525  -1.697  0.00  0.00    -0.086 HD
ATOM     14  H   UNL     1       2.005  -9.706  -3.054  0.00  0.00    -0.086 HD
ENDROOT
BRANCH   1  19
ATOM     15  C   UNL     1      -0.175   1.347  -0.135  0.00  0.00    +0.044 C 
ATOM     16  C   UNL     1      -0.114  -0.158  -0.085  0.00  0.00    -0.050 A 
ATOM     17  C   UNL     1       0.738  -0.842  -0.935  0.00  0.00    +0.004 A 
ATOM     18  C   UNL     1       0.799  -2.219  -0.894  0.00  0.00    +0.013 A 
ATOM     19  C   UNL     1      -0.001  -2.924   0.007  0.00  0.00    +0.040 A 
ATOM     20  C   UNL     1      -0.859  -2.228   0.861  0.00  0.00    -0.038 A 
ATOM     21  C   UNL     1      -0.906  -0.850   0.813  0.00  0.00    +0.007 A 
ATOM     22  C   UNL     1      -1.727  -2.981   1.836  0.00  0.00    +0.044 C 
ENDBRANCH   1  19
BRANCH   5  23
ATOM     23  C   UNL     1      -0.024  -5.836  -4.645  0.00  0.00    +0.218 C 
ATOM     24  O   UNL     1      -1.233  -5.824  -4.732  0.00  0.00    -0.275 OA
ATOM     25  N   UNL     1       0.729  -6.059  -5.740  0.00  0.00    -0.312 N 
ATOM     26  H   UNL     1       1.697  -6.068  -5.670  0.00  0.00    +0.149 HD
BRANCH  25  27
ATOM     27  C   UNL     1       0.086  -6.287  -7.037  0.00  0.00    +0.070 C 
ATOM     28  C   UNL     1      -0.218  -4.941  -7.699  0.00  0.00    +0.028 C 
BRANCH  27  29
ATOM     29  C   UNL     1       1.023  -7.097  -7.935  0.00  0.00    +0.022 C 
BRANCH  29  30
ATOM     30  C   UNL     1       1.228  -8.489  -7.334  0.00  0.00    +0.005 C 
BRANCH  30  31
ATOM     31  C   UNL     1       2.164  -9.300  -8.232  0.00  0.00    +0.034 C 
BRANCH  31  32
ATOM     32  C   UNL     1       2.369 -10.692  -7.631  0.00  0.00    +0.061 C 
ATOM     33  C   UNL     1       3.401 -11.458  -8.460  0.00  0.00    +0.041 C 
ATOM     34  C   UNL     1       2.869 -10.557  -6.192  0.00  0.00    +0.041 C 
BRANCH  32  35
ATOM     35  O   UNL     1       1.129 -11.402  -7.640  0.00  0.00    -0.389 OA
ATOM     36  H   UNL     1       0.752 -11.524  -8.522  0.00  0.00    +0.210 HD
ENDBRANCH  32  35
ENDBRANCH  31  32
ENDBRANCH  30  31
ENDBRANCH  29  30
ENDBRANCH  27  29
ENDBRANCH  25  27
ENDBRANCH   5  23
TORSDOF 8
