REMARK  Name = ZINC04281766
REMARK  4 active torsions:
REMARK  status: ('A' for Active; 'I' for Inactive)
REMARK    1  A    between atoms: C_1  and  N_2
REMARK    2  A    between atoms: C_3  and  C_5
REMARK    3  A    between atoms: C_9  and  N_10
REMARK    4  A    between atoms: C_11  and  C_13
REMARK                            x       y       z     vdW  Elec       q    Type
REMARK                         _______ _______ _______ _____ _____    ______ ____
ROOT
ATOM      1  N   UNL     1       1.143   1.902   0.001  0.00  0.00    -0.275 N 
ATOM      2  C   UNL     1      -0.014   1.212   0.009  0.00  0.00    +0.256 C 
ATOM      3  O   UNL     1       0.002  -0.004   0.002  0.00  0.00    -0.270 OA
ATOM      4  H   UNL     1       1.130   2.872   0.007  0.00  0.00    +0.156 HD
ENDROOT
BRANCH   2   5
ATOM      5  C   UNL     1      -1.299   1.931   0.019  0.00  0.00    +0.122 A 
ATOM      6  C   UNL     1      -1.332   3.315   0.032  0.00  0.00    +0.031 A 
ATOM      7  C   UNL     1      -2.592   3.966   0.036  0.00  0.00    +0.018 A 
ATOM      8  C   UNL     1      -2.662   5.367   0.044  0.00  0.00    +0.011 A 
ATOM      9  C   UNL     1      -3.878   5.987   0.054  0.00  0.00    +0.001 A 
ATOM     10  C   UNL     1      -5.049   5.240   0.056  0.00  0.00    +0.004 A 
ATOM     11  C   UNL     1      -5.003   3.863   0.048  0.00  0.00    +0.047 A 
ATOM     12  C   UNL     1      -3.776   3.208   0.038  0.00  0.00    +0.139 A 
ATOM     13  O   UNL     1      -3.735   1.858   0.030  0.00  0.00    -0.422 OA
ATOM     14  C   UNL     1      -2.568   1.193   0.021  0.00  0.00    +0.350 A 
ATOM     15  O   UNL     1      -2.562  -0.024   0.014  0.00  0.00    -0.244 OA
ENDBRANCH   2   5
BRANCH   1  20
ATOM     16  C   UNL     1       3.638   1.755  -0.029  0.00  0.00    +0.065 A 
ATOM     17  C   UNL     1       4.729   0.809  -0.039  0.00  0.00    +0.022 A 
ATOM     18  C   UNL     1       4.409  -0.497  -0.044  0.00  0.00    +0.048 A 
ATOM     19  S   UNL     1       2.629  -0.484  -0.026  0.00  0.00    -0.081 S 
ATOM     20  C   UNL     1       2.353   1.226  -0.014  0.00  0.00    +0.084 A 
BRANCH  16  23
ATOM     21  C   UNL     1       5.370   5.125  -0.046  0.00  0.00    +0.128 C 
ATOM     22  N   UNL     1       5.134   3.679  -0.045  0.00  0.00    -0.314 N 
ATOM     23  C   UNL     1       3.874   3.202  -0.030  0.00  0.00    +0.246 C 
ATOM     24  O   UNL     1       2.932   3.972  -0.018  0.00  0.00    -0.270 OA
ATOM     25  H   UNL     1       5.885   3.065  -0.055  0.00  0.00    +0.149 HD
ENDBRANCH  16  23
ENDBRANCH   1  20
TORSDOF 3
