REMARK  Name = ZINC09937393
REMARK  7 active torsions:
REMARK  status: ('A' for Active; 'I' for Inactive)
REMARK    1  A    between atoms: C_1  and  C_2
REMARK    2  A    between atoms: C_3  and  C_33
REMARK    3  A    between atoms: N_9  and  C_26
REMARK    4  A    between atoms: N_12  and  C_13
REMARK    5  A    between atoms: C_13  and  C_14
REMARK    6  A    between atoms: C_18  and  C_25
REMARK    7  A    between atoms: C_21  and  C_24
REMARK                            x       y       z     vdW  Elec       q    Type
REMARK                         _______ _______ _______ _____ _____    ______ ____
ROOT
ATOM      1  C   UNL     1       1.784  -1.370  -1.589  0.00  0.00    +0.045 C 
ATOM      2  C   UNL     1       1.308  -0.076  -0.981  0.00  0.00    -0.026 A 
ATOM      3  C   UNL     1      -0.002   0.190  -0.857  0.00  0.00    -0.008 A 
ATOM      4  S   UNL     1      -0.023   1.802  -0.099  0.00  0.00    -0.075 S 
ATOM      5  C   UNL     1       1.673   2.074   0.030  0.00  0.00    +0.097 A 
ATOM      6  C   UNL     1       2.252   0.924  -0.511  0.00  0.00    +0.074 A 
ATOM      7  C   UNL     1       3.731   0.896  -0.523  0.00  0.00    +0.270 A 
ATOM      8  O   UNL     1       4.324  -0.066  -0.975  0.00  0.00    -0.266 OA
ATOM      9  N   UNL     1       4.412   1.945  -0.030  0.00  0.00    -0.228 N 
ATOM     10  C   UNL     1       3.787   3.021   0.476  0.00  0.00    +0.338 A 
ATOM     11  O   UNL     1       4.449   3.945   0.910  0.00  0.00    -0.246 OA
ATOM     12  N   UNL     1       2.443   3.098   0.511  0.00  0.00    -0.278 N 
ATOM     13  C   UNL     1      -1.173  -0.669  -1.261  0.00  0.00    +0.052 C 
ENDROOT
BRANCH   9  14
ATOM     14  C   UNL     1       5.814   1.915  -0.043  0.00  0.00    +0.054 A 
ATOM     15  C   UNL     1       6.508   1.391   1.040  0.00  0.00    +0.028 A 
ATOM     16  C   UNL     1       7.888   1.356   1.022  0.00  0.00    +0.022 A 
ATOM     17  C   UNL     1       8.580   1.854  -0.069  0.00  0.00    +0.041 A 
ATOM     18  C   UNL     1       7.890   2.382  -1.146  0.00  0.00    +0.022 A 
ATOM     19  C   UNL     1       6.510   2.413  -1.135  0.00  0.00    +0.028 A 
ATOM     20 CL   UNL     1      10.315   1.815  -0.085  0.00  0.00    -0.084 Cl
ENDBRANCH   9  14
BRANCH  12  21
ATOM     21  C   UNL     1       1.799   4.289   1.071  0.00  0.00    +0.223 C 
BRANCH  21  22
ATOM     22  C   UNL     1       1.578   4.093   2.549  0.00  0.00    +0.236 C 
ATOM     23  O   UNL     1       1.924   3.060   3.082  0.00  0.00    -0.274 OA
ATOM     24  N   UNL     1       0.995   5.065   3.278  0.00  0.00    -0.300 N 
ATOM     25  C   UNL     1       0.576   6.324   2.648  0.00  0.00    +0.111 C 
ATOM     26  C   UNL     1      -0.905   6.566   2.976  0.00  0.00    +0.004 C 
ATOM     27  C   UNL     1      -1.098   6.528   4.494  0.00  0.00    +0.009 C 
ATOM     28  C   UNL     1      -0.705   5.148   5.026  0.00  0.00    +0.004 C 
ATOM     29  C   UNL     1       0.773   4.889   4.720  0.00  0.00    +0.111 C 
ATOM     30  C   UNL     1      -0.929   5.101   6.539  0.00  0.00    +0.009 C 
ATOM     31  C   UNL     1      -1.760   5.476   2.326  0.00  0.00    +0.009 C 
ENDBRANCH  21  22
ENDBRANCH  12  21
TORSDOF 3
