REMARK  Name = ZINC63926021
REMARK  5 active torsions:
REMARK  status: ('A' for Active; 'I' for Inactive)
REMARK    1  A    between atoms: C_4  and  N_7
REMARK    2  A    between atoms: C_8  and  C_29
REMARK    3  A    between atoms: C_10  and  C_14
REMARK    4  A    between atoms: N_16  and  N_17
REMARK    5  A    between atoms: C_18  and  C_20
REMARK                            x       y       z     vdW  Elec       q    Type
REMARK                         _______ _______ _______ _____ _____    ______ ____
ROOT
ATOM      1  C   UNL     1       6.174  -3.610   0.272  0.00  0.00    +0.260 C 
ATOM      2  O   UNL     1       7.391  -3.617   0.307  0.00  0.00    -0.269 OA
ATOM      3  N   UNL     1       5.488  -4.756   0.456  0.00  0.00    -0.230 N 
ATOM      4  H   UNL     1       4.519  -4.738   0.505  0.00  0.00    +0.173 HD
ENDROOT
BRANCH   1   7
ATOM      5  N   UNL     1       3.802  -0.795  -0.370  0.00  0.00    -0.237 N 
ATOM      6  C   UNL     1       3.990  -2.242  -0.174  0.00  0.00    +0.234 C 
ATOM      7  C   UNL     1       5.480  -2.400   0.038  0.00  0.00    +0.061 C 
ATOM      8  H   UNL     1       5.261   0.727  -0.371  0.00  0.00    +0.169 HD
ATOM      9  C   UNL     1       6.020  -1.169  -0.038  0.00  0.00    +0.098 C 
ATOM     10  N   UNL     1       5.077  -0.221  -0.279  0.00  0.00    -0.270 N 
BRANCH   5  14
ATOM     11  C   UNL     1       0.209   1.189  -1.072  0.00  0.00    +0.000 A 
ATOM     12  C   UNL     1       1.410   1.825  -1.329  0.00  0.00    +0.002 A 
ATOM     13  C   UNL     1       2.603   1.170  -1.097  0.00  0.00    +0.025 A 
ATOM     14  C   UNL     1       2.597  -0.129  -0.605  0.00  0.00    +0.049 A 
ATOM     15  C   UNL     1       1.389  -0.765  -0.348  0.00  0.00    +0.025 A 
ATOM     16  C   UNL     1       0.199  -0.104  -0.583  0.00  0.00    +0.002 A 
ENDBRANCH   5  14
BRANCH   6  17
ATOM     17  C   UNL     1       3.538  -3.013  -1.416  0.00  0.00    +0.414 C 
ATOM     18  F   UNL     1       4.325  -2.637  -2.510  0.00  0.00    -0.168 F 
ATOM     19  F   UNL     1       3.681  -4.386  -1.189  0.00  0.00    -0.168 F 
ATOM     20  F   UNL     1       2.197  -2.721  -1.684  0.00  0.00    -0.168 F 
ENDBRANCH   6  17
ENDBRANCH   1   7
BRANCH   3  21
ATOM     21  N   UNL     1       6.173  -5.971   0.577  0.00  0.00    -0.230 N 
ATOM     22  C   UNL     1       5.487  -7.117   0.761  0.00  0.00    +0.258 C 
ATOM     23  O   UNL     1       4.272  -7.095   0.823  0.00  0.00    -0.269 OA
ATOM     24  H   UNL     1       7.142  -5.989   0.528  0.00  0.00    +0.173 HD
BRANCH  22  25
ATOM     25  C   UNL     1       6.205  -8.389   0.888  0.00  0.00    +0.044 C 
ATOM     26  C   UNL     1       5.656  -9.639   1.073  0.00  0.00    +0.008 A 
ATOM     27  C   UNL     1       4.320 -10.097   1.195  0.00  0.00    +0.010 A 
ATOM     28  C   UNL     1       4.064 -11.410   1.374  0.00  0.00    +0.001 A 
ATOM     29  C   UNL     1       5.083 -12.374   1.448  0.00  0.00    +0.002 A 
ATOM     30  C   UNL     1       6.389 -12.043   1.343  0.00  0.00    +0.026 A 
ATOM     31  C   UNL     1       6.756 -10.632   1.145  0.00  0.00    +0.043 A 
ATOM     32  N   UNL     1       7.912 -10.044   1.014  0.00  0.00    -0.380 N 
ATOM     33  C   UNL     1       7.702  -8.604   0.836  0.00  0.00    +0.154 C 
ATOM     34  H   UNL     1       8.774 -10.488   1.030  0.00  0.00    +0.160 HD
ENDBRANCH  22  25
ENDBRANCH   3  21
TORSDOF 5
