REMARK  Name = ZINC38636133
REMARK  14 active torsions:
REMARK  status: ('A' for Active; 'I' for Inactive)
REMARK    1  A    between atoms: C_1  and  C_2
REMARK    2  A    between atoms: C_3  and  C_32
REMARK    3  A    between atoms: C_4  and  C_31
REMARK    4  A    between atoms: C_5  and  S_10
REMARK    5  A    between atoms: C_6  and  C_9
REMARK    6  A    between atoms: C_7  and  C_8
REMARK    7  A    between atoms: S_10  and  N_13
REMARK    8  A    between atoms: N_13  and  C_14
REMARK    9  A    between atoms: C_14  and  C_15
REMARK   10  A    between atoms: C_15  and  C_17
REMARK   11  A    between atoms: C_15  and  N_26
REMARK   12  A    between atoms: C_20  and  N_23
REMARK   13  A    between atoms: N_23  and  C_24
REMARK   14  A    between atoms: N_23  and  C_25
REMARK                            x       y       z     vdW  Elec       q    Type
REMARK                         _______ _______ _______ _____ _____    ______ ____
ROOT
ATOM      1  C   UNL     1       2.250  -3.050   2.180  0.00  0.00    +0.095 C 
ENDROOT
BRANCH   1   2
ATOM      2  N   UNL     1       1.365  -3.585   3.218  0.00  0.00    -0.191 NA
ATOM      3  H   UNL     1       1.702  -4.233   3.856  0.00  0.00    +0.148 HD
BRANCH   2   4
ATOM      4  S   UNL     1      -0.211  -3.083   3.301  0.00  0.00    +0.059 S 
ATOM      5  O   UNL     1      -0.189  -1.663   3.243  0.00  0.00    -0.153 OA
ATOM      6  O   UNL     1      -0.806  -3.792   4.379  0.00  0.00    -0.153 OA
BRANCH   4  11
ATOM      7  C   UNL     1      -2.950  -4.974  -1.731  0.00  0.00    +0.044 C 
ATOM      8  C   UNL     1      -2.266  -4.502  -0.474  0.00  0.00    -0.044 A 
ATOM      9  C   UNL     1      -1.683  -3.249  -0.434  0.00  0.00    -0.043 A 
ATOM     10  C   UNL     1      -1.055  -2.816   0.719  0.00  0.00    -0.021 A 
ATOM     11  C   UNL     1      -1.012  -3.635   1.832  0.00  0.00    +0.112 A 
ATOM     12  C   UNL     1      -1.596  -4.887   1.792  0.00  0.00    -0.021 A 
ATOM     13  C   UNL     1      -2.227  -5.319   0.640  0.00  0.00    -0.043 A 
ATOM     14  C   UNL     1      -2.869  -6.681   0.598  0.00  0.00    +0.044 C 
ATOM     15  C   UNL     1      -1.548  -5.780   3.005  0.00  0.00    +0.046 C 
ATOM     16  C   UNL     1      -0.418  -1.451   0.763  0.00  0.00    +0.046 C 
ATOM     17  C   UNL     1      -1.730  -2.356  -1.647  0.00  0.00    +0.044 C 
ENDBRANCH   4  11
ENDBRANCH   2   4
ENDBRANCH   1   2
BRANCH   1  18
ATOM     18  C   UNL     1       3.703  -3.381   2.528  0.00  0.00    -0.022 C 
BRANCH  18  19
ATOM     19  C   UNL     1       4.099  -2.645   3.782  0.00  0.00    -0.060 A 
ATOM     20  C   UNL     1       4.449  -1.309   3.717  0.00  0.00    +0.004 A 
ATOM     21  C   UNL     1       4.812  -0.632   4.865  0.00  0.00    +0.023 A 
ATOM     22  C   UNL     1       4.826  -1.295   6.085  0.00  0.00    +0.029 A 
ATOM     23  C   UNL     1       4.474  -2.637   6.147  0.00  0.00    +0.023 A 
ATOM     24  C   UNL     1       4.106  -3.306   4.997  0.00  0.00    +0.004 A 
BRANCH  22  25
ATOM     25  N   UNL     1       5.193  -0.613   7.248  0.00  0.00    -0.336 N 
ATOM     26  C   UNL     1       5.447   0.829   7.202  0.00  0.00    +0.129 C 
ATOM     27  C   UNL     1       5.325  -1.340   8.513  0.00  0.00    +0.129 C 
ENDBRANCH  22  25
ENDBRANCH  18  19
BRANCH  18  28
ATOM     28  N   UNL     1       4.577  -2.969   1.422  0.00  0.00    +0.385 N 
ATOM     29  C   UNL     1       5.973  -3.403   1.684  0.00  0.00    -0.078 C 
ATOM     30  C   UNL     1       6.610  -3.421   0.271  0.00  0.00    -0.020 C 
ATOM     31  C   UNL     1       5.459  -3.942  -0.620  0.00  0.00    -0.020 C 
ATOM     32  C   UNL     1       4.172  -3.646   0.171  0.00  0.00    -0.078 C 
ATOM     33  H   UNL     1       4.540  -1.967   1.303  0.00  0.00    -0.081 HD
ENDBRANCH  18  28
ENDBRANCH   1  18
TORSDOF 7
