REMARK  Name = ZINC22846549
REMARK  8 active torsions:
REMARK  status: ('A' for Active; 'I' for Inactive)
REMARK    1  A    between atoms: C_1  and  C_2
REMARK    2  A    between atoms: C_2  and  O_3
REMARK    3  A    between atoms: O_3  and  C_4
REMARK    4  A    between atoms: N_15  and  C_31
REMARK    5  A    between atoms: C_24  and  O_28
REMARK    6  A    between atoms: O_28  and  C_29
REMARK    7  A    between atoms: C_29  and  C_30
REMARK    8  A    between atoms: C_31  and  C_32
REMARK                            x       y       z     vdW  Elec       q    Type
REMARK                         _______ _______ _______ _____ _____    ______ ____
ROOT
ATOM      1  C   UNL     1       0.802  -1.825   1.306  0.00  0.00    +0.122 A 
ATOM      2  C   UNL     1       0.261  -2.683   0.353  0.00  0.00    +0.048 A 
ATOM      3  C   UNL     1       0.358  -4.044   0.479  0.00  0.00    +0.032 A 
ATOM      4  C   UNL     1       1.016  -4.623   1.588  0.00  0.00    +0.081 A 
ATOM      5  C   UNL     1       1.554  -3.724   2.536  0.00  0.00    +0.044 A 
ATOM      6  C   UNL     1       1.459  -2.361   2.404  0.00  0.00    +0.063 A 
ATOM      7  S   UNL     1       2.274  -4.822   3.733  0.00  0.00    -0.052 S 
ATOM      8  C   UNL     1       1.831  -6.355   2.928  0.00  0.00    +0.161 A 
ATOM      9  N   UNL     1       1.197  -5.936   1.857  0.00  0.00    -0.225 NA
ATOM     10  N   UNL     1       2.089  -7.650   3.331  0.00  0.00    -0.310 N 
ATOM     11  C   UNL     1       1.645  -8.796   2.524  0.00  0.00    +0.036 C 
ATOM     12  N   UNL     1       0.842  -9.694   3.366  0.00  0.00    +0.405 N 
ATOM     13  C   UNL     1       1.645 -10.159   4.505  0.00  0.00    +0.036 C 
ATOM     14  N   UNL     1       2.089  -8.995   5.286  0.00  0.00    -0.310 N 
ATOM     15  C   UNL     1       2.823  -7.925   4.578  0.00  0.00    +0.212 C 
ATOM     16  C   UNL     1       1.831  -8.906   6.640  0.00  0.00    +0.161 A 
ATOM     17  N   UNL     1       1.207  -9.761   7.417  0.00  0.00    -0.225 NA
ATOM     18  C   UNL     1       1.025  -9.542   8.739  0.00  0.00    +0.081 A 
ATOM     19  C   UNL     1       0.375 -10.374   9.679  0.00  0.00    +0.032 A 
ATOM     20  C   UNL     1       0.275 -10.002  10.994  0.00  0.00    +0.048 A 
ATOM     21  C   UNL     1       0.804  -8.800  11.451  0.00  0.00    +0.122 A 
ATOM     22  C   UNL     1       1.448  -7.960  10.554  0.00  0.00    +0.063 A 
ATOM     23  C   UNL     1       1.551  -8.329   9.236  0.00  0.00    +0.044 A 
ATOM     24  S   UNL     1       2.268  -7.602   7.781  0.00  0.00    -0.052 S 
ATOM     25  H   UNL     1       0.031  -9.199   3.706  0.00  0.00    -0.077 HD
ENDROOT
BRANCH   1  26
ATOM     26  O   UNL     1       0.693  -0.477   1.160  0.00  0.00    -0.492 OA
BRANCH  26  28
ATOM     27  C   UNL     1      -0.019   1.526   0.010  0.00  0.00    +0.048 C 
ATOM     28  C   UNL     1       0.002  -0.004   0.002  0.00  0.00    +0.225 C 
ENDBRANCH  26  28
ENDBRANCH   1  26
BRANCH  21  29
ATOM     29  O   UNL     1       0.691  -8.451  12.760  0.00  0.00    -0.492 OA
BRANCH  29  30
ATOM     30  C   UNL     1       0.013  -9.369  13.620  0.00  0.00    +0.225 C 
ATOM     31  C   UNL     1      -0.014  -8.810  15.044  0.00  0.00    +0.048 C 
ENDBRANCH  29  30
ENDBRANCH  21  29
BRANCH  12  32
ATOM     32  C   UNL     1       0.407 -10.851   2.571  0.00  0.00    +0.001 C 
BRANCH  32  33
ATOM     33  C   UNL     1      -0.516 -11.709   3.396  0.00  0.00    +0.089 A 
ATOM     34  C   UNL     1      -1.855 -11.590   3.458  0.00  0.00    +0.042 A 
ATOM     35  C   UNL     1      -2.314 -12.590   4.345  0.00  0.00    +0.041 A 
ATOM     36  C   UNL     1      -1.229 -13.261   4.771  0.00  0.00    +0.195 A 
ATOM     37  O   UNL     1      -0.144 -12.727   4.189  0.00  0.00    -0.470 OA
ENDBRANCH  32  33
ENDBRANCH  12  32
TORSDOF 6
