REMARK  Name = ZINC12479589
REMARK  13 active torsions:
REMARK  status: ('A' for Active; 'I' for Inactive)
REMARK    1  A    between atoms: C_1  and  C_2
REMARK    2  A    between atoms: C_5  and  C_8
REMARK    3  A    between atoms: C_8  and  C_10
REMARK    4  A    between atoms: C_8  and  N_18
REMARK    5  A    between atoms: N_12  and  C_13
REMARK    6  A    between atoms: C_13  and  C_14
REMARK    7  A    between atoms: C_14  and  C_15
REMARK    8  A    between atoms: C_15  and  C_16
REMARK    9  A    between atoms: C_15  and  C_17
REMARK   10  A    between atoms: N_18  and  C_19
REMARK   11  A    between atoms: C_26  and  C_28
REMARK   12  A    between atoms: C_29  and  N_36
REMARK   13  A    between atoms: C_30  and  C_33
REMARK                            x       y       z     vdW  Elec       q    Type
REMARK                         _______ _______ _______ _____ _____    ______ ____
ROOT
ATOM      1  N   UNL     1      -3.615   1.819   0.133  0.00  0.00    -0.248 N 
ATOM      2  C   UNL     1      -4.885   1.371   0.182  0.00  0.00    +0.262 C 
ATOM      3  O   UNL     1      -5.106   0.183   0.326  0.00  0.00    -0.269 OA
ENDROOT
BRANCH   1   4
ATOM      4  C   UNL     1      -3.361   3.186  -0.033  0.00  0.00    +0.073 A 
ATOM      5  C   UNL     1      -3.334   3.739  -1.306  0.00  0.00    +0.026 A 
ATOM      6  C   UNL     1      -3.083   5.088  -1.466  0.00  0.00    +0.002 A 
ATOM      7  C   UNL     1      -2.858   5.888  -0.361  0.00  0.00    +0.003 A 
ATOM      8  C   UNL     1      -2.884   5.342   0.909  0.00  0.00    +0.040 A 
ATOM      9  C   UNL     1      -3.140   3.993   1.077  0.00  0.00    +0.145 A 
ATOM     10  F   UNL     1      -3.171   3.460   2.318  0.00  0.00    -0.204 F 
ENDBRANCH   1   4
BRANCH   2  11
ATOM     11  C   UNL     1      -5.999   2.314   0.061  0.00  0.00    +0.116 A 
ATOM     12  C   UNL     1      -7.373   2.067   0.085  0.00  0.00    +0.076 A 
ATOM     13  C   UNL     1      -8.127   3.232  -0.060  0.00  0.00    +0.155 A 
ATOM     14  N   UNL     1      -7.510   4.385  -0.198  0.00  0.00    -0.203 NA
ATOM     15  S   UNL     1      -5.964   4.082  -0.146  0.00  0.00    +0.019 S 
BRANCH  13  16
ATOM     16  C   UNL     1      -9.600   3.171  -0.060  0.00  0.00    +0.262 C 
ATOM     17  O   UNL     1     -10.164   2.101   0.068  0.00  0.00    -0.269 OA
ATOM     18  N   UNL     1     -10.321   4.301  -0.201  0.00  0.00    -0.324 N 
ATOM     19  H   UNL     1      -9.871   5.154  -0.303  0.00  0.00    +0.145 HD
ATOM     20  H   UNL     1     -11.290   4.260  -0.201  0.00  0.00    +0.145 HD
ENDBRANCH  13  16
BRANCH  12  21
ATOM     21  N   UNL     1      -7.928   0.803   0.236  0.00  0.00    -0.355 N 
ATOM     22  H   UNL     1      -7.351   0.029   0.333  0.00  0.00    +0.142 HD
ATOM     23  H   UNL     1      -8.891   0.695   0.245  0.00  0.00    +0.142 HD
ENDBRANCH  12  21
ENDBRANCH   2  11
BRANCH   1  24
ATOM     24  C   UNL     1      -2.500   0.876   0.253  0.00  0.00    +0.198 C 
BRANCH  24  29
ATOM     25  C   UNL     1      -2.585  -2.785  -4.217  0.00  0.00    +0.044 C 
ATOM     26  C   UNL     1      -2.563  -1.830  -3.052  0.00  0.00    -0.050 A 
ATOM     27  C   UNL     1      -2.332  -2.305  -1.774  0.00  0.00    +0.004 A 
ATOM     28  C   UNL     1      -2.311  -1.429  -0.705  0.00  0.00    +0.006 A 
ATOM     29  C   UNL     1      -2.522  -0.079  -0.913  0.00  0.00    -0.018 A 
ATOM     30  C   UNL     1      -2.759   0.395  -2.190  0.00  0.00    +0.006 A 
ATOM     31  C   UNL     1      -2.775  -0.480  -3.260  0.00  0.00    +0.004 A 
ENDBRANCH  24  29
BRANCH  24  32
ATOM     32  C   UNL     1      -1.198   1.635   0.256  0.00  0.00    +0.238 C 
ATOM     33  O   UNL     1      -1.032   2.557  -0.514  0.00  0.00    -0.273 OA
ATOM     34  N   UNL     1      -0.218   1.289   1.114  0.00  0.00    -0.313 N 
ATOM     35  H   UNL     1      -0.351   0.551   1.730  0.00  0.00    +0.149 HD
BRANCH  34  36
ATOM     36  C   UNL     1       1.050   2.022   1.113  0.00  0.00    +0.104 C 
BRANCH  36  37
ATOM     37  C   UNL     1       1.984   1.428   2.169  0.00  0.00    +0.022 C 
BRANCH  37  38
ATOM     38  C   UNL     1       3.308   2.195   2.168  0.00  0.00    -0.016 C 
ATOM     39  C   UNL     1       3.062   3.638   2.611  0.00  0.00    +0.007 C 
ATOM     40  C   UNL     1       4.286   1.524   3.135  0.00  0.00    +0.007 C 
ENDBRANCH  37  38
ENDBRANCH  36  37
ENDBRANCH  34  36
ENDBRANCH  24  32
ENDBRANCH   1  24
TORSDOF 10
