REMARK  Name = ZINC39007661
REMARK  8 active torsions:
REMARK  status: ('A' for Active; 'I' for Inactive)
REMARK    1  A    between atoms: C_4  and  N_11
REMARK    2  A    between atoms: C_5  and  C_7
REMARK    3  A    between atoms: C_12  and  C_14
REMARK    4  A    between atoms: C_14  and  S_15
REMARK    5  A    between atoms: S_15  and  C_16
REMARK    6  A    between atoms: C_20  and  C_24
REMARK    7  A    between atoms: N_22  and  N_23
REMARK    8  A    between atoms: C_27  and  C_30
REMARK                            x       y       z     vdW  Elec       q    Type
REMARK                         _______ _______ _______ _____ _____    ______ ____
ROOT
ATOM      1  C   UNL     1       8.924  -0.540  -0.556  0.00  0.00    +0.214 C 
ATOM      2  N   UNL     1       8.804  -1.433  -1.731  0.00  0.00    -0.228 NA
ATOM      3  N   UNL     1       9.426  -2.694  -1.300  0.00  0.00    -0.234 NA
ATOM      4  C   UNL     1       9.004  -2.809   0.120  0.00  0.00    +0.185 C 
ATOM      5  N   UNL     1       9.051  -1.417   0.627  0.00  0.00    -0.197 NA
ATOM      6  H   UNL     1       7.836  -1.573  -1.981  0.00  0.00    +0.143 HD
ATOM      7  H   UNL     1       9.081  -3.471  -1.844  0.00  0.00    +0.143 HD
ENDROOT
BRANCH   4   8
ATOM      8  C   UNL     1       9.976  -3.698   0.898  0.00  0.00    +0.187 C 
ATOM      9  C   UNL     1      10.046  -5.084   0.281  0.00  0.00    +0.034 C 
ATOM     10  C   UNL     1       9.613  -5.896   1.264  0.00  0.00    +0.091 C 
ATOM     11  N   UNL     1       9.299  -5.175   2.372  0.00  0.00    -0.154 NA
ATOM     12  N   UNL     1       9.472  -3.956   2.256  0.00  0.00    -0.176 NA
BRANCH  10  13
ATOM     13  C   UNL     1       9.495  -7.371   1.153  0.00  0.00    +0.002 A 
ATOM     14  C   UNL     1       9.850  -8.013  -0.032  0.00  0.00    +0.011 A 
ATOM     15  C   UNL     1       9.738  -9.385  -0.130  0.00  0.00    +0.020 A 
ATOM     16  C   UNL     1       9.273 -10.123   0.945  0.00  0.00    +0.041 A 
ATOM     17  C   UNL     1       8.919  -9.490   2.124  0.00  0.00    +0.020 A 
ATOM     18  C   UNL     1       9.034  -8.119   2.235  0.00  0.00    +0.011 A 
ATOM     19 CL   UNL     1       9.134 -11.849   0.814  0.00  0.00    -0.084 Cl
ENDBRANCH  10  13
ENDBRANCH   4   8
BRANCH   5  20
ATOM     20  N   UNL     1      10.296  -1.161   1.334  0.00  0.00    -0.264 NA
ATOM     21  H   UNL     1      10.342  -0.203   1.649  0.00  0.00    +0.137 HD
ATOM     22  H   UNL     1      10.412  -1.801   2.105  0.00  0.00    +0.137 HD
ENDBRANCH   5  20
BRANCH   1  23
ATOM     23  S   UNL     1       7.441   0.494  -0.406  0.00  0.00    -0.115 S 
BRANCH  23  24
ATOM     24  C   UNL     1       6.083  -0.701  -0.278  0.00  0.00    +0.168 C 
BRANCH  24  26
ATOM     25  N   UNL     1       3.622  -0.651  -0.037  0.00  0.00    -0.284 N 
ATOM     26  C   UNL     1       4.775   0.037  -0.147  0.00  0.00    +0.227 C 
ATOM     27  O   UNL     1       4.761   1.250  -0.141  0.00  0.00    -0.275 OA
ATOM     28  H   UNL     1       3.639  -1.618   0.038  0.00  0.00    +0.155 HD
BRANCH  25  32
ATOM     29  C   UNL     1      -0.019   1.375  -0.023  0.00  0.00    +0.001 A 
ATOM     30  C   UNL     1       1.087   1.947  -0.626  0.00  0.00    +0.002 A 
ATOM     31  C   UNL     1       2.295   1.278  -0.633  0.00  0.00    +0.024 A 
ATOM     32  C   UNL     1       2.399   0.030  -0.032  0.00  0.00    +0.045 A 
ATOM     33  C   UNL     1       1.287  -0.541   0.573  0.00  0.00    +0.076 A 
ATOM     34  C   UNL     1       0.082   0.133   0.576  0.00  0.00    +0.014 A 
BRANCH  33  35
ATOM     35  C   UNL     1       1.396  -1.895   1.226  0.00  0.00    +0.419 C 
ATOM     36  F   UNL     1       0.155  -2.255   1.761  0.00  0.00    -0.166 F 
ATOM     37  F   UNL     1       1.785  -2.842   0.273  0.00  0.00    -0.166 F 
ATOM     38  F   UNL     1       2.349  -1.845   2.249  0.00  0.00    -0.166 F 
ENDBRANCH  33  35
ENDBRANCH  25  32
ENDBRANCH  24  26
ENDBRANCH  23  24
ENDBRANCH   1  23
TORSDOF 8
