REMARK  Name = ZINC13569929
REMARK  7 active torsions:
REMARK  status: ('A' for Active; 'I' for Inactive)
REMARK    1  A    between atoms: C_1  and  C_2
REMARK    2  A    between atoms: C_8  and  C_26
REMARK    3  A    between atoms: C_11  and  C_12
REMARK    4  A    between atoms: C_11  and  O_21
REMARK    5  A    between atoms: C_13  and  C_20
REMARK    6  A    between atoms: C_14  and  C_19
REMARK    7  A    between atoms: C_17  and  C_18
REMARK                            x       y       z     vdW  Elec       q    Type
REMARK                         _______ _______ _______ _____ _____    ______ ____
ROOT
ATOM      1  C   UNL     1       0.002  -0.004   0.002  0.00  0.00    +0.089 C 
ATOM      2  C   UNL     1      -0.018   1.503   0.010  0.00  0.00    +0.136 A 
ATOM      3  C   UNL     1      -1.114   2.296   0.019  0.00  0.00    +0.091 A 
ATOM      4  C   UNL     1      -0.583   3.613   0.026  0.00  0.00    +0.172 A 
ATOM      5  N   UNL     1       0.718   3.482   0.013  0.00  0.00    -0.063 NA
ATOM      6  O   UNL     1       1.046   2.318   0.004  0.00  0.00    -0.358 OA
ATOM      7  N   UNL     1      -1.303   4.806   0.039  0.00  0.00    -0.235 N 
ATOM      8  C   UNL     1      -2.760   4.921   0.156  0.00  0.00    +0.151 C 
ATOM      9  C   UNL     1      -3.081   6.397   0.124  0.00  0.00    +0.072 C 
ATOM     10  C   UNL     1      -4.335   6.977   0.205  0.00  0.00    +0.135 C 
ATOM     11  C   UNL     1      -1.855   7.060  -0.006  0.00  0.00    +0.249 C 
ATOM     12  O   UNL     1      -1.699   8.267  -0.068  0.00  0.00    -0.282 OA
ATOM     13  C   UNL     1      -0.776   6.039  -0.050  0.00  0.00    +0.293 C 
ATOM     14  O   UNL     1       0.409   6.283  -0.153  0.00  0.00    -0.266 OA
ENDROOT
BRANCH  10  15
ATOM     15  C   UNL     1      -4.473   8.437   0.158  0.00  0.00    +0.040 A 
ATOM     16  C   UNL     1      -5.045   9.237  -0.932  0.00  0.00    -0.019 A 
ATOM     17  C   UNL     1      -4.966  10.521  -0.543  0.00  0.00    +0.017 A 
ATOM     18  N   UNL     1      -4.394  10.579   0.695  0.00  0.00    -0.361 N 
ATOM     19  H   UNL     1      -4.229  11.397   1.190  0.00  0.00    +0.165 HD
ATOM     20  C   UNL     1      -4.096   9.341   1.133  0.00  0.00    +0.024 A 
ATOM     21  C   UNL     1      -3.460   9.001   2.456  0.00  0.00    +0.064 C 
ATOM     22  C   UNL     1      -5.436  11.707  -1.345  0.00  0.00    +0.063 C 
ATOM     23  C   UNL     1      -5.610   8.721  -2.231  0.00  0.00    +0.046 C 
ENDBRANCH  10  15
BRANCH   8  24
ATOM     24  C   UNL     1      -3.221   4.320   1.459  0.00  0.00    -0.022 A 
ATOM     25  C   UNL     1      -2.465   4.488   2.604  0.00  0.00    +0.007 A 
ATOM     26  C   UNL     1      -2.891   3.942   3.800  0.00  0.00    +0.020 A 
ATOM     27  C   UNL     1      -4.068   3.217   3.849  0.00  0.00    +0.041 A 
ATOM     28  C   UNL     1      -4.822   3.044   2.701  0.00  0.00    +0.020 A 
ATOM     29  C   UNL     1      -4.398   3.595   1.507  0.00  0.00    +0.007 A 
ATOM     30 CL   UNL     1      -4.600   2.525   5.349  0.00  0.00    -0.084 Cl
ENDBRANCH   8  24
BRANCH  10  31
ATOM     31  O   UNL     1      -5.432   6.199   0.328  0.00  0.00    -0.506 OA
ATOM     32  H   UNL     1      -6.247   6.777   0.373  0.00  0.00    +0.292 HD
ENDBRANCH  10  31
TORSDOF 3
