REMARK  Name = ZINC21882709
REMARK  14 active torsions:
REMARK  status: ('A' for Active; 'I' for Inactive)
REMARK    1  A    between atoms: C_1  and  C_2
REMARK    2  A    between atoms: C_2  and  C_3
REMARK    3  A    between atoms: C_3  and  C_5
REMARK    4  A    between atoms: C_3  and  S_17
REMARK    5  A    between atoms: N_7  and  C_8
REMARK    6  A    between atoms: C_9  and  C_16
REMARK    7  A    between atoms: C_11  and  C_15
REMARK    8  A    between atoms: C_13  and  C_14
REMARK    9  A    between atoms: S_17  and  C_18
REMARK   10  A    between atoms: C_22  and  C_25
REMARK   11  A    between atoms: C_27  and  C_36
REMARK   12  A    between atoms: C_30  and  N_31
REMARK   13  A    between atoms: C_32  and  C_34
REMARK   14  A    between atoms: C_34  and  C_35
REMARK                            x       y       z     vdW  Elec       q    Type
REMARK                         _______ _______ _______ _____ _____    ______ ____
ROOT
ATOM      1  C   UNL     1      -6.171   0.564   4.268  0.00  0.00    +0.213 A 
ATOM      2  N   UNL     1      -5.741   0.092   5.473  0.00  0.00    -0.180 NA
ATOM      3  C   UNL     1      -6.243   0.646   6.602  0.00  0.00    +0.300 A 
ATOM      4  O   UNL     1      -5.892   0.262   7.704  0.00  0.00    -0.263 OA
ATOM      5  C   UNL     1      -7.224   1.725   6.449  0.00  0.00    +0.161 A 
ATOM      6  N   UNL     1      -7.571   2.097   5.228  0.00  0.00    -0.141 NA
ATOM      7  N   UNL     1      -7.058   1.540   4.192  0.00  0.00    -0.122 NA
ENDROOT
BRANCH   5   8
ATOM      8  C   UNL     1      -7.818   2.380   7.636  0.00  0.00    +0.029 A 
ATOM      9  C   UNL     1      -9.181   2.248   7.901  0.00  0.00    +0.015 A 
ATOM     10  C   UNL     1      -9.728   2.856   9.011  0.00  0.00    -0.050 A 
ATOM     11  C   UNL     1      -8.931   3.602   9.863  0.00  0.00    +0.005 A 
ATOM     12  C   UNL     1      -7.581   3.746   9.608  0.00  0.00    +0.024 A 
ATOM     13  C   UNL     1      -7.016   3.141   8.496  0.00  0.00    +0.043 A 
ATOM     14  C   UNL     1     -11.200   2.708   9.299  0.00  0.00    +0.044 C 
BRANCH  13  15
ATOM     15  N   UNL     1      -5.650   3.285   8.236  0.00  0.00    -0.285 N 
ATOM     16  C   UNL     1      -4.799   3.570   9.242  0.00  0.00    +0.217 C 
ATOM     17  O   UNL     1      -5.202   3.599  10.386  0.00  0.00    -0.275 OA
ATOM     18  H   UNL     1      -5.269   3.166   7.211  0.00  0.00    +0.155 HD
BRANCH  16  19
ATOM     19  C   UNL     1      -3.349   3.851   8.946  0.00  0.00    +0.093 C 
ATOM     20  C   UNL     1      -2.609   4.143  10.253  0.00  0.00    +0.013 C 
ENDBRANCH  16  19
ENDBRANCH  13  15
ENDBRANCH   5   8
BRANCH   1  21
ATOM     21  S   UNL     1      -5.532  -0.141   2.785  0.00  0.00    -0.072 S 
BRANCH  21  22
ATOM     22  C   UNL     1      -6.313   0.939   1.561  0.00  0.00    +0.140 C 
BRANCH  22  23
ATOM     23  C   UNL     1      -7.795   0.667   1.525  0.00  0.00    +0.231 C 
ATOM     24  O   UNL     1      -8.231  -0.379   1.957  0.00  0.00    -0.274 OA
ATOM     25  N   UNL     1      -8.637   1.587   1.013  0.00  0.00    -0.284 N 
ATOM     26  H   UNL     1      -8.239   2.518   0.584  0.00  0.00    +0.155 HD
BRANCH  25  27
ATOM     27  C   UNL     1     -10.017   1.357   1.028  0.00  0.00    +0.039 A 
ATOM     28  C   UNL     1     -10.540   0.223   0.421  0.00  0.00    -0.029 A 
ATOM     29  C   UNL     1     -11.902  -0.004   0.443  0.00  0.00    +0.008 A 
ATOM     30  C   UNL     1     -12.746   0.903   1.057  0.00  0.00    -0.050 A 
ATOM     31  C   UNL     1     -12.229   2.037   1.656  0.00  0.00    +0.008 A 
ATOM     32  C   UNL     1     -10.867   2.267   1.643  0.00  0.00    -0.029 A 
ATOM     33  C   UNL     1     -10.304   3.502   2.298  0.00  0.00    +0.045 C 
ATOM     34  C   UNL     1     -14.233   0.656   1.073  0.00  0.00    +0.044 C 
ATOM     35  C   UNL     1      -9.622  -0.763  -0.254  0.00  0.00    +0.045 C 
ENDBRANCH  25  27
ENDBRANCH  22  23
BRANCH  22  37
ATOM     36  C   UNL     1      -4.230   1.050   0.187  0.00  0.00    +0.005 C 
ATOM     37  C   UNL     1      -5.711   0.666   0.182  0.00  0.00    +0.020 C 
ENDBRANCH  22  37
ENDBRANCH  21  22
ENDBRANCH   1  21
TORSDOF 8
