REMARK  Name = ZINC40544905
REMARK  5 active torsions:
REMARK  status: ('A' for Active; 'I' for Inactive)
REMARK    1  A    between atoms: C_5  and  N_8
REMARK    2  A    between atoms: N_11  and  C_12
REMARK    3  A    between atoms: C_12  and  C_13
REMARK    4  A    between atoms: N_15  and  C_16
REMARK    5  A    between atoms: C_16  and  C_17
REMARK                            x       y       z     vdW  Elec       q    Type
REMARK                         _______ _______ _______ _____ _____    ______ ____
ROOT
ATOM      1  N   UNL     1       1.237  -2.081  -0.022  0.00  0.00    -0.267 N 
ATOM      2  C   UNL     1       0.155  -2.775   0.384  0.00  0.00    +0.304 C 
ATOM      3  O   UNL     1      -0.870  -2.188   0.671  0.00  0.00    -0.252 OA
ATOM      4  N   UNL     1       0.210  -4.119   0.471  0.00  0.00    -0.291 N 
ATOM      5  H   UNL     1       2.031  -2.552  -0.320  0.00  0.00    +0.156 HD
ATOM      6  H   UNL     1       1.029  -4.587   0.242  0.00  0.00    +0.151 HD
ENDROOT
BRANCH   1  11
ATOM      7  C   UNL     1       0.782   1.397  -1.133  0.00  0.00    +0.032 A 
ATOM      8  C   UNL     1       1.172   2.087   0.002  0.00  0.00    +0.020 A 
ATOM      9  C   UNL     1       1.583   1.397   1.128  0.00  0.00    +0.032 A 
ATOM     10  C   UNL     1       1.605   0.015   1.123  0.00  0.00    +0.041 A 
ATOM     11  C   UNL     1       1.215  -0.681  -0.014  0.00  0.00    +0.063 A 
ATOM     12  C   UNL     1       0.802   0.015  -1.143  0.00  0.00    +0.041 A 
ATOM     13 BR   UNL     1       0.270  -0.927  -2.694  0.00  0.00    -0.048 Br
ATOM     14 BR   UNL     1       2.168  -0.928   2.663  0.00  0.00    -0.048 Br
ATOM     15 BR   UNL     1       1.143   3.978   0.012  0.00  0.00    -0.050 Br
ENDBRANCH   1  11
BRANCH   4  16
ATOM     16  C   UNL     1      -0.966  -4.873   0.912  0.00  0.00    +0.201 C 
BRANCH  16  17
ATOM     17  C   UNL     1      -0.643  -6.345   0.924  0.00  0.00    +0.231 C 
ATOM     18  O   UNL     1       0.460  -6.726   0.595  0.00  0.00    -0.274 OA
ATOM     19  N   UNL     1      -1.581  -7.237   1.298  0.00  0.00    -0.303 N 
ATOM     20  H   UNL     1      -2.464  -6.932   1.561  0.00  0.00    +0.149 HD
BRANCH  19  21
ATOM     21  C   UNL     1      -1.268  -8.668   1.309  0.00  0.00    +0.229 C 
BRANCH  21  22
ATOM     22  C   UNL     1      -2.478  -9.444   1.763  0.00  0.00    +0.373 C 
ATOM     23  O   UNL     1      -3.507  -8.856   2.050  0.00  0.00    -0.245 OA
ATOM     24  O   UNL     1      -2.428 -10.659   1.842  0.00  0.00    -0.245 OA
ENDBRANCH  21  22
ENDBRANCH  19  21
ENDBRANCH  16  17
ENDBRANCH   4  16
TORSDOF 5
