REMARK  Name = ZINC32594608
REMARK  3 active torsions:
REMARK  status: ('A' for Active; 'I' for Inactive)
REMARK    1  A    between atoms: C_1  and  C_2
REMARK    2  A    between atoms: C_2  and  C_27
REMARK    3  A    between atoms: N_17  and  C_20
REMARK                            x       y       z     vdW  Elec       q    Type
REMARK                         _______ _______ _______ _____ _____    ______ ____
ROOT
ATOM      1  C   UNL     1      -0.019   1.526   0.010  0.00  0.00    +0.017 C 
ATOM      2  C   UNL     1       0.002  -0.004   0.002  0.00  0.00    +0.012 C 
ATOM      3  C   UNL     1      -1.396  -0.488  -0.136  0.00  0.00    +0.031 A 
ATOM      4  C   UNL     1      -2.029  -1.444   0.568  0.00  0.00    +0.088 A 
ATOM      5  N   UNL     1      -3.327  -1.688   0.176  0.00  0.00    -0.311 N 
ATOM      6  H   UNL     1      -3.846  -2.376   0.621  0.00  0.00    +0.170 HD
ATOM      7  C   UNL     1      -3.875  -0.972  -0.822  0.00  0.00    +0.289 A 
ATOM      8  O   UNL     1      -5.000  -1.055  -1.282  0.00  0.00    -0.260 OA
ATOM      9  S   UNL     1      -2.634   0.065  -1.282  0.00  0.00    -0.030 S 
ATOM     10  S   UNL     1      -1.228  -2.285   1.908  0.00  0.00    -0.093 S 
ATOM     11  C   UNL     1       0.539  -1.922   1.655  0.00  0.00    +0.152 C 
ATOM     12  C   UNL     1       0.723  -0.465   1.211  0.00  0.00    +0.109 C 
ATOM     13  C   UNL     1       0.584   0.308   2.485  0.00  0.00    +0.232 C 
ATOM     14  O   UNL     1       0.208   1.454   2.607  0.00  0.00    -0.274 OA
ATOM     15  N   UNL     1       0.964  -0.536   3.474  0.00  0.00    -0.209 N 
ATOM     16  C   UNL     1       1.138  -1.809   3.068  0.00  0.00    +0.240 C 
ATOM     17  O   UNL     1       1.667  -2.699   3.698  0.00  0.00    -0.274 OA
ATOM     18  C   UNL     1       0.787  -0.463  -1.228  0.00  0.00    +0.017 C 
ENDROOT
BRANCH  15  19
ATOM     19  C   UNL     1       1.159  -0.122   4.801  0.00  0.00    +0.044 A 
ATOM     20  C   UNL     1       0.957   1.206   5.151  0.00  0.00    +0.027 A 
ATOM     21  C   UNL     1       1.149   1.612   6.457  0.00  0.00    +0.040 A 
ATOM     22  C   UNL     1       1.544   0.695   7.417  0.00  0.00    +0.124 A 
ATOM     23  C   UNL     1       1.746  -0.630   7.069  0.00  0.00    +0.040 A 
ATOM     24  C   UNL     1       1.549  -1.041   5.765  0.00  0.00    +0.027 A 
ATOM     25  F   UNL     1       1.733   1.093   8.694  0.00  0.00    -0.205 F 
ENDBRANCH  15  19
TORSDOF 1
