REMARK  Name = ZINC59352879
REMARK  6 active torsions:
REMARK  status: ('A' for Active; 'I' for Inactive)
REMARK    1  A    between atoms: C_9  and  S_12
REMARK    2  A    between atoms: S_12  and  C_13
REMARK    3  A    between atoms: C_13  and  C_14
REMARK    4  A    between atoms: N_16  and  C_17
REMARK    5  A    between atoms: C_19  and  C_26
REMARK    6  A    between atoms: C_21  and  C_23
REMARK                            x       y       z     vdW  Elec       q    Type
REMARK                         _______ _______ _______ _____ _____    ______ ____
ROOT
ATOM      1  C   UNL     1       8.152  -1.235  -0.083  0.00  0.00    +0.227 C 
ATOM      2  O   UNL     1       8.867  -0.255  -0.093  0.00  0.00    -0.275 OA
ATOM      3  N   UNL     1       8.698  -2.467  -0.093  0.00  0.00    -0.285 N 
ATOM      4  H   UNL     1       8.130  -3.250  -0.018  0.00  0.00    +0.155 HD
ENDROOT
BRANCH   3   5
ATOM      5  C   UNL     1      10.084  -2.618  -0.213  0.00  0.00    +0.035 A 
ATOM      6  C   UNL     1      10.934  -1.696   0.381  0.00  0.00    +0.038 A 
ATOM      7  C   UNL     1      12.319  -1.843   0.265  0.00  0.00    +0.066 A 
ATOM      8  C   UNL     1      12.846  -2.918  -0.450  0.00  0.00    +0.030 A 
ATOM      9  C   UNL     1      11.989  -3.842  -1.045  0.00  0.00    +0.066 A 
ATOM     10  C   UNL     1      10.605  -3.691  -0.920  0.00  0.00    +0.038 A 
BRANCH   9  11
ATOM     11  C   UNL     1      12.542  -4.981  -1.803  0.00  0.00    +0.387 C 
ATOM     12  O   UNL     1      13.753  -5.115  -1.909  0.00  0.00    -0.241 OA
ATOM     13  O   UNL     1      11.789  -5.792  -2.325  0.00  0.00    -0.241 OA
ENDBRANCH   9  11
BRANCH   7  14
ATOM     14  C   UNL     1      13.221  -0.861   0.896  0.00  0.00    +0.387 C 
ATOM     15  O   UNL     1      12.758   0.082   1.522  0.00  0.00    -0.241 OA
ATOM     16  O   UNL     1      14.433  -0.990   0.793  0.00  0.00    -0.241 OA
ENDBRANCH   7  14
ENDBRANCH   3   5
BRANCH   1  17
ATOM     17  C   UNL     1       6.654  -1.075  -0.060  0.00  0.00    +0.173 C 
BRANCH  17  18
ATOM     18  S   UNL     1       6.234   0.690  -0.051  0.00  0.00    -0.079 S 
BRANCH  18  27
ATOM     19  C   UNL     1      -0.017   1.382   0.048  0.00  0.00    +0.022 A 
ATOM     20  C   UNL     1       1.163   2.097   0.030  0.00  0.00    +0.029 A 
ATOM     21  C   UNL     1       2.377   1.427   0.010  0.00  0.00    +0.067 A 
ATOM     22  C   UNL     1       2.402   0.022   0.008  0.00  0.00    +0.091 A 
ATOM     23  C   UNL     1       1.200  -0.688   0.026  0.00  0.00    +0.050 A 
ATOM     24  C   UNL     1       0.002  -0.005   0.046  0.00  0.00    +0.043 A 
ATOM     25 CL   UNL     1      -1.492  -0.888   0.069  0.00  0.00    -0.083 Cl
ATOM     26  N   UNL     1       3.708  -0.354  -0.013  0.00  0.00    -0.222 NA
ATOM     27  C   UNL     1       4.473   0.710  -0.024  0.00  0.00    +0.168 A 
ATOM     28  N   UNL     1       3.700   1.837  -0.011  0.00  0.00    -0.333 N 
ATOM     29  H   UNL     1       4.019   2.753  -0.015  0.00  0.00    +0.168 HD
ENDBRANCH  18  27
ENDBRANCH  17  18
ENDBRANCH   1  17
TORSDOF 6
