REMARK  Name = ZINC13827646
REMARK  13 active torsions:
REMARK  status: ('A' for Active; 'I' for Inactive)
REMARK    1  A    between atoms: C_3  and  O_38
REMARK    2  A    between atoms: C_4  and  O_37
REMARK    3  A    between atoms: C_6  and  C_7
REMARK    4  A    between atoms: C_8  and  O_20
REMARK    5  A    between atoms: C_12  and  O_19
REMARK    6  A    between atoms: C_14  and  O_18
REMARK    7  A    between atoms: O_20  and  C_21
REMARK    8  A    between atoms: C_23  and  O_36
REMARK    9  A    between atoms: C_25  and  O_35
REMARK   10  A    between atoms: C_27  and  C_30
REMARK   11  A    between atoms: C_30  and  C_32
REMARK   12  A    between atoms: C_30  and  O_34
REMARK   13  A    between atoms: C_32  and  O_33
REMARK                            x       y       z     vdW  Elec       q    Type
REMARK                         _______ _______ _______ _____ _____    ______ ____
ROOT
ATOM      1  C   UNL     1      -1.410  -0.829  -0.061  0.00  0.00    +0.181 A 
ATOM      2  C   UNL     1      -2.520  -0.076   0.180  0.00  0.00    +0.214 A 
ATOM      3  C   UNL     1      -3.769  -0.719   0.382  0.00  0.00    +0.238 A 
ATOM      4  O   UNL     1      -4.784  -0.077   0.601  0.00  0.00    -0.283 OA
ATOM      5  C   UNL     1      -3.792  -2.189   0.318  0.00  0.00    +0.109 A 
ATOM      6  C   UNL     1      -4.982  -2.906   0.505  0.00  0.00    +0.135 A 
ATOM      7  C   UNL     1      -4.963  -4.286   0.437  0.00  0.00    +0.091 A 
ATOM      8  C   UNL     1      -3.770  -4.957   0.184  0.00  0.00    +0.124 A 
ATOM      9  C   UNL     1      -2.590  -4.255  -0.002  0.00  0.00    +0.092 A 
ATOM     10  C   UNL     1      -2.589  -2.869   0.062  0.00  0.00    +0.147 A 
ATOM     11  O   UNL     1      -1.449  -2.171  -0.122  0.00  0.00    -0.451 OA
ENDROOT
BRANCH   1  17
ATOM     12  C   UNL     1       0.694  -0.499  -1.349  0.00  0.00    +0.015 A 
ATOM     13  C   UNL     1       1.900   0.141  -1.541  0.00  0.00    +0.050 A 
ATOM     14  C   UNL     1       2.308   1.136  -0.665  0.00  0.00    +0.158 A 
ATOM     15  C   UNL     1       1.501   1.494   0.414  0.00  0.00    +0.159 A 
ATOM     16  C   UNL     1       0.292   0.857   0.613  0.00  0.00    +0.060 A 
ATOM     17  C   UNL     1      -0.120  -0.146  -0.269  0.00  0.00    +0.025 A 
BRANCH  15  18
ATOM     18  O   UNL     1       1.905   2.470   1.270  0.00  0.00    -0.503 OA
ATOM     19  H   UNL     1       1.620   3.359   1.016  0.00  0.00    +0.292 HD
ENDBRANCH  15  18
BRANCH  14  20
ATOM     20  O   UNL     1       3.498   1.763  -0.859  0.00  0.00    -0.503 OA
ATOM     21  H   UNL     1       3.441   2.551  -1.417  0.00  0.00    +0.292 HD
ENDBRANCH  14  20
ENDBRANCH   1  17
BRANCH   8  22
ATOM     22  O   UNL     1      -3.763  -6.313   0.119  0.00  0.00    -0.507 OA
ATOM     23  H   UNL     1      -3.922  -6.665  -0.767  0.00  0.00    +0.292 HD
ENDBRANCH   8  22
BRANCH   6  24
ATOM     24  O   UNL     1      -6.144  -2.249   0.752  0.00  0.00    -0.506 OA
ATOM     25  H   UNL     1      -6.642  -2.018  -0.044  0.00  0.00    +0.292 HD
ENDBRANCH   6  24
BRANCH   2  26
ATOM     26  O   UNL     1      -2.431   1.281   0.228  0.00  0.00    -0.453 OA
BRANCH  26  27
ATOM     27  C   UNL     1      -3.122   2.012  -0.788  0.00  0.00    +0.340 C 
ATOM     28  C   UNL     1      -2.986   3.531  -0.543  0.00  0.00    +0.214 C 
ATOM     29  C   UNL     1      -2.854   4.130  -1.961  0.00  0.00    +0.180 C 
ATOM     30  C   UNL     1      -2.925   2.901  -2.895  0.00  0.00    +0.184 C 
ATOM     31  O   UNL     1      -2.507   1.787  -2.075  0.00  0.00    -0.331 OA
BRANCH  29  32
ATOM     32  O   UNL     1      -1.600   4.801  -2.106  0.00  0.00    -0.386 OA
ATOM     33  H   UNL     1      -1.480   5.545  -1.500  0.00  0.00    +0.210 HD
ENDBRANCH  29  32
BRANCH  28  34
ATOM     34  O   UNL     1      -4.151   4.039   0.111  0.00  0.00    -0.383 OA
ATOM     35  H   UNL     1      -4.314   3.651   0.982  0.00  0.00    +0.210 HD
ENDBRANCH  28  34
BRANCH  30  36
ATOM     36  C   UNL     1      -1.975   3.079  -4.082  0.00  0.00    +0.171 C 
BRANCH  36  37
ATOM     37  O   UNL     1      -2.346   4.246  -4.818  0.00  0.00    -0.387 OA
ATOM     38  H   UNL     1      -3.245   4.218  -5.174  0.00  0.00    +0.210 HD
ENDBRANCH  36  37
BRANCH  36  39
ATOM     39  C   UNL     1      -2.062   1.853  -4.992  0.00  0.00    +0.189 C 
BRANCH  39  40
ATOM     40  O   UNL     1      -1.093   1.965  -6.036  0.00  0.00    -0.392 OA
ATOM     41  H   UNL     1      -1.091   1.220  -6.653  0.00  0.00    +0.210 HD
ENDBRANCH  39  40
ENDBRANCH  36  39
ENDBRANCH  30  36
ENDBRANCH  26  27
ENDBRANCH   2  26
TORSDOF 13
