REMARK  Name = ZINC08118138
REMARK  10 active torsions:
REMARK  status: ('A' for Active; 'I' for Inactive)
REMARK    1  A    between atoms: C_1  and  C_2
REMARK    2  A    between atoms: C_3  and  C_14
REMARK    3  A    between atoms: C_4  and  C_13
REMARK    4  A    between atoms: C_6  and  S_8
REMARK    5  A    between atoms: S_8  and  C_9
REMARK    6  A    between atoms: C_9  and  C_10
REMARK    7  A    between atoms: C_14  and  C_15
REMARK    8  A    between atoms: C_15  and  C_16
REMARK    9  A    between atoms: C_16  and  N_18
REMARK   10  A    between atoms: N_20  and  C_28
REMARK                            x       y       z     vdW  Elec       q    Type
REMARK                         _______ _______ _______ _____ _____    ______ ____
ROOT
ATOM      1  C   UNL     1      -4.328  10.992   2.618  0.00  0.00    +0.066 C 
ATOM      2  C   UNL     1      -4.862  11.509   1.307  0.00  0.00    +0.046 A 
ATOM      3  C   UNL     1      -4.369  11.021   0.107  0.00  0.00    -0.005 A 
ATOM      4  C   UNL     1      -4.883  11.527  -1.076  0.00  0.00    +0.046 A 
ATOM      5  N   UNL     1      -5.830  12.448  -1.026  0.00  0.00    -0.227 NA
ATOM      6  C   UNL     1      -6.281  12.895   0.138  0.00  0.00    +0.189 A 
ATOM      7  N   UNL     1      -5.807  12.435   1.287  0.00  0.00    -0.227 NA
ATOM      8  C   UNL     1      -4.372  11.030  -2.404  0.00  0.00    +0.066 C 
ENDROOT
BRANCH   6   9
ATOM      9  S   UNL     1      -7.539  14.128   0.158  0.00  0.00    -0.077 S 
BRANCH   9  10
ATOM     10  C   UNL     1      -7.782  14.358  -1.621  0.00  0.00    +0.172 C 
BRANCH  10  11
ATOM     11  C   UNL     1      -8.846  15.400  -1.852  0.00  0.00    +0.221 C 
ATOM     12  O   UNL     1      -9.387  15.934  -0.907  0.00  0.00    -0.275 OA
ATOM     13  N   UNL     1      -9.196  15.738  -3.108  0.00  0.00    -0.329 N 
ATOM     14  H   UNL     1      -8.764  15.311  -3.864  0.00  0.00    +0.145 HD
ATOM     15  H   UNL     1      -9.881  16.409  -3.257  0.00  0.00    +0.145 HD
ENDBRANCH  10  11
ENDBRANCH   9  10
ENDBRANCH   6   9
BRANCH   3  16
ATOM     16  C   UNL     1      -3.293   9.966   0.090  0.00  0.00    +0.048 C 
BRANCH  16  17
ATOM     17  C   UNL     1      -3.938   8.579   0.089  0.00  0.00    +0.103 C 
BRANCH  17  18
ATOM     18  C   UNL     1      -2.862   7.524   0.072  0.00  0.00    +0.239 C 
ATOM     19  O   UNL     1      -1.691   7.850   0.061  0.00  0.00    -0.274 OA
BRANCH  18  20
ATOM     20  N   UNL     1      -3.193   6.237   0.068  0.00  0.00    -0.156 NA
ATOM     21  C   UNL     1      -2.243   5.305   0.052  0.00  0.00    +0.166 A 
ATOM     22  N   UNL     1      -2.387   3.953   0.046  0.00  0.00    -0.324 N 
ATOM     23  C   UNL     1      -1.272   3.137   0.031  0.00  0.00    +0.057 A 
ATOM     24  C   UNL     1      -1.219   1.734   0.017  0.00  0.00    +0.027 A 
ATOM     25  C   UNL     1      -0.013   1.076   0.008  0.00  0.00    +0.002 A 
ATOM     26  C   UNL     1       1.185   1.772   0.000  0.00  0.00    +0.001 A 
ATOM     27  C   UNL     1       1.163   3.155   0.008  0.00  0.00    +0.017 A 
ATOM     28  C   UNL     1      -0.044   3.814   0.023  0.00  0.00    +0.039 A 
ATOM     29  S   UNL     1      -0.522   5.524   0.037  0.00  0.00    -0.052 S 
ATOM     30  C   UNL     1      -3.727   3.361   0.056  0.00  0.00    +0.151 C 
ENDBRANCH  18  20
ENDBRANCH  17  18
ENDBRANCH  16  17
ENDBRANCH   3  16
TORSDOF 7
