REMARK  Name = ZINC19627878
REMARK  6 active torsions:
REMARK  status: ('A' for Active; 'I' for Inactive)
REMARK    1  A    between atoms: C_1  and  C_2
REMARK    2  A    between atoms: C_4  and  O_5
REMARK    3  A    between atoms: C_14  and  C_16
REMARK    4  A    between atoms: C_18  and  C_34
REMARK    5  A    between atoms: C_22  and  C_33
REMARK    6  A    between atoms: N_24  and  C_25
REMARK                            x       y       z     vdW  Elec       q    Type
REMARK                         _______ _______ _______ _____ _____    ______ ____
ROOT
ATOM      1  C   UNL     1       3.709  -0.937   0.632  0.00  0.00    +0.051 A 
ATOM      2  C   UNL     1       4.879  -0.224   0.886  0.00  0.00    +0.037 A 
ATOM      3  C   UNL     1       6.098  -0.884   0.855  0.00  0.00    +0.047 A 
ATOM      4  N   UNL     1       6.181  -2.169   0.590  0.00  0.00    -0.232 NA
ATOM      5  C   UNL     1       5.107  -2.904   0.339  0.00  0.00    +0.160 A 
ATOM      6  C   UNL     1       3.825  -2.317   0.356  0.00  0.00    +0.054 A 
ATOM      7  C   UNL     1       2.898  -3.336   0.051  0.00  0.00    +0.070 A 
ATOM      8  N   UNL     1       3.548  -4.450  -0.127  0.00  0.00    -0.174 NA
ATOM      9  N   UNL     1       4.920  -4.229   0.041  0.00  0.00    -0.241 N 
ATOM     10  C   UNL     1       1.404  -3.165  -0.045  0.00  0.00    +0.068 C 
ENDROOT
BRANCH   1  23
ATOM     11  C   UNL     1      -3.160   4.583  -0.505  0.00  0.00    +0.045 C 
ATOM     12  C   UNL     1      -2.674   3.654   0.578  0.00  0.00    -0.033 A 
ATOM     13  C   UNL     1      -3.415   3.437   1.695  0.00  0.00    +0.091 A 
ATOM     14  C   UNL     1      -2.939   2.564   2.694  0.00  0.00    +0.285 A 
ATOM     15  O   UNL     1      -1.760   1.933   2.576  0.00  0.00    -0.425 OA
ATOM     16  C   UNL     1      -0.975   2.104   1.490  0.00  0.00    +0.141 A 
ATOM     17  C   UNL     1      -1.389   2.962   0.454  0.00  0.00    +0.021 A 
ATOM     18  C   UNL     1      -0.576   3.148  -0.670  0.00  0.00    +0.013 A 
ATOM     19  C   UNL     1       0.614   2.487  -0.763  0.00  0.00    +0.024 A 
ATOM     20  C   UNL     1       1.031   1.635   0.260  0.00  0.00    +0.037 A 
ATOM     21  C   UNL     1       0.239   1.444   1.383  0.00  0.00    +0.070 A 
ATOM     22  N   UNL     1       2.252   0.971   0.153  0.00  0.00    -0.281 N 
ATOM     23  C   UNL     1       2.389  -0.272   0.656  0.00  0.00    +0.249 C 
ATOM     24  O   UNL     1       1.428  -0.846   1.129  0.00  0.00    -0.270 OA
ATOM     25  H   UNL     1       3.103   1.462  -0.342  0.00  0.00    +0.155 HD
BRANCH  14  26
ATOM     26  O   UNL     1      -3.614   2.378   3.691  0.00  0.00    -0.480 OA
ATOM     27  H   UNL     1      -3.255   1.699   4.479  0.00  0.00    +0.295 HD
ENDBRANCH  14  26
ENDBRANCH   1  23
BRANCH   9  28
ATOM     28  C   UNL     1       5.974  -5.239  -0.079  0.00  0.00    +0.132 C 
ATOM     29  C   UNL     1       5.740  -6.359   0.949  0.00  0.00    +0.051 C 
ATOM     30  C   UNL     1       6.644  -7.572   0.623  0.00  0.00    +0.168 C 
ATOM     31  S   UNL     1       6.864  -7.435  -1.198  0.00  0.00    -0.029 S 
ATOM     32  O   UNL     1       8.239  -7.220  -1.483  0.00  0.00    -0.174 OA
ATOM     33  O   UNL     1       6.177  -8.508  -1.828  0.00  0.00    -0.174 OA
ATOM     34  C   UNL     1       5.937  -5.871  -1.500  0.00  0.00    +0.192 C 
ENDBRANCH   9  28
BRANCH   3  35
ATOM     35  C   UNL     1       7.360  -0.108   1.131  0.00  0.00    +0.038 C 
ATOM     36  C   UNL     1       7.283   1.418   1.055  0.00  0.00    +0.010 C 
ATOM     37  C   UNL     1       8.005   0.632  -0.042  0.00  0.00    +0.010 C 
ENDBRANCH   3  35
TORSDOF 4
