REMARK  Name = ZINC66939581
REMARK  8 active torsions:
REMARK  status: ('A' for Active; 'I' for Inactive)
REMARK    1  A    between atoms: C_1  and  C_2
REMARK    2  A    between atoms: C_2  and  C_4
REMARK    3  A    between atoms: C_2  and  N_17
REMARK    4  A    between atoms: C_7  and  N_10
REMARK    5  A    between atoms: N_13  and  C_14
REMARK    6  A    between atoms: N_17  and  C_18
REMARK    7  A    between atoms: C_18  and  C_20
REMARK    8  A    between atoms: C_18  and  C_27
REMARK                            x       y       z     vdW  Elec       q    Type
REMARK                         _______ _______ _______ _____ _____    ______ ____
ROOT
ATOM      1  C   UNL     1      -0.644   1.898   0.519  0.00  0.00    -0.009 C 
ATOM      2  C   UNL     1       0.075   0.585   0.200  0.00  0.00    -0.043 C 
ENDROOT
BRANCH   2   3
ATOM      3  C   UNL     1       0.921   0.763  -1.033  0.00  0.00    -0.061 A 
ATOM      4  C   UNL     1       2.159   1.372  -0.939  0.00  0.00    +0.004 A 
ATOM      5  C   UNL     1       2.938   1.537  -2.068  0.00  0.00    +0.023 A 
ATOM      6  C   UNL     1       2.476   1.090  -3.299  0.00  0.00    +0.035 A 
ATOM      7  C   UNL     1       1.233   0.478  -3.390  0.00  0.00    +0.023 A 
ATOM      8  C   UNL     1       0.462   0.312  -2.257  0.00  0.00    +0.004 A 
BRANCH   6   9
ATOM      9  N   UNL     1       3.262   1.255  -4.445  0.00  0.00    -0.269 N 
ATOM     10  C   UNL     1       4.604   1.151  -4.362  0.00  0.00    +0.304 C 
ATOM     11  O   UNL     1       5.136   0.992  -3.281  0.00  0.00    -0.253 OA
ATOM     12  N   UNL     1       5.355   1.224  -5.479  0.00  0.00    -0.296 N 
ATOM     13  H   UNL     1       2.842   1.445  -5.298  0.00  0.00    +0.156 HD
ATOM     14  H   UNL     1       4.930   1.352  -6.342  0.00  0.00    +0.151 HD
BRANCH  12  15
ATOM     15  C   UNL     1       6.813   1.111  -5.390  0.00  0.00    +0.075 C 
ATOM     16  C   UNL     1       7.649   2.090  -6.216  0.00  0.00    +0.024 C 
ATOM     17  C   UNL     1       7.561   0.620  -6.631  0.00  0.00    +0.024 C 
ENDBRANCH  12  15
ENDBRANCH   6   9
ENDBRANCH   2   3
BRANCH   2  18
ATOM     18  N   UNL     1       0.932   0.209   1.333  0.00  0.00    +0.394 N 
ATOM     19  H   UNL     1       1.479  -0.602   1.085  0.00  0.00    -0.083 HD
ATOM     20  H   UNL     1       1.548   0.975   1.557  0.00  0.00    -0.083 HD
BRANCH  18  21
ATOM     21  C   UNL     1       0.094  -0.103   2.498  0.00  0.00    +0.047 C 
BRANCH  21  22
ATOM     22  C   UNL     1      -0.726  -1.335   2.212  0.00  0.00    -0.053 A 
ATOM     23  C   UNL     1      -0.160  -2.401   1.538  0.00  0.00    +0.005 A 
ATOM     24  C   UNL     1      -0.911  -3.530   1.275  0.00  0.00    +0.038 A 
ATOM     25  C   UNL     1      -2.232  -3.595   1.687  0.00  0.00    +0.123 A 
ATOM     26  C   UNL     1      -2.797  -2.526   2.362  0.00  0.00    +0.038 A 
ATOM     27  C   UNL     1      -2.043  -1.400   2.629  0.00  0.00    +0.005 A 
ATOM     28  F   UNL     1      -2.967  -4.698   1.431  0.00  0.00    -0.205 F 
ENDBRANCH  21  22
BRANCH  21  29
ATOM     29  C   UNL     1       0.974  -0.353   3.696  0.00  0.00    +0.201 C 
ATOM     30  O   UNL     1       2.140  -0.646   3.542  0.00  0.00    -0.277 OA
ATOM     31  N   UNL     1       0.464  -0.251   4.940  0.00  0.00    -0.330 N 
ATOM     32  H   UNL     1      -0.469  -0.017   5.063  0.00  0.00    +0.145 HD
ATOM     33  H   UNL     1       1.030  -0.412   5.711  0.00  0.00    +0.145 HD
ENDBRANCH  21  29
ENDBRANCH  18  21
ENDBRANCH   2  18
TORSDOF 7
