REMARK  Name = ZINC62815631
REMARK  3 active torsions:
REMARK  status: ('A' for Active; 'I' for Inactive)
REMARK    1  A    between atoms: C_1  and  C_2
REMARK    2  A    between atoms: C_6  and  C_10
REMARK    3  A    between atoms: N_12  and  C_13
REMARK                            x       y       z     vdW  Elec       q    Type
REMARK                         _______ _______ _______ _____ _____    ______ ____
ROOT
ATOM      1  C   UNL     1       1.433  -3.977  -0.069  0.00  0.00    +0.232 C 
ATOM      2  O   UNL     1       0.623  -4.574  -0.746  0.00  0.00    -0.274 OA
ATOM      3  N   UNL     1       2.316  -4.661   0.685  0.00  0.00    -0.282 N 
ATOM      4  H   UNL     1       3.005  -4.186   1.177  0.00  0.00    +0.155 HD
ENDROOT
BRANCH   1   9
ATOM      5  C   UNL     1       0.013   1.533  -0.034  0.00  0.00    -0.012 C 
ATOM      6  C   UNL     1       0.026   0.003  -0.032  0.00  0.00    -0.061 C 
ATOM      7  C   UNL     1       0.742  -0.503  -1.287  0.00  0.00    +0.065 C 
ATOM      8  N   UNL     1       0.770  -1.972  -1.273  0.00  0.00    -0.309 NA
ATOM      9  C   UNL     1       1.452  -2.470  -0.070  0.00  0.00    +0.123 C 
ATOM     10  C   UNL     1       0.731  -1.948   1.175  0.00  0.00    -0.054 C 
ATOM     11  N   UNL     1       0.733  -0.479   1.162  0.00  0.00    +0.383 N 
ATOM     12  H   UNL     1      -0.162  -2.352  -1.343  0.00  0.00    +0.123 HD
ATOM     13  H   UNL     1       1.684  -0.144   1.148  0.00  0.00    -0.085 HD
ATOM     14  H   UNL     1       0.268  -0.136   1.989  0.00  0.00    -0.085 HD
ENDBRANCH   1   9
BRANCH   3  15
ATOM     15  C   UNL     1       2.239  -6.058   0.760  0.00  0.00    +0.072 A 
ATOM     16  C   UNL     1       1.840  -6.792  -0.348  0.00  0.00    +0.067 A 
ATOM     17  C   UNL     1       1.764  -8.171  -0.273  0.00  0.00    +0.160 A 
ATOM     18  C   UNL     1       2.087  -8.820   0.910  0.00  0.00    +0.161 A 
ATOM     19  C   UNL     1       2.484  -8.090   2.016  0.00  0.00    +0.081 A 
ATOM     20  C   UNL     1       2.567  -6.711   1.943  0.00  0.00    +0.147 A 
ATOM     21  F   UNL     1       2.961  -5.999   3.021  0.00  0.00    -0.203 F 
ATOM     22  F   UNL     1       2.011 -10.167   0.982  0.00  0.00    -0.202 F 
ATOM     23  F   UNL     1       1.376  -8.886  -1.351  0.00  0.00    -0.202 F 
ENDBRANCH   3  15
TORSDOF 2
