REMARK  Name = ZINC44021216
REMARK  14 active torsions:
REMARK  status: ('A' for Active; 'I' for Inactive)
REMARK    1  A    between atoms: C_1  and  C_2
REMARK    2  A    between atoms: C_2  and  C_4
REMARK    3  A    between atoms: C_2  and  C_15
REMARK    4  A    between atoms: C_4  and  C_5
REMARK    5  A    between atoms: C_5  and  C_6
REMARK    6  A    between atoms: C_6  and  O_7
REMARK    7  A    between atoms: O_7  and  C_8
REMARK    8  A    between atoms: C_8  and  C_10
REMARK    9  A    between atoms: C_10  and  C_11
REMARK   10  A    between atoms: C_11  and  C_12
REMARK   11  A    between atoms: C_21  and  C_43
REMARK   12  A    between atoms: C_22  and  O_42
REMARK   13  A    between atoms: C_29  and  O_41
REMARK   14  A    between atoms: C_34  and  C_40
REMARK                            x       y       z     vdW  Elec       q    Type
REMARK                         _______ _______ _______ _____ _____    ______ ____
ROOT
ATOM      1  C   UNL     1       0.135  -0.420   1.418  0.00  0.00    +0.001 C 
ATOM      2  C   UNL     1      -0.611  -1.761   1.183  0.00  0.00    +0.005 C 
ATOM      3  C   UNL     1       0.476  -2.874   1.181  0.00  0.00    +0.005 C 
ATOM      4  C   UNL     1       1.760  -2.068   0.918  0.00  0.00    +0.003 C 
ATOM      5  C   UNL     1       1.548  -0.861   1.851  0.00  0.00    +0.000 C 
ATOM      6  C   UNL     1       2.658   0.136   1.681  0.00  0.00    +0.121 C 
ATOM      7  C   UNL     1       4.035  -0.536   1.776  0.00  0.00    +0.036 C 
ATOM      8  C   UNL     1       3.975  -2.019   2.086  0.00  0.00    +0.003 C 
ATOM      9  C   UNL     1       3.064  -2.795   1.152  0.00  0.00    +0.025 C 
ATOM     10  C   UNL     1       3.727  -2.984  -0.222  0.00  0.00    +0.118 C 
ATOM     11  C   UNL     1       5.086  -3.662  -0.083  0.00  0.00    +0.036 C 
ATOM     12  C   UNL     1       5.992  -2.787   0.784  0.00  0.00    +0.005 C 
ATOM     13  C   UNL     1       5.385  -2.619   2.169  0.00  0.00    -0.025 C 
ATOM     14  C   UNL     1       6.262  -1.682   3.007  0.00  0.00    +0.015 C 
ATOM     15  C   UNL     1       7.659  -2.274   3.190  0.00  0.00    +0.075 C 
ATOM     16  C   UNL     1       8.230  -2.627   1.835  0.00  0.00    +0.134 C 
ATOM     17  O   UNL     1       9.347  -2.279   1.528  0.00  0.00    -0.297 OA
ATOM     18  C   UNL     1       7.381  -3.423   0.872  0.00  0.00    +0.078 C 
ATOM     19  C   UNL     1       5.283  -3.971   2.882  0.00  0.00    +0.012 C 
ATOM     20  C   UNL     1       1.404  -1.267   3.325  0.00  0.00    +0.014 C 
ENDROOT
BRANCH   1  22
ATOM     21  C   UNL     1      -1.249   0.946  -0.140  0.00  0.00    +0.008 C 
ATOM     22  C   UNL     1       0.155   0.408   0.142  0.00  0.00    -0.010 C 
BRANCH  22  23
ATOM     23  C   UNL     1       0.610  -0.469  -1.027  0.00  0.00    +0.007 C 
BRANCH  23  24
ATOM     24  C   UNL     1       0.184   0.179  -2.346  0.00  0.00    +0.041 C 
BRANCH  24  25
ATOM     25  C   UNL     1       0.638  -0.698  -3.515  0.00  0.00    +0.232 C 
BRANCH  25  26
ATOM     26  O   UNL     1       0.241  -0.092  -4.747  0.00  0.00    -0.465 OA
BRANCH  26  27
ATOM     27  C   UNL     1       0.566  -0.740  -5.877  0.00  0.00    +0.308 C 
ATOM     28  O   UNL     1       1.167  -1.786  -5.822  0.00  0.00    -0.251 OA
BRANCH  27  29
ATOM     29  C   UNL     1       0.179  -0.163  -7.214  0.00  0.00    +0.132 C 
BRANCH  29  30
ATOM     30  C   UNL     1       0.665  -1.090  -8.330  0.00  0.00    +0.136 C 
BRANCH  30  31
ATOM     31  C   UNL     1       0.279  -0.513  -9.667  0.00  0.00    +0.357 C 
ATOM     32  O   UNL     1      -0.328   0.543  -9.723  0.00  0.00    -0.246 OA
ATOM     33  O   UNL     1       0.574  -1.101 -10.693  0.00  0.00    -0.246 OA
ENDBRANCH  30  31
ENDBRANCH  29  30
ENDBRANCH  27  29
ENDBRANCH  26  27
ENDBRANCH  25  26
ENDBRANCH  24  25
ENDBRANCH  23  24
ENDBRANCH  22  23
ENDBRANCH   1  22
BRANCH  10  34
ATOM     34  O   UNL     1       2.878  -3.791  -1.043  0.00  0.00    -0.391 OA
ATOM     35  H   UNL     1       3.229  -3.955  -1.929  0.00  0.00    +0.210 HD
ENDBRANCH  10  34
BRANCH   6  36
ATOM     36  O   UNL     1       2.557   1.153   2.692  0.00  0.00    -0.391 OA
ATOM     37  H   UNL     1       3.246   1.830   2.640  0.00  0.00    +0.210 HD
ENDBRANCH   6  36
TORSDOF 11
