REMARK  Name = ZINC03183435
REMARK  3 active torsions:
REMARK  status: ('A' for Active; 'I' for Inactive)
REMARK    1  A    between atoms: C_3  and  N_8
REMARK    2  A    between atoms: C_9  and  C_11
REMARK    3  A    between atoms: C_20  and  C_22
REMARK                            x       y       z     vdW  Elec       q    Type
REMARK                         _______ _______ _______ _____ _____    ______ ____
ROOT
ATOM      1  N   UNL     1       3.787   2.268   0.815  0.00  0.00    -0.183 N 
ATOM      2  C   UNL     1       3.912   3.241  -0.109  0.00  0.00    +0.279 C 
ATOM      3  O   UNL     1       4.828   3.204  -0.911  0.00  0.00    -0.267 OA
ATOM      4  C   UNL     1       4.584   2.264   1.902  0.00  0.00    +0.279 C 
ATOM      5  O   UNL     1       5.110   3.297   2.275  0.00  0.00    -0.267 OA
ENDROOT
BRANCH   2   6
ATOM      6  C   UNL     1       2.982   4.303  -0.147  0.00  0.00    +0.149 A 
ATOM      7  C   UNL     1       3.272   5.648  -0.281  0.00  0.00    +0.161 A 
ATOM      8  N   UNL     1       2.123   6.316  -0.273  0.00  0.00    -0.209 NA
ATOM      9  C   UNL     1       1.128   5.475  -0.143  0.00  0.00    +0.179 A 
ATOM     10  N   UNL     1       1.581   4.195  -0.063  0.00  0.00    -0.288 N 
ATOM     11  C   UNL     1       0.640   3.201   0.070  0.00  0.00    +0.101 A 
ATOM     12  C   UNL     1      -0.660   3.494   0.115  0.00  0.00    +0.067 A 
ATOM     13  S   UNL     1      -0.636   5.275  -0.025  0.00  0.00    -0.058 S 
ATOM     14 CL   UNL     1       4.856   6.342  -0.431  0.00  0.00    -0.060 Cl
ENDBRANCH   2   6
BRANCH   4  15
ATOM     15  C   UNL     1       4.809   1.061   2.608  0.00  0.00    +0.149 A 
ATOM     16  C   UNL     1       5.459   0.927   3.821  0.00  0.00    +0.161 A 
ATOM     17  N   UNL     1       5.460  -0.362   4.143  0.00  0.00    -0.209 NA
ATOM     18  C   UNL     1       4.850  -1.048   3.209  0.00  0.00    +0.179 A 
ATOM     19  N   UNL     1       4.409  -0.230   2.216  0.00  0.00    -0.288 N 
ATOM     20  C   UNL     1       3.742  -0.817   1.166  0.00  0.00    +0.101 A 
ATOM     21  C   UNL     1       3.540  -2.135   1.138  0.00  0.00    +0.067 A 
ATOM     22  S   UNL     1       4.324  -2.655   2.657  0.00  0.00    -0.058 S 
ATOM     23 CL   UNL     1       6.153   2.215   4.756  0.00  0.00    -0.060 Cl
ENDBRANCH   4  15
BRANCH   1  26
ATOM     24  C   UNL     1       1.278   0.095  -0.746  0.00  0.00    +0.025 A 
ATOM     25  C   UNL     1       2.224   1.093  -0.592  0.00  0.00    +0.046 A 
ATOM     26  C   UNL     1       2.831   1.264   0.646  0.00  0.00    +0.135 A 
ATOM     27  N   UNL     1       2.512   0.485   1.667  0.00  0.00    -0.238 NA
ATOM     28  C   UNL     1       1.615  -0.475   1.552  0.00  0.00    +0.133 A 
ATOM     29  C   UNL     1       0.971  -0.702   0.350  0.00  0.00    +0.059 A 
ATOM     30 CL   UNL     1      -0.209  -1.968   0.211  0.00  0.00    -0.082 Cl
ENDBRANCH   1  26
TORSDOF 3
