REMARK  Name = ZINC16037145
REMARK  3 active torsions:
REMARK  status: ('A' for Active; 'I' for Inactive)
REMARK    1  A    between atoms: C_4  and  C_7
REMARK    2  A    between atoms: C_7  and  C_9
REMARK    3  A    between atoms: N_28  and  C_31
REMARK                            x       y       z     vdW  Elec       q    Type
REMARK                         _______ _______ _______ _____ _____    ______ ____
ROOT
ATOM      1  C   UNL     1       3.713  -2.183   0.067  0.00  0.00    +0.177 C 
ATOM      2  C   UNL     1       3.353  -2.626   1.483  0.00  0.00    +0.119 C 
ATOM      3  C   UNL     1       4.006  -4.062   1.421  0.00  0.00    +0.116 C 
ATOM      4  C   UNL     1       5.350  -3.777   0.899  0.00  0.00    +0.136 C 
ATOM      5  N   UNL     1       5.089  -2.699  -0.128  0.00  0.00    -0.236 N 
ATOM      6  N   UNL     1       6.018  -2.331  -1.102  0.00  0.00    -0.191 NA
ATOM      7  C   UNL     1       6.784  -3.275  -1.581  0.00  0.00    +0.138 C 
ATOM      8  C   UNL     1       6.653  -4.655  -1.077  0.00  0.00    -0.000 A 
ATOM      9  C   UNL     1       5.973  -4.924   0.139  0.00  0.00    -0.016 A 
ATOM     10  C   UNL     1       5.840  -6.217   0.594  0.00  0.00    +0.006 A 
ATOM     11  C   UNL     1       6.436  -7.259  -0.096  0.00  0.00    +0.000 A 
ATOM     12  C   UNL     1       7.170  -7.006  -1.241  0.00  0.00    +0.001 A 
ATOM     13  C   UNL     1       7.253  -5.708  -1.770  0.00  0.00    +0.010 A 
ATOM     14  C   UNL     1       3.373  -4.721   2.538  0.00  0.00    +0.232 C 
ATOM     15  O   UNL     1       3.854  -5.559   3.268  0.00  0.00    -0.274 OA
ATOM     16  N   UNL     1       2.108  -4.192   2.594  0.00  0.00    -0.210 N 
ATOM     17  C   UNL     1       1.961  -3.060   1.821  0.00  0.00    +0.232 C 
ATOM     18  O   UNL     1       0.928  -2.526   1.478  0.00  0.00    -0.274 OA
ENDROOT
BRANCH  16  19
ATOM     19  C   UNL     1       1.073  -4.736   3.367  0.00  0.00    +0.047 A 
ATOM     20  C   UNL     1       1.301  -5.869   4.136  0.00  0.00    +0.044 A 
ATOM     21  C   UNL     1       0.279  -6.404   4.898  0.00  0.00    +0.044 A 
ATOM     22  C   UNL     1      -0.971  -5.811   4.894  0.00  0.00    +0.040 A 
ATOM     23  C   UNL     1      -1.202  -4.682   4.128  0.00  0.00    +0.044 A 
ATOM     24  C   UNL     1      -0.181  -4.140   3.370  0.00  0.00    +0.044 A 
ATOM     25 CL   UNL     1      -2.772  -3.941   4.126  0.00  0.00    -0.083 Cl
ATOM     26 CL   UNL     1       0.564  -7.821   5.859  0.00  0.00    -0.083 Cl
ENDBRANCH  16  19
BRANCH   1  27
ATOM     27  C   UNL     1       3.691  -0.679  -0.038  0.00  0.00    +0.186 C 
ATOM     28  O   UNL     1       4.699  -0.042   0.180  0.00  0.00    -0.290 OA
BRANCH  27  32
ATOM     29  C   UNL     1       0.105   1.321  -1.100  0.00  0.00    +0.000 A 
ATOM     30  C   UNL     1       1.219   2.054  -0.731  0.00  0.00    +0.001 A 
ATOM     31  C   UNL     1       2.388   1.411  -0.385  0.00  0.00    +0.011 A 
ATOM     32  C   UNL     1       2.447   0.014  -0.406  0.00  0.00    +0.019 A 
ATOM     33  C   UNL     1       1.317  -0.720  -0.779  0.00  0.00    +0.011 A 
ATOM     34  C   UNL     1       0.154  -0.062  -1.123  0.00  0.00    +0.001 A 
ENDBRANCH  27  32
ENDBRANCH   1  27
TORSDOF 3
