REMARK  Name = ZINC15783073
REMARK  8 active torsions:
REMARK  status: ('A' for Active; 'I' for Inactive)
REMARK    1  A    between atoms: C_3  and  S_19
REMARK    2  A    between atoms: C_6  and  S_7
REMARK    3  A    between atoms: S_7  and  C_8
REMARK    4  A    between atoms: C_11  and  S_14
REMARK    5  A    between atoms: S_14  and  N_17
REMARK    6  A    between atoms: N_17  and  N_18
REMARK    7  A    between atoms: S_19  and  N_22
REMARK    8  A    between atoms: N_22  and  N_23
REMARK                            x       y       z     vdW  Elec       q    Type
REMARK                         _______ _______ _______ _____ _____    ______ ____
ROOT
ATOM      1  S   UNL     1      -3.265   3.143   5.114  0.00  0.00    -0.089 S 
ENDROOT
BRANCH   1   7
ATOM      2  C   UNL     1      -1.618   5.296   4.733  0.00  0.00    +0.017 A 
ATOM      3  C   UNL     1      -1.085   6.523   5.074  0.00  0.00    +0.029 A 
ATOM      4  C   UNL     1      -1.498   7.161   6.230  0.00  0.00    +0.107 A 
ATOM      5  C   UNL     1      -2.449   6.575   7.045  0.00  0.00    +0.029 A 
ATOM      6  C   UNL     1      -2.990   5.350   6.708  0.00  0.00    +0.017 A 
ATOM      7  C   UNL     1      -2.578   4.706   5.548  0.00  0.00    +0.013 A 
BRANCH   4   8
ATOM      8  S   UNL     1      -0.811   8.725   6.664  0.00  0.00    +0.071 S 
ATOM      9  O   UNL     1      -0.343   9.312   5.457  0.00  0.00    -0.152 OA
ATOM     10  O   UNL     1      -1.760   9.366   7.505  0.00  0.00    -0.152 OA
BRANCH   8  11
ATOM     11  N   UNL     1       0.526   8.430   7.596  0.00  0.00    -0.127 NA
ATOM     12  H   UNL     1       0.570   8.773   8.502  0.00  0.00    +0.167 HD
BRANCH  11  13
ATOM     13  N   UNL     1       1.566   7.705   7.089  0.00  0.00    -0.251 NA
ATOM     14  H   UNL     1       2.305   7.608   7.769  0.00  0.00    +0.138 HD
ATOM     15  H   UNL     1       1.253   6.802   6.765  0.00  0.00    +0.138 HD
ENDBRANCH  11  13
ENDBRANCH   8  11
ENDBRANCH   4   8
ENDBRANCH   1   7
BRANCH   1  16
ATOM     16  C   UNL     1      -2.344   2.652   3.695  0.00  0.00    +0.013 A 
ATOM     17  C   UNL     1      -1.128   1.996   3.846  0.00  0.00    +0.017 A 
ATOM     18  C   UNL     1      -0.409   1.611   2.732  0.00  0.00    +0.029 A 
ATOM     19  C   UNL     1      -0.897   1.879   1.466  0.00  0.00    +0.107 A 
ATOM     20  C   UNL     1      -2.104   2.536   1.311  0.00  0.00    +0.029 A 
ATOM     21  C   UNL     1      -2.831   2.919   2.421  0.00  0.00    +0.017 A 
BRANCH  19  22
ATOM     22  S   UNL     1       0.024   1.387   0.046  0.00  0.00    +0.071 S 
ATOM     23  O   UNL     1       1.379   1.281   0.459  0.00  0.00    -0.152 OA
ATOM     24  O   UNL     1      -0.385   2.236  -1.017  0.00  0.00    -0.152 OA
BRANCH  22  25
ATOM     25  N   UNL     1      -0.471  -0.142  -0.352  0.00  0.00    -0.127 NA
ATOM     26  H   UNL     1       0.168  -0.872  -0.361  0.00  0.00    +0.167 HD
BRANCH  25  27
ATOM     27  N   UNL     1      -1.779  -0.377  -0.669  0.00  0.00    -0.251 NA
ATOM     28  H   UNL     1      -2.079   0.216  -1.429  0.00  0.00    +0.138 HD
ATOM     29  H   UNL     1      -1.929  -1.350  -0.889  0.00  0.00    +0.138 HD
ENDBRANCH  25  27
ENDBRANCH  22  25
ENDBRANCH  19  22
ENDBRANCH   1  16
TORSDOF 8
