REMARK  Name = ZINC31164087
REMARK  9 active torsions:
REMARK  status: ('A' for Active; 'I' for Inactive)
REMARK    1  A    between atoms: C_1  and  N_2
REMARK    2  A    between atoms: N_2  and  C_3
REMARK    3  A    between atoms: N_2  and  C_18
REMARK    4  A    between atoms: C_3  and  C_4
REMARK    5  A    between atoms: N_6  and  C_7
REMARK    6  A    between atoms: C_11  and  C_13
REMARK    7  A    between atoms: C_18  and  C_19
REMARK    8  A    between atoms: N_21  and  C_22
REMARK    9  A    between atoms: C_22  and  C_29
REMARK                            x       y       z     vdW  Elec       q    Type
REMARK                         _______ _______ _______ _____ _____    ______ ____
ROOT
ATOM      1  C   UNL     1       2.503   0.109  -0.803  0.00  0.00    -0.095 C 
ATOM      2  N   UNL     1       2.390   1.020   0.343  0.00  0.00    +0.389 N 
ATOM      3  H   UNL     1       2.178   0.414   1.237  0.00  0.00    -0.081 HD
ENDROOT
BRANCH   2   4
ATOM      4  C   UNL     1       1.277   1.961   0.161  0.00  0.00    +0.019 C 
BRANCH   4   5
ATOM      5  C   UNL     1      -0.027   1.205   0.175  0.00  0.00    +0.201 C 
ATOM      6  O   UNL     1      -0.028   0.001   0.322  0.00  0.00    -0.278 OA
ATOM      7  N   UNL     1      -1.191   1.867   0.018  0.00  0.00    -0.287 N 
ATOM      8  H   UNL     1      -1.197   2.966  -0.029  0.00  0.00    +0.155 HD
BRANCH   7   9
ATOM      9  C   UNL     1      -2.391   1.155  -0.086  0.00  0.00    +0.034 A 
ATOM     10  C   UNL     1      -2.412  -0.089  -0.704  0.00  0.00    +0.025 A 
ATOM     11  C   UNL     1      -3.597  -0.791  -0.800  0.00  0.00    +0.022 A 
ATOM     12  C   UNL     1      -4.766  -0.252  -0.292  0.00  0.00    +0.053 A 
ATOM     13  C   UNL     1      -4.749   0.990   0.319  0.00  0.00    +0.075 A 
ATOM     14  C   UNL     1      -3.565   1.694   0.423  0.00  0.00    +0.037 A 
ATOM     15 CL   UNL     1      -6.255  -1.134  -0.421  0.00  0.00    -0.083 Cl
BRANCH  13  16
ATOM     16  C   UNL     1      -6.024   1.573   0.872  0.00  0.00    +0.419 C 
ATOM     17  F   UNL     1      -5.756   2.825   1.438  0.00  0.00    -0.166 F 
ATOM     18  F   UNL     1      -6.957   1.718  -0.160  0.00  0.00    -0.166 F 
ATOM     19  F   UNL     1      -6.540   0.720   1.853  0.00  0.00    -0.166 F 
ENDBRANCH  13  16
ENDBRANCH   7   9
ENDBRANCH   4   5
ENDBRANCH   2   4
BRANCH   2  20
ATOM     20  C   UNL     1       3.652   1.736   0.572  0.00  0.00    +0.019 C 
BRANCH  20  21
ATOM     21  C   UNL     1       4.716   0.756   0.996  0.00  0.00    +0.198 C 
ATOM     22  O   UNL     1       4.449  -0.423   1.097  0.00  0.00    -0.278 OA
ATOM     23  N   UNL     1       5.964   1.189   1.262  0.00  0.00    -0.299 N 
ATOM     24  H   UNL     1       6.206   2.258   1.171  0.00  0.00    +0.150 HD
BRANCH  23  25
ATOM     25  C   UNL     1       6.998   0.237   1.674  0.00  0.00    +0.121 C 
ATOM     26  C   UNL     1       6.516  -0.509   2.936  0.00  0.00    +0.041 C 
ATOM     27  C   UNL     1       7.294  -1.792   3.059  0.00  0.00    +0.003 C 
ATOM     28  C   UNL     1       8.531  -1.646   3.966  0.00  0.00    +0.000 C 
ATOM     29  C   UNL     1       9.291  -0.327   3.732  0.00  0.00    +0.000 C 
ATOM     30  C   UNL     1       9.407   0.020   2.272  0.00  0.00    +0.003 C 
ATOM     31  C   UNL     1       8.242   0.958   1.898  0.00  0.00    +0.041 C 
BRANCH  25  32
ATOM     32  C   UNL     1       7.202  -0.742   0.593  0.00  0.00    +0.088 C 
ATOM     33  N   UNL     1       7.359  -1.496  -0.241  0.00  0.00    -0.194 NA
ENDBRANCH  25  32
ENDBRANCH  23  25
ENDBRANCH  20  21
ENDBRANCH   2  20
TORSDOF 8
