REMARK  Name = ZINC43254829
REMARK  8 active torsions:
REMARK  status: ('A' for Active; 'I' for Inactive)
REMARK    1  A    between atoms: C_1  and  C_2
REMARK    2  A    between atoms: C_3  and  C_31
REMARK    3  A    between atoms: C_5  and  C_13
REMARK    4  A    between atoms: N_6  and  C_7
REMARK    5  A    between atoms: C_7  and  C_8
REMARK    6  A    between atoms: C_13  and  C_15
REMARK    7  A    between atoms: C_15  and  N_16
REMARK    8  A    between atoms: N_24  and  C_25
REMARK                            x       y       z     vdW  Elec       q    Type
REMARK                         _______ _______ _______ _____ _____    ______ ____
ROOT
ATOM      1  C   UNL     1       0.134  -3.690   0.394  0.00  0.00    +0.193 C 
ATOM      2  O   UNL     1       0.634  -3.311   1.434  0.00  0.00    -0.289 OA
ENDROOT
BRANCH   1   7
ATOM      3  C   UNL     1       0.018   0.577  -2.182  0.00  0.00    +0.064 C 
ATOM      4  C   UNL     1      -0.145  -0.874  -1.808  0.00  0.00    +0.029 A 
ATOM      5  C   UNL     1      -0.683  -1.859  -2.617  0.00  0.00    +0.058 A 
ATOM      6  C   UNL     1      -0.648  -3.065  -1.885  0.00  0.00    +0.044 A 
ATOM      7  C   UNL     1      -0.091  -2.771  -0.658  0.00  0.00    +0.087 A 
ATOM      8  N   UNL     1       0.213  -1.425  -0.639  0.00  0.00    -0.336 N 
BRANCH   5   9
ATOM      9  C   UNL     1      -1.197  -1.683  -3.987  0.00  0.00    +0.243 C 
ATOM     10  O   UNL     1      -1.170  -0.585  -4.510  0.00  0.00    -0.270 OA
ATOM     11  N   UNL     1      -1.696  -2.738  -4.661  0.00  0.00    -0.325 N 
ATOM     12  H   UNL     1      -1.717  -3.613  -4.244  0.00  0.00    +0.145 HD
ATOM     13  H   UNL     1      -2.034  -2.621  -5.563  0.00  0.00    +0.145 HD
ENDBRANCH   5   9
BRANCH   8  14
ATOM     14  C   UNL     1       0.827  -0.711   0.483  0.00  0.00    +0.164 C 
BRANCH  14  15
ATOM     15  C   UNL     1      -0.252  -0.185   1.394  0.00  0.00    +0.009 A 
ATOM     16  C   UNL     1      -0.828  -0.780   2.467  0.00  0.00    +0.013 A 
ATOM     17  C   UNL     1      -1.810  -0.101   3.164  0.00  0.00    +0.008 A 
ATOM     18  C   UNL     1      -2.168   1.140   2.753  0.00  0.00    +0.045 A 
ATOM     19  S   UNL     1      -1.098   1.387   1.346  0.00  0.00    -0.100 S 
ENDBRANCH  14  15
ENDBRANCH   8  14
ENDBRANCH   1   7
BRANCH   1  20
ATOM     20  C   UNL     1      -0.246  -5.138   0.224  0.00  0.00    +0.165 C 
BRANCH  20  21
ATOM     21  N   UNL     1       0.087  -5.879   1.449  0.00  0.00    -0.292 NA
ATOM     22  C   UNL     1       1.540  -5.914   1.664  0.00  0.00    +0.104 C 
ATOM     23  C   UNL     1       1.835  -6.533   3.034  0.00  0.00    +0.124 C 
ATOM     24  N   UNL     1       1.162  -7.839   3.112  0.00  0.00    -0.283 N 
ATOM     25  C   UNL     1      -0.268  -7.906   2.776  0.00  0.00    +0.124 C 
ATOM     26  C   UNL     1      -0.480  -7.234   1.415  0.00  0.00    +0.104 C 
ATOM     27  C   UNL     1       1.839  -8.944   3.482  0.00  0.00    +0.307 C 
ATOM     28  O   UNL     1       3.040  -8.889   3.665  0.00  0.00    -0.252 OA
ATOM     29  N   UNL     1       1.184 -10.110   3.650  0.00  0.00    -0.269 N 
ATOM     30  H   UNL     1       0.241 -10.173   3.430  0.00  0.00    +0.156 HD
BRANCH  29  31
ATOM     31  C   UNL     1       1.865 -11.231   4.140  0.00  0.00    +0.035 A 
ATOM     32  C   UNL     1       2.892 -11.073   5.061  0.00  0.00    +0.023 A 
ATOM     33  C   UNL     1       3.561 -12.180   5.543  0.00  0.00    +0.002 A 
ATOM     34  C   UNL     1       3.209 -13.445   5.110  0.00  0.00    +0.000 A 
ATOM     35  C   UNL     1       2.187 -13.606   4.193  0.00  0.00    +0.002 A 
ATOM     36  C   UNL     1       1.510 -12.503   3.711  0.00  0.00    +0.023 A 
ENDBRANCH  29  31
ENDBRANCH  20  21
ENDBRANCH   1  20
TORSDOF 7
