REMARK  Name = ZINC02748904
REMARK  7 active torsions:
REMARK  status: ('A' for Active; 'I' for Inactive)
REMARK    1  A    between atoms: C_7  and  N_12
REMARK    2  A    between atoms: C_8  and  C_9
REMARK    3  A    between atoms: C_13  and  C_15
REMARK    4  A    between atoms: C_15  and  C_16
REMARK    5  A    between atoms: C_16  and  C_17
REMARK    6  A    between atoms: N_19  and  C_20
REMARK    7  A    between atoms: C_21  and  C_30
REMARK                            x       y       z     vdW  Elec       q    Type
REMARK                         _______ _______ _______ _____ _____    ______ ____
ROOT
ATOM      1  C   UNL     1       7.666  -3.288   2.196  0.00  0.00    +0.105 C 
ENDROOT
BRANCH   1   3
ATOM      2  N   UNL     1       5.328  -2.502   2.008  0.00  0.00    -0.279 N 
ATOM      3  C   UNL     1       6.606  -2.403   1.592  0.00  0.00    +0.218 C 
ATOM      4  O   UNL     1       6.903  -1.601   0.732  0.00  0.00    -0.275 OA
ATOM      5  H   UNL     1       5.058  -3.229   2.788  0.00  0.00    +0.155 HD
BRANCH   2  12
ATOM      6  C   UNL     1      -0.019   1.523   0.010  0.00  0.00    +0.001 C 
ATOM      7  C   UNL     1       0.002  -0.004   0.002  0.00  0.00    +0.005 C 
ATOM      8  C   UNL     1       0.683  -0.535   1.259  0.00  0.00    +0.037 C 
ATOM      9  C   UNL     1       2.179  -0.684   1.016  0.00  0.00    -0.023 A 
ATOM     10  C   UNL     1       2.846   0.061   0.110  0.00  0.00    -0.004 A 
ATOM     11  S   UNL     1       4.530  -0.479   0.225  0.00  0.00    -0.077 S 
ATOM     12  C   UNL     1       4.353  -1.688   1.453  0.00  0.00    +0.084 A 
ATOM     13  C   UNL     1       2.999  -1.642   1.746  0.00  0.00    +0.068 A 
ATOM     14  C   UNL     1       2.288   1.105  -0.807  0.00  0.00    +0.043 C 
ATOM     15  C   UNL     1       1.406   2.068  -0.000  0.00  0.00    +0.005 C 
BRANCH  13  16
ATOM     16  C   UNL     1       2.412  -2.527   2.757  0.00  0.00    +0.244 C 
ATOM     17  O   UNL     1       1.983  -3.619   2.434  0.00  0.00    -0.270 OA
ATOM     18  N   UNL     1       2.347  -2.131   4.044  0.00  0.00    -0.325 N 
ATOM     19  H   UNL     1       1.907  -2.795   4.802  0.00  0.00    +0.145 HD
ATOM     20  H   UNL     1       2.735  -1.144   4.335  0.00  0.00    +0.145 HD
ENDBRANCH  13  16
ENDBRANCH   2  12
ENDBRANCH   1   3
BRANCH   1  21
ATOM     21  C   UNL     1       9.018  -2.976   1.552  0.00  0.00    +0.105 C 
BRANCH  21  22
ATOM     22  C   UNL     1      10.078  -3.861   2.156  0.00  0.00    +0.218 C 
ATOM     23  O   UNL     1       9.781  -4.663   3.016  0.00  0.00    -0.275 OA
ATOM     24  N   UNL     1      11.356  -3.762   1.740  0.00  0.00    -0.279 N 
ATOM     25  H   UNL     1      11.626  -3.035   0.960  0.00  0.00    +0.155 HD
BRANCH  24  26
ATOM     26  C   UNL     1      12.331  -4.577   2.295  0.00  0.00    +0.084 A 
ATOM     27  C   UNL     1      13.684  -4.626   1.998  0.00  0.00    +0.068 A 
ATOM     28  C   UNL     1      14.506  -5.576   2.736  0.00  0.00    -0.023 A 
ATOM     29  C   UNL     1      13.836  -6.329   3.635  0.00  0.00    -0.004 A 
ATOM     30  S   UNL     1      12.153  -5.785   3.523  0.00  0.00    -0.077 S 
ATOM     31  C   UNL     1      14.388  -7.401   4.522  0.00  0.00    +0.043 C 
ATOM     32  C   UNL     1      15.646  -6.877   5.228  0.00  0.00    +0.005 C 
ATOM     33  C   UNL     1      16.855  -7.184   4.351  0.00  0.00    +0.001 C 
ATOM     34  C   UNL     1      16.465  -7.116   2.876  0.00  0.00    +0.005 C 
ATOM     35  C   UNL     1      16.007  -5.708   2.511  0.00  0.00    +0.037 C 
BRANCH  27  36
ATOM     36  C   UNL     1      14.269  -3.750   0.978  0.00  0.00    +0.244 C 
ATOM     37  O   UNL     1      14.700  -2.656   1.290  0.00  0.00    -0.270 OA
ATOM     38  N   UNL     1      14.329  -4.157  -0.306  0.00  0.00    -0.325 N 
ATOM     39  H   UNL     1      14.767  -3.499  -1.071  0.00  0.00    +0.145 HD
ATOM     40  H   UNL     1      13.939  -5.146  -0.588  0.00  0.00    +0.145 HD
ENDBRANCH  27  36
ENDBRANCH  24  26
ENDBRANCH  21  22
ENDBRANCH   1  21
TORSDOF 7
