REMARK  Name = ZINC64612792
REMARK  8 active torsions:
REMARK  status: ('A' for Active; 'I' for Inactive)
REMARK    1  A    between atoms: C_1  and  C_2
REMARK    2  A    between atoms: C_4  and  C_31
REMARK    3  A    between atoms: C_5  and  N_9
REMARK    4  A    between atoms: C_6  and  C_8
REMARK    5  A    between atoms: N_9  and  S_10
REMARK    6  A    between atoms: S_10  and  C_13
REMARK    7  A    between atoms: C_16  and  C_18
REMARK    8  A    between atoms: C_22  and  C_25
REMARK                            x       y       z     vdW  Elec       q    Type
REMARK                         _______ _______ _______ _____ _____    ______ ____
ROOT
ATOM      1  C   UNL     1       0.236  -6.533   1.567  0.00  0.00    +0.111 C 
ATOM      2  C   UNL     1      -0.705  -7.468   1.644  0.00  0.00    +0.135 C 
ATOM      3  N   UNL     1      -0.219  -8.707   1.395  0.00  0.00    -0.258 NA
ATOM      4  C   UNL     1       1.045  -8.721   1.138  0.00  0.00    +0.069 C 
ATOM      5  C   UNL     1       1.509  -7.280   1.212  0.00  0.00    +0.113 C 
ENDROOT
BRANCH   4   6
ATOM      6  C   UNL     1       1.890  -9.928   0.822  0.00  0.00    +0.248 C 
ATOM      7  N   UNL     1       1.315 -11.149   1.445  0.00  0.00    -0.222 NA
ATOM      8  N   UNL     1       2.470 -12.046   1.576  0.00  0.00    -0.223 NA
ATOM      9  C   UNL     1       3.662 -11.174   1.564  0.00  0.00    +0.233 C 
ATOM     10  O   UNL     1       3.190  -9.818   1.442  0.00  0.00    -0.332 OA
ATOM     11  H   UNL     1       0.916 -10.940   2.348  0.00  0.00    +0.144 HD
ATOM     12  H   UNL     1       2.499 -12.710   0.817  0.00  0.00    +0.144 HD
BRANCH   9  13
ATOM     13  C   UNL     1       4.434 -11.339   2.848  0.00  0.00    -0.003 A 
ATOM     14  C   UNL     1       3.772 -11.673   4.014  0.00  0.00    +0.007 A 
ATOM     15  C   UNL     1       4.480 -11.825   5.192  0.00  0.00    +0.000 A 
ATOM     16  C   UNL     1       5.851 -11.644   5.202  0.00  0.00    +0.000 A 
ATOM     17  C   UNL     1       6.513 -11.311   4.035  0.00  0.00    +0.000 A 
ATOM     18  C   UNL     1       5.805 -11.163   2.857  0.00  0.00    +0.007 A 
ENDBRANCH   9  13
ENDBRANCH   4   6
BRANCH   1  19
ATOM     19  S   UNL     1       0.046  -4.799   1.816  0.00  0.00    +0.090 S 
ATOM     20  O   UNL     1       1.206  -4.358   2.506  0.00  0.00    -0.149 OA
ATOM     21  O   UNL     1      -1.266  -4.604   2.328  0.00  0.00    -0.149 OA
BRANCH  19  22
ATOM     22  N   UNL     1       0.083  -4.083   0.323  0.00  0.00    -0.098 NA
BRANCH  22  27
ATOM     23  C   UNL     1       0.586   1.549  -0.111  0.00  0.00    +0.044 C 
ATOM     24  C   UNL     1       0.452   0.052   0.005  0.00  0.00    -0.050 A 
ATOM     25  C   UNL     1       1.475  -0.768  -0.435  0.00  0.00    +0.008 A 
ATOM     26  C   UNL     1       1.356  -2.140  -0.331  0.00  0.00    -0.025 A 
ATOM     27  C   UNL     1       0.206  -2.696   0.216  0.00  0.00    +0.080 A 
ATOM     28  C   UNL     1      -0.819  -1.869   0.657  0.00  0.00    -0.025 A 
ATOM     29  C   UNL     1      -0.691  -0.498   0.555  0.00  0.00    +0.008 A 
ATOM     30  C   UNL     1      -2.068  -2.468   1.251  0.00  0.00    +0.046 C 
ATOM     31  C   UNL     1       2.471  -3.033  -0.810  0.00  0.00    +0.046 C 
ENDBRANCH  22  27
ENDBRANCH  19  22
ENDBRANCH   1  19
TORSDOF 5
