REMARK  Name = ZINC59855102
REMARK  8 active torsions:
REMARK  status: ('A' for Active; 'I' for Inactive)
REMARK    1  A    between atoms: C_2  and  C_3
REMARK    2  A    between atoms: C_7  and  N_9
REMARK    3  A    between atoms: C_10  and  C_12
REMARK    4  A    between atoms: C_12  and  N_13
REMARK    5  A    between atoms: N_16  and  C_17
REMARK    6  A    between atoms: C_17  and  C_18
REMARK    7  A    between atoms: C_18  and  C_20
REMARK    8  A    between atoms: C_18  and  N_25
REMARK                            x       y       z     vdW  Elec       q    Type
REMARK                         _______ _______ _______ _____ _____    ______ ____
ROOT
ATOM      1  N   UNL     1       3.328   7.802  -0.936  0.00  0.00    -0.291 N 
ATOM      2  C   UNL     1       4.331   8.702  -0.952  0.00  0.00    +0.300 C 
ATOM      3  O   UNL     1       5.481   8.328  -1.076  0.00  0.00    -0.253 OA
ATOM      4  N   UNL     1       4.060  10.017  -0.830  0.00  0.00    -0.301 N 
ATOM      5  H   UNL     1       2.410   8.101  -0.837  0.00  0.00    +0.151 HD
ATOM      6  H   UNL     1       3.142  10.315  -0.731  0.00  0.00    +0.150 HD
ENDROOT
BRANCH   1   7
ATOM      7  C   UNL     1       3.623   6.374  -1.069  0.00  0.00    +0.202 C 
BRANCH   7   9
ATOM      8  N   UNL     1       2.364   4.245  -1.125  0.00  0.00    -0.284 N 
ATOM      9  C   UNL     1       2.338   5.588  -1.021  0.00  0.00    +0.234 C 
ATOM     10  O   UNL     1       1.279   6.166  -0.889  0.00  0.00    -0.274 OA
ATOM     11  H   UNL     1       3.214   3.778  -1.159  0.00  0.00    +0.155 HD
BRANCH   8  16
ATOM     12  C   UNL     1      -1.136   3.352  -1.858  0.00  0.00    +0.026 A 
ATOM     13  C   UNL     1      -1.202   2.079  -1.290  0.00  0.00    +0.017 A 
ATOM     14  C   UNL     1      -0.090   1.539  -0.676  0.00  0.00    +0.003 A 
ATOM     15  C   UNL     1       1.091   2.256  -0.621  0.00  0.00    +0.023 A 
ATOM     16  C   UNL     1       1.166   3.524  -1.183  0.00  0.00    +0.035 A 
ATOM     17  C   UNL     1       0.057   4.072  -1.807  0.00  0.00    +0.040 A 
BRANCH  12  19
ATOM     18  C   UNL     1      -3.233   4.376  -3.018  0.00  0.00    +0.009 C 
ATOM     19  C   UNL     1      -2.288   3.915  -2.495  0.00  0.00    -0.070 C 
ENDBRANCH  12  19
ENDBRANCH   8  16
ENDBRANCH   7   9
ENDBRANCH   1   7
BRANCH   4  20
ATOM     20  C   UNL     1       5.150  10.995  -0.847  0.00  0.00    +0.095 C 
BRANCH  20  21
ATOM     21  C   UNL     1       4.585  12.393  -0.590  0.00  0.00    -0.013 C 
BRANCH  21  22
ATOM     22  N   UNL     1       5.690  13.355  -0.480  0.00  0.00    +0.386 N 
ATOM     23  C   UNL     1       5.159  14.717  -0.215  0.00  0.00    -0.078 C 
ATOM     24  C   UNL     1       6.368  15.451   0.417  0.00  0.00    -0.020 C 
ATOM     25  C   UNL     1       7.024  14.354   1.286  0.00  0.00    -0.020 C 
ATOM     26  C   UNL     1       6.543  13.022   0.682  0.00  0.00    -0.078 C 
ATOM     27  H   UNL     1       6.239  13.353  -1.326  0.00  0.00    -0.081 HD
ENDBRANCH  21  22
BRANCH  21  28
ATOM     28  C   UNL     1       3.686  12.789  -1.732  0.00  0.00    -0.022 A 
ATOM     29  C   UNL     1       2.333  12.761  -1.803  0.00  0.00    +0.009 A 
ATOM     30  C   UNL     1       1.713  13.178  -2.966  0.00  0.00    +0.008 A 
ATOM     31  C   UNL     1       2.477  13.602  -4.002  0.00  0.00    +0.045 A 
ATOM     32  S   UNL     1       4.126  13.425  -3.341  0.00  0.00    -0.103 S 
ENDBRANCH  21  28
ENDBRANCH  20  21
ENDBRANCH   4  20
TORSDOF 8
