REMARK  Name = ZINC04526490
REMARK  21 active torsions:
REMARK  status: ('A' for Active; 'I' for Inactive)
REMARK    1  A    between atoms: C_1  and  C_2
REMARK    2  A    between atoms: C_2  and  C_3
REMARK    3  A    between atoms: C_3  and  C_4
REMARK    4  A    between atoms: C_4  and  C_5
REMARK    5  A    between atoms: C_5  and  C_7
REMARK    6  A    between atoms: C_5  and  C_9
REMARK    7  A    between atoms: C_7  and  C_8
REMARK    8  A    between atoms: N_11  and  C_12
REMARK    9  A    between atoms: N_11  and  C_17
REMARK   10  A    between atoms: C_12  and  C_13
REMARK   11  A    between atoms: C_13  and  C_14
REMARK   12  A    between atoms: C_14  and  O_15
REMARK   13  A    between atoms: O_15  and  C_16
REMARK   14  A    between atoms: C_17  and  C_18
REMARK   15  A    between atoms: N_20  and  C_21
REMARK   16  A    between atoms: N_20  and  C_25
REMARK   17  A    between atoms: C_21  and  C_22
REMARK   18  A    between atoms: C_22  and  C_23
REMARK   19  A    between atoms: C_23  and  C_24
REMARK   20  A    between atoms: C_25  and  C_26
REMARK   21  A    between atoms: N_30  and  C_31
REMARK                            x       y       z     vdW  Elec       q    Type
REMARK                         _______ _______ _______ _____ _____    ______ ____
ROOT
ATOM      1  C   UNL     1      -2.905  -4.077  -0.185  0.00  0.00    +0.219 C 
ATOM      2  O   UNL     1      -3.020  -2.879  -0.035  0.00  0.00    -0.275 OA
ATOM      3  N   UNL     1      -3.940  -4.799  -0.658  0.00  0.00    -0.292 N 
ENDROOT
BRANCH   3   4
ATOM      4  C   UNL     1      -3.828  -6.255  -0.766  0.00  0.00    +0.203 C 
BRANCH   4   5
ATOM      5  C   UNL     1      -4.158  -6.885   0.563  0.00  0.00    +0.233 C 
ATOM      6  O   UNL     1      -4.457  -6.185   1.507  0.00  0.00    -0.274 OA
ATOM      7  N   UNL     1      -4.120  -8.225   0.702  0.00  0.00    -0.294 N 
BRANCH   7   8
ATOM      8  C   UNL     1      -4.441  -8.836   1.994  0.00  0.00    +0.161 C 
BRANCH   8   9
ATOM      9  C   UNL     1      -5.919  -9.123   2.061  0.00  0.00    +0.036 A 
ATOM     10  C   UNL     1      -6.510 -10.299   1.764  0.00  0.00    +0.024 A 
ATOM     11  C   UNL     1      -7.896 -10.134   1.960  0.00  0.00    +0.019 A 
ATOM     12  C   UNL     1      -8.098  -8.865   2.368  0.00  0.00    +0.085 A 
ATOM     13  N   UNL     1      -6.888  -8.242   2.437  0.00  0.00    -0.352 N 
ATOM     14  C   UNL     1      -6.666  -6.852   2.845  0.00  0.00    +0.148 C 
ENDBRANCH   8   9
ENDBRANCH   7   8
BRANCH   7  15
ATOM     15  C   UNL     1      -3.759  -9.070  -0.440  0.00  0.00    +0.108 C 
BRANCH  15  16
ATOM     16  C   UNL     1      -2.245  -9.285  -0.455  0.00  0.00    +0.019 C 
BRANCH  16  17
ATOM     17  C   UNL     1      -1.867 -10.168  -1.647  0.00  0.00    -0.002 C 
ATOM     18  C   UNL     1      -0.353 -10.383  -1.663  0.00  0.00    +0.004 C 
ENDBRANCH  16  17
ENDBRANCH  15  16
ENDBRANCH   7  15
ENDBRANCH   4   5
ENDBRANCH   3   4
BRANCH   3  19
ATOM     19  C   UNL     1      -5.177  -4.127  -1.065  0.00  0.00    +0.110 C 
BRANCH  19  20
ATOM     20  C   UNL     1      -5.133  -3.842  -2.567  0.00  0.00    +0.047 C 
BRANCH  20  21
ATOM     21  C   UNL     1      -6.424  -3.140  -2.992  0.00  0.00    +0.161 C 
BRANCH  21  22
ATOM     22  O   UNL     1      -6.383  -2.874  -4.395  0.00  0.00    -0.383 OA
ATOM     23  C   UNL     1      -7.548  -2.217  -4.897  0.00  0.00    +0.193 C 
ENDBRANCH  21  22
ENDBRANCH  20  21
ENDBRANCH  19  20
ENDBRANCH   3  19
BRANCH   1  24
ATOM     24  C   UNL     1      -1.606  -4.758   0.158  0.00  0.00    +0.075 C 
BRANCH  24  25
ATOM     25  C   UNL     1      -0.923  -5.231  -1.127  0.00  0.00    +0.009 C 
ATOM     26  C   UNL     1      -0.537  -4.019  -1.976  0.00  0.00    +0.004 C 
ENDBRANCH  24  25
BRANCH  24  27
ATOM     27  C   UNL     1      -0.691  -3.773   0.888  0.00  0.00    +0.013 C 
BRANCH  27  28
ATOM     28  C   UNL     1       0.606  -4.480   1.287  0.00  0.00    +0.000 C 
BRANCH  28  30
ATOM     29  C   UNL     1       2.847  -4.185   2.351  0.00  0.00    +0.004 C 
ATOM     30  C   UNL     1       1.551  -3.477   1.952  0.00  0.00    -0.003 C 
ENDBRANCH  28  30
ENDBRANCH  27  28
ENDBRANCH  24  27
ENDBRANCH   1  24
TORSDOF 16
