REMARK  Name = ZINC00691388
REMARK  2 active torsions:
REMARK  status: ('A' for Active; 'I' for Inactive)
REMARK    1  A    between atoms: C_6  and  C_7
REMARK    2  A    between atoms: N_15  and  C_16
REMARK                            x       y       z     vdW  Elec       q    Type
REMARK                         _______ _______ _______ _____ _____    ______ ____
ROOT
ATOM      1  C   UNL     1       4.887  -0.438  -3.670  0.00  0.00    +0.166 C 
ATOM      2  N   UNL     1       6.266   0.021  -3.422  0.00  0.00    -0.269 N 
ATOM      3  C   UNL     1       6.864   0.851  -4.465  0.00  0.00    +0.121 C 
ATOM      4  C   UNL     1       6.316   0.457  -5.868  0.00  0.00    +0.090 C 
ATOM      5  S   UNL     1       4.559   0.135  -5.391  0.00  0.00    -0.132 S 
ATOM      6  C   UNL     1       6.936  -0.305  -2.299  0.00  0.00    +0.308 C 
ATOM      7  O   UNL     1       6.404  -0.998  -1.453  0.00  0.00    -0.252 OA
ATOM      8  N   UNL     1       8.196   0.137  -2.113  0.00  0.00    -0.268 N 
ATOM      9  H   UNL     1       8.643   0.635  -2.814  0.00  0.00    +0.156 HD
ENDROOT
BRANCH   1  15
ATOM     10  C   UNL     1       4.244   1.423  -2.127  0.00  0.00    +0.010 A 
ATOM     11  C   UNL     1       3.368   2.016  -1.237  0.00  0.00    +0.050 A 
ATOM     12  C   UNL     1       2.170   1.393  -0.921  0.00  0.00    +0.162 A 
ATOM     13  C   UNL     1       1.852   0.171  -1.502  0.00  0.00    +0.162 A 
ATOM     14  C   UNL     1       2.736  -0.420  -2.392  0.00  0.00    +0.055 A 
ATOM     15  C   UNL     1       3.928   0.206  -2.703  0.00  0.00    -0.013 A 
ATOM     16  O   UNL     1       0.680  -0.456  -1.208  0.00  0.00    -0.485 OA
ATOM     17  C   UNL     1      -0.006  -0.018  -0.030  0.00  0.00    +0.270 C 
ATOM     18  C   UNL     1      -0.032   1.516  -0.031  0.00  0.00    +0.270 C 
ATOM     19  O   UNL     1       1.320   1.988  -0.039  0.00  0.00    -0.485 OA
ENDBRANCH   1  15
BRANCH   8  20
ATOM     20  C   UNL     1       8.858  -0.123  -0.906  0.00  0.00    +0.053 A 
ATOM     21  C   UNL     1       8.634  -1.316  -0.233  0.00  0.00    +0.026 A 
ATOM     22  C   UNL     1       9.291  -1.572   0.955  0.00  0.00    +0.022 A 
ATOM     23  C   UNL     1      10.166  -0.636   1.479  0.00  0.00    +0.042 A 
ATOM     24  C   UNL     1      10.388   0.556   0.813  0.00  0.00    +0.041 A 
ATOM     25  C   UNL     1       9.736   0.815  -0.378  0.00  0.00    +0.064 A 
ATOM     26 CL   UNL     1      10.015   2.311  -1.214  0.00  0.00    -0.082 Cl
ATOM     27 CL   UNL     1      10.986  -0.959   2.974  0.00  0.00    -0.083 Cl
ENDBRANCH   8  20
TORSDOF 2
