REMARK  Name = ZINC48050411
REMARK  2 active torsions:
REMARK  status: ('A' for Active; 'I' for Inactive)
REMARK    1  A    between atoms: C_5  and  N_7
REMARK    2  A    between atoms: C_16  and  C_18
REMARK                            x       y       z     vdW  Elec       q    Type
REMARK                         _______ _______ _______ _____ _____    ______ ____
ROOT
ATOM      1  N   UNL     1       1.010  -2.472  -1.108  0.00  0.00    -0.268 N 
ATOM      2  C   UNL     1      -0.118  -3.127  -0.768  0.00  0.00    +0.307 C 
ATOM      3  O   UNL     1      -1.182  -2.539  -0.756  0.00  0.00    -0.252 OA
ATOM      4  N   UNL     1      -0.066  -4.433  -0.442  0.00  0.00    -0.282 N 
ATOM      5  C   UNL     1       1.225  -5.129  -0.343  0.00  0.00    +0.128 C 
ATOM      6  C   UNL     1       1.331  -5.771   1.046  0.00  0.00    +0.127 C 
ATOM      7  N   UNL     1       0.098  -6.525   1.310  0.00  0.00    -0.295 N 
ATOM      8  C   UNL     1      -1.193  -5.829   1.212  0.00  0.00    +0.127 C 
ATOM      9  C   UNL     1      -1.299  -5.186  -0.172  0.00  0.00    +0.128 C 
ATOM     10  C   UNL     1       0.150  -7.832   1.637  0.00  0.00    +0.247 C 
ATOM     11  O   UNL     1      -0.869  -8.423   1.941  0.00  0.00    -0.270 OA
ATOM     12  H   UNL     1       1.850  -2.953  -1.170  0.00  0.00    +0.156 HD
ENDROOT
BRANCH   1  17
ATOM     13  C   UNL     1      -0.289   0.904  -1.773  0.00  0.00    +0.002 A 
ATOM     14  C   UNL     1       0.888   1.620  -1.889  0.00  0.00    +0.001 A 
ATOM     15  C   UNL     1       2.106   0.981  -1.747  0.00  0.00    +0.017 A 
ATOM     16  C   UNL     1       2.151  -0.376  -1.488  0.00  0.00    +0.039 A 
ATOM     17  C   UNL     1       0.969  -1.097  -1.370  0.00  0.00    +0.049 A 
ATOM     18  C   UNL     1      -0.252  -0.452  -1.514  0.00  0.00    +0.024 A 
ATOM     19 BR   UNL     1       3.817  -1.249  -1.294  0.00  0.00    -0.048 Br
ENDBRANCH   1  17
BRANCH  10  20
ATOM     20  C   UNL     1       1.438  -8.543   1.625  0.00  0.00    +0.044 A 
ATOM     21  C   UNL     1       1.583  -9.833   0.997  0.00  0.00    +0.020 A 
ATOM     22  C   UNL     1       2.815 -10.378   1.055  0.00  0.00    +0.046 A 
ATOM     23  S   UNL     1       3.754  -9.157   1.946  0.00  0.00    -0.104 S 
ATOM     24  C   UNL     1       2.564  -8.005   2.208  0.00  0.00    +0.058 A 
ENDBRANCH  10  20
TORSDOF 2
