REMARK  Name = ZINC49728352
REMARK  9 active torsions:
REMARK  status: ('A' for Active; 'I' for Inactive)
REMARK    1  A    between atoms: C_1  and  C_2
REMARK    2  A    between atoms: C_2  and  C_3
REMARK    3  A    between atoms: C_3  and  C_4
REMARK    4  A    between atoms: C_10  and  C_11
REMARK    5  A    between atoms: C_13  and  C_25
REMARK    6  A    between atoms: N_14  and  C_17
REMARK    7  A    between atoms: C_15  and  C_16
REMARK    8  A    between atoms: C_21  and  C_24
REMARK    9  A    between atoms: C_22  and  C_23
REMARK                            x       y       z     vdW  Elec       q    Type
REMARK                         _______ _______ _______ _____ _____    ______ ____
ROOT
ATOM      1  C   UNL     1      -3.000  -3.998  -2.092  0.00  0.00    +0.100 C 
ATOM      2  N   UNL     1      -2.803  -4.736  -1.037  0.00  0.00    -0.169 NA
ATOM      3  N   UNL     1      -1.761  -5.637  -0.979  0.00  0.00    -0.154 N 
ATOM      4  C   UNL     1      -1.511  -6.543   0.074  0.00  0.00    +0.132 C 
ATOM      5  N   UNL     1      -2.432  -6.942   0.911  0.00  0.00    -0.385 N 
ATOM      6  C   UNL     1      -0.095  -7.001   0.136  0.00  0.00    +0.079 C 
ATOM      7  C   UNL     1       0.522  -7.293   1.335  0.00  0.00    +0.026 C 
ATOM      8  C   UNL     1       0.615  -7.126  -1.159  0.00  0.00    +0.273 C 
ATOM      9  O   UNL     1       1.562  -7.887  -1.285  0.00  0.00    -0.268 OA
ATOM     10  N   UNL     1       0.186  -6.376  -2.194  0.00  0.00    -0.152 NA
ATOM     11  C   UNL     1      -0.908  -5.669  -2.061  0.00  0.00    +0.181 C 
ATOM     12  S   UNL     1      -1.673  -4.517  -3.171  0.00  0.00    -0.038 S 
ATOM     13  H   UNL     1      -3.319  -6.551   0.880  0.00  0.00    +0.157 HD
ATOM     14  H   UNL     1      -2.228  -7.631   1.564  0.00  0.00    +0.157 HD
ENDROOT
BRANCH   7  15
ATOM     15  C   UNL     1      -0.131  -6.998   2.559  0.00  0.00    -0.003 A 
ATOM     16  C   UNL     1      -1.045  -5.879   2.828  0.00  0.00    +0.031 A 
ATOM     17  C   UNL     1      -1.419  -5.994   4.113  0.00  0.00    +0.022 A 
ATOM     18  N   UNL     1      -0.813  -7.090   4.661  0.00  0.00    -0.317 N 
ATOM     19  C   UNL     1      -0.042  -7.708   3.745  0.00  0.00    +0.028 A 
ATOM     20  C   UNL     1       0.778  -8.952   3.972  0.00  0.00    +0.064 C 
ATOM     21  C   UNL     1      -2.358  -5.063   4.835  0.00  0.00    +0.064 C 
BRANCH  18  22
ATOM     22  C   UNL     1      -0.976  -7.515   5.987  0.00  0.00    +0.050 A 
ATOM     23  C   UNL     1      -1.985  -8.412   6.312  0.00  0.00    +0.026 A 
ATOM     24  C   UNL     1      -2.143  -8.828   7.619  0.00  0.00    +0.002 A 
ATOM     25  C   UNL     1      -1.297  -8.352   8.604  0.00  0.00    +0.004 A 
ATOM     26  C   UNL     1      -0.292  -7.458   8.284  0.00  0.00    -0.046 A 
ATOM     27  C   UNL     1      -0.125  -7.043   6.977  0.00  0.00    -0.024 A 
ATOM     28  C   UNL     1       0.976  -6.075   6.628  0.00  0.00    +0.046 C 
ATOM     29  C   UNL     1       0.626  -6.941   9.361  0.00  0.00    +0.044 C 
ENDBRANCH  18  22
ENDBRANCH   7  15
BRANCH   1  30
ATOM     30  C   UNL     1      -4.077  -2.974  -2.341  0.00  0.00    +0.064 C 
BRANCH  30  32
ATOM     31  C   UNL     1      -6.079  -1.840  -1.367  0.00  0.00    +0.004 C 
ATOM     32  C   UNL     1      -4.986  -2.880  -1.114  0.00  0.00    +0.003 C 
ENDBRANCH  30  32
ENDBRANCH   1  30
TORSDOF 4
