REMARK  Name = ZINC49204587
REMARK  3 active torsions:
REMARK  status: ('A' for Active; 'I' for Inactive)
REMARK    1  A    between atoms: C_1  and  C_2
REMARK    2  A    between atoms: C_3  and  C_18
REMARK    3  A    between atoms: N_10  and  C_11
REMARK                            x       y       z     vdW  Elec       q    Type
REMARK                         _______ _______ _______ _____ _____    ______ ____
ROOT
ATOM      1  C   UNL     1      -0.006   1.502   0.010  0.00  0.00    +0.069 C 
ATOM      2  C   UNL     1       0.006  -0.004   0.002  0.00  0.00    +0.081 A 
ATOM      3  C   UNL     1       0.002  -0.789  -1.087  0.00  0.00    +0.127 A 
ATOM      4  O   UNL     1       0.017  -2.070  -0.657  0.00  0.00    -0.429 OA
ATOM      5  C   UNL     1       0.030  -2.051   0.685  0.00  0.00    +0.295 A 
ATOM      6  N   UNL     1       0.029  -0.804   1.085  0.00  0.00    -0.200 NA
ATOM      7  N   UNL     1       0.047  -3.165   1.509  0.00  0.00    -0.223 N 
ATOM      8  C   UNL     1       0.059  -3.012   2.848  0.00  0.00    +0.311 C 
ATOM      9  O   UNL     1       0.055  -1.897   3.333  0.00  0.00    -0.252 OA
ATOM     10  N   UNL     1       0.076  -4.095   3.650  0.00  0.00    -0.269 N 
ATOM     11  C   UNL     1      -0.017  -0.328  -2.521  0.00  0.00    +0.088 C 
ATOM     12  H   UNL     1       0.051  -4.054   1.123  0.00  0.00    +0.161 HD
ATOM     13  H   UNL     1       0.012  -4.984   3.266  0.00  0.00    +0.156 HD
ENDROOT
BRANCH  10  14
ATOM     14  C   UNL     1       0.186  -3.938   5.036  0.00  0.00    +0.036 A 
ATOM     15  C   UNL     1       0.904  -4.861   5.786  0.00  0.00    +0.023 A 
ATOM     16  C   UNL     1       1.011  -4.703   7.154  0.00  0.00    +0.003 A 
ATOM     17  C   UNL     1       0.404  -3.628   7.777  0.00  0.00    +0.014 A 
ATOM     18  C   UNL     1      -0.312  -2.708   7.034  0.00  0.00    +0.015 A 
ATOM     19  C   UNL     1      -0.417  -2.857   5.664  0.00  0.00    +0.037 A 
ATOM     20  I   UNL     1      -1.230  -1.081   7.983  0.00  0.00    -0.044 I 
ENDBRANCH  10  14
TORSDOF 1
