REMARK  Name = ZINC01104217
REMARK  6 active torsions:
REMARK  status: ('A' for Active; 'I' for Inactive)
REMARK    1  A    between atoms: C_1  and  C_2
REMARK    2  A    between atoms: C_2  and  C_3
REMARK    3  A    between atoms: C_5  and  N_27
REMARK    4  A    between atoms: C_6  and  C_19
REMARK    5  A    between atoms: C_15  and  C_17
REMARK    6  A    between atoms: C_15  and  C_18
REMARK                            x       y       z     vdW  Elec       q    Type
REMARK                         _______ _______ _______ _____ _____    ______ ____
ROOT
ATOM      1  C   UNL     1      -0.997  -1.217   1.497  0.00  0.00    -0.024 A 
ATOM      2  C   UNL     1      -1.131  -2.361   0.681  0.00  0.00    +0.033 A 
ATOM      3  C   UNL     1      -2.217  -3.331   0.648  0.00  0.00    +0.054 A 
ATOM      4  C   UNL     1      -2.132  -4.376  -0.244  0.00  0.00    +0.097 A 
ATOM      5  S   UNL     1      -0.581  -4.089  -1.073  0.00  0.00    -0.062 S 
ATOM      6  C   UNL     1      -0.077  -2.607  -0.232  0.00  0.00    +0.111 A 
ATOM      7  N   UNL     1       0.980  -1.828  -0.328  0.00  0.00    -0.244 NA
ATOM      8  C   UNL     1       1.131  -0.756   0.427  0.00  0.00    +0.054 A 
ATOM      9  C   UNL     1       0.138  -0.421   1.359  0.00  0.00    +0.043 A 
ATOM     10  C   UNL     1       0.291   0.780   2.199  0.00  0.00    +0.166 C 
ATOM     11  O   UNL     1      -0.636   1.211   2.852  0.00  0.00    -0.292 OA
ATOM     12  C   UNL     1       1.644   1.460   2.215  0.00  0.00    +0.086 C 
ATOM     13  C   UNL     1       2.153   1.502   0.768  0.00  0.00    -0.022 C 
ATOM     14  C   UNL     1       2.374   0.077   0.268  0.00  0.00    +0.063 C 
ATOM     15  C   UNL     1       3.474   2.272   0.714  0.00  0.00    +0.011 C 
ATOM     16  C   UNL     1       1.119   2.198  -0.118  0.00  0.00    +0.011 C 
ENDROOT
BRANCH   4  17
ATOM     17  C   UNL     1      -3.057  -5.429  -0.453  0.00  0.00    +0.255 C 
ATOM     18  O   UNL     1      -4.253  -5.211  -0.387  0.00  0.00    -0.269 OA
ATOM     19  N   UNL     1      -2.613  -6.672  -0.726  0.00  0.00    -0.293 N 
ATOM     20  C   UNL     1      -1.175  -6.982  -0.713  0.00  0.00    +0.136 C 
ATOM     21  C   UNL     1      -0.961  -8.228   0.163  0.00  0.00    +0.179 C 
ATOM     22  O   UNL     1      -1.831  -9.270  -0.285  0.00  0.00    -0.377 OA
ATOM     23  C   UNL     1      -3.222  -8.964  -0.164  0.00  0.00    +0.179 C 
ATOM     24  C   UNL     1      -3.552  -7.758  -1.051  0.00  0.00    +0.136 C 
ENDBRANCH   4  17
BRANCH   3  25
ATOM     25  N   UNL     1      -3.308  -3.205   1.494  0.00  0.00    -0.356 N 
ATOM     26  H   UNL     1      -3.621  -2.325   1.755  0.00  0.00    +0.142 HD
ATOM     27  H   UNL     1      -3.760  -3.998   1.825  0.00  0.00    +0.142 HD
ENDBRANCH   3  25
BRANCH   1  29
ATOM     28  C   UNL     1      -3.108   0.037   1.839  0.00  0.00    +0.009 C 
ATOM     29  C   UNL     1      -2.063  -0.862   2.501  0.00  0.00    +0.033 C 
ENDBRANCH   1  29
TORSDOF 3
