REMARK  Name = ZINC12299977
REMARK  4 active torsions:
REMARK  status: ('A' for Active; 'I' for Inactive)
REMARK    1  A    between atoms: C_3  and  C_27
REMARK    2  A    between atoms: C_5  and  N_7
REMARK    3  A    between atoms: C_8  and  C_10
REMARK    4  A    between atoms: C_16  and  C_18
REMARK                            x       y       z     vdW  Elec       q    Type
REMARK                         _______ _______ _______ _____ _____    ______ ____
ROOT
ATOM      1  C   UNL     1      -8.375   2.889   0.325  0.00  0.00    +0.078 C 
ATOM      2  C   UNL     1      -8.421   3.775   1.572  0.00  0.00    +0.032 C 
ATOM      3  C   UNL     1      -9.343   4.971   1.310  0.00  0.00    +0.109 C 
ATOM      4  N   UNL     1     -10.654   4.470   0.876  0.00  0.00    -0.296 N 
ATOM      5  C   UNL     1     -10.715   3.538  -0.258  0.00  0.00    +0.109 C 
ATOM      6  C   UNL     1      -9.778   2.359   0.021  0.00  0.00    +0.032 C 
ATOM      7  C   UNL     1     -11.780   4.858   1.507  0.00  0.00    +0.267 C 
ATOM      8  O   UNL     1     -12.846   4.352   1.214  0.00  0.00    -0.268 OA
ENDROOT
BRANCH   7   9
ATOM      9  C   UNL     1     -11.719   5.897   2.555  0.00  0.00    +0.150 A 
ATOM     10  C   UNL     1     -12.782   6.321   3.385  0.00  0.00    +0.005 A 
ATOM     11  C   UNL     1     -12.265   7.279   4.184  0.00  0.00    +0.040 A 
ATOM     12  N   UNL     1     -10.965   7.422   3.842  0.00  0.00    -0.281 N 
ATOM     13  H   UNL     1     -10.329   8.067   4.267  0.00  0.00    +0.189 HD
ATOM     14  N   UNL     1     -10.663   6.611   2.893  0.00  0.00    -0.169 NA
ATOM     15  C   UNL     1     -13.328   7.804   5.123  0.00  0.00    +0.055 C 
ATOM     16  C   UNL     1     -14.450   6.741   5.093  0.00  0.00    +0.011 C 
ATOM     17  C   UNL     1     -14.239   6.092   3.707  0.00  0.00    +0.039 C 
ENDBRANCH   7   9
BRANCH   1  19
ATOM     18  N   UNL     1      -6.145   1.958   0.855  0.00  0.00    -0.285 N 
ATOM     19  C   UNL     1      -7.442   1.730   0.567  0.00  0.00    +0.220 C 
ATOM     20  O   UNL     1      -7.859   0.593   0.503  0.00  0.00    -0.275 OA
ATOM     21  H   UNL     1      -5.827   2.866   0.976  0.00  0.00    +0.155 HD
BRANCH  18  26
ATOM     22  C   UNL     1      -3.425  -0.177   2.117  0.00  0.00    +0.002 A 
ATOM     23  C   UNL     1      -3.486  -1.239   1.238  0.00  0.00    +0.011 A 
ATOM     24  C   UNL     1      -4.439  -1.247   0.218  0.00  0.00    +0.019 A 
ATOM     25  C   UNL     1      -5.323  -0.176   0.088  0.00  0.00    +0.034 A 
ATOM     26  C   UNL     1      -5.257   0.883   0.978  0.00  0.00    +0.034 A 
ATOM     27  C   UNL     1      -4.304   0.882   1.990  0.00  0.00    +0.023 A 
BRANCH  24  28
ATOM     28  C   UNL     1      -4.506  -2.384  -0.725  0.00  0.00    +0.135 A 
ATOM     29  C   UNL     1      -3.703  -3.480  -0.711  0.00  0.00    +0.050 A 
ATOM     30  C   UNL     1      -4.122  -4.303  -1.776  0.00  0.00    +0.042 A 
ATOM     31  C   UNL     1      -5.145  -3.672  -2.384  0.00  0.00    +0.196 A 
ATOM     32  O   UNL     1      -5.372  -2.511  -1.748  0.00  0.00    -0.463 OA
ENDBRANCH  24  28
ENDBRANCH  18  26
ENDBRANCH   1  19
TORSDOF 4
