REMARK  Name = ZINC13879018
REMARK  6 active torsions:
REMARK  status: ('A' for Active; 'I' for Inactive)
REMARK    1  A    between atoms: C_1  and  C_2
REMARK    2  A    between atoms: C_5  and  C_7
REMARK    3  A    between atoms: C_9  and  C_16
REMARK    4  A    between atoms: C_10  and  C_15
REMARK    5  A    between atoms: N_18  and  C_19
REMARK    6  A    between atoms: C_24  and  C_25
REMARK                            x       y       z     vdW  Elec       q    Type
REMARK                         _______ _______ _______ _____ _____    ______ ____
ROOT
ATOM      1  C   UNL     1       0.556  -3.393  -0.329  0.00  0.00    +0.146 C 
ATOM      2  C   UNL     1       1.030  -4.052   0.951  0.00  0.00    +0.056 C 
ATOM      3  C   UNL     1       2.280  -4.564   0.968  0.00  0.00    +0.017 C 
ATOM      4  N   UNL     1       3.087  -4.489  -0.130  0.00  0.00    -0.300 N 
ATOM      5  C   UNL     1       2.720  -3.919  -1.285  0.00  0.00    +0.135 C 
ATOM      6  N   UNL     1       1.504  -3.365  -1.455  0.00  0.00    -0.315 N 
ATOM      7  S   UNL     1       3.832  -3.893  -2.586  0.00  0.00    -0.019 S 
ATOM      8  C   UNL     1       2.791  -5.227   2.221  0.00  0.00    +0.061 C 
ATOM      9  H   UNL     1       3.977  -4.871  -0.071  0.00  0.00    +0.154 HD
ATOM     10  H   UNL     1       1.259  -2.957  -2.300  0.00  0.00    +0.149 HD
ENDROOT
BRANCH   1  15
ATOM     11  C   UNL     1       0.079   2.156   0.707  0.00  0.00    +0.051 C 
ATOM     12  C   UNL     1      -0.051   0.670   0.488  0.00  0.00    -0.013 A 
ATOM     13  C   UNL     1      -1.149  -0.116   0.601  0.00  0.00    +0.011 A 
ATOM     14  C   UNL     1      -1.033  -1.470   0.348  0.00  0.00    +0.013 A 
ATOM     15  C   UNL     1       0.176  -1.971  -0.005  0.00  0.00    +0.015 A 
ATOM     16  S   UNL     1       1.199  -0.508   0.005  0.00  0.00    -0.096 S 
ENDBRANCH   1  15
BRANCH   2  17
ATOM     17  C   UNL     1       0.192  -4.128   2.090  0.00  0.00    +0.248 C 
ATOM     18  O   UNL     1      -0.754  -4.895   2.099  0.00  0.00    -0.270 OA
ATOM     19  N   UNL     1       0.441  -3.352   3.163  0.00  0.00    -0.281 N 
ATOM     20  H   UNL     1       1.238  -2.800   3.188  0.00  0.00    +0.155 HD
BRANCH  19  21
ATOM     21  C   UNL     1      -0.449  -3.343   4.241  0.00  0.00    +0.045 A 
ATOM     22  C   UNL     1      -1.210  -4.470   4.526  0.00  0.00    +0.024 A 
ATOM     23  C   UNL     1      -2.088  -4.458   5.591  0.00  0.00    +0.002 A 
ATOM     24  C   UNL     1      -2.211  -3.325   6.374  0.00  0.00    +0.001 A 
ATOM     25  C   UNL     1      -1.456  -2.201   6.094  0.00  0.00    +0.014 A 
ATOM     26  C   UNL     1      -0.572  -2.209   5.033  0.00  0.00    +0.076 A 
BRANCH  26  27
ATOM     27  C   UNL     1       0.256  -0.986   4.732  0.00  0.00    +0.419 C 
ATOM     28  F   UNL     1      -0.018   0.007   5.679  0.00  0.00    -0.166 F 
ATOM     29  F   UNL     1       1.614  -1.317   4.784  0.00  0.00    -0.166 F 
ATOM     30  F   UNL     1      -0.060  -0.512   3.455  0.00  0.00    -0.166 F 
ENDBRANCH  26  27
ENDBRANCH  19  21
ENDBRANCH   2  17
TORSDOF 4
