REMARK  Name = ZINC20976849
REMARK  9 active torsions:
REMARK  status: ('A' for Active; 'I' for Inactive)
REMARK    1  A    between atoms: C_1  and  C_2
REMARK    2  A    between atoms: C_6  and  C_10
REMARK    3  A    between atoms: C_7  and  O_8
REMARK    4  A    between atoms: O_8  and  C_9
REMARK    5  A    between atoms: N_12  and  C_13
REMARK    6  A    between atoms: C_13  and  N_15
REMARK    7  A    between atoms: N_15  and  C_16
REMARK    8  A    between atoms: C_21  and  N_22
REMARK    9  A    between atoms: N_25  and  C_28
REMARK                            x       y       z     vdW  Elec       q    Type
REMARK                         _______ _______ _______ _____ _____    ______ ____
ROOT
ATOM      1  N   UNL     1       3.622  -0.665  -0.036  0.00  0.00    -0.295 N 
ATOM      2  H   UNL     1       4.481  -0.246  -0.580  0.00  0.00    +0.154 HD
ENDROOT
BRANCH   1   3
ATOM      3  C   UNL     1       2.396   0.015  -0.033  0.00  0.00    +0.055 A 
ATOM      4  C   UNL     1       1.219  -0.672  -0.293  0.00  0.00    +0.025 A 
ATOM      5  C   UNL     1       0.011   0.000  -0.289  0.00  0.00    +0.003 A 
ATOM      6  C   UNL     1      -0.029   1.357  -0.026  0.00  0.00    +0.022 A 
ATOM      7  C   UNL     1       1.140   2.050   0.234  0.00  0.00    +0.064 A 
ATOM      8  C   UNL     1       2.357   1.383   0.233  0.00  0.00    +0.070 A 
ATOM      9 CL   UNL     1       1.084   3.754   0.564  0.00  0.00    -0.082 Cl
BRANCH   8  10
ATOM     10  N   UNL     1       3.541   2.082   0.496  0.00  0.00    -0.331 N 
ATOM     11  C   UNL     1       3.542   2.620   1.863  0.00  0.00    +0.086 C 
ATOM     12  C   UNL     1       4.882   3.306   2.138  0.00  0.00    -0.060 C 
ATOM     13  N   UNL     1       5.092   4.377   1.153  0.00  0.00    +0.380 N 
ATOM     14  C   UNL     1       5.091   3.839  -0.214  0.00  0.00    -0.060 C 
ATOM     15  C   UNL     1       3.751   3.152  -0.489  0.00  0.00    +0.086 C 
ATOM     16  C   UNL     1       6.335   5.110   1.429  0.00  0.00    -0.096 C 
ATOM     17  H   UNL     1       4.256   5.086   1.240  0.00  0.00    -0.082 HD
ENDBRANCH   8  10
ENDBRANCH   1   3
BRANCH   1  18
ATOM     18  C   UNL     1       3.747  -1.832   0.625  0.00  0.00    +0.141 C 
ATOM     19  S   UNL     1       2.382  -2.541   1.377  0.00  0.00    -0.018 S 
BRANCH  18  22
ATOM     20  C   UNL     1       5.072  -3.610   1.356  0.00  0.00    +0.253 C 
ATOM     21  O   UNL     1       4.102  -4.113   1.890  0.00  0.00    -0.270 OA
ATOM     22  N   UNL     1       4.947  -2.442   0.695  0.00  0.00    -0.263 N 
ATOM     23  H   UNL     1       5.824  -1.988   0.211  0.00  0.00    +0.157 HD
BRANCH  20  29
ATOM     24  C   UNL     1       7.910  -7.417   2.921  0.00  0.00    +0.047 C 
ATOM     25  C   UNL     1       7.758  -6.111   2.184  0.00  0.00    -0.008 A 
ATOM     26  C   UNL     1       8.854  -5.532   1.574  0.00  0.00    +0.007 A 
ATOM     27  C   UNL     1       8.725  -4.332   0.895  0.00  0.00    +0.001 A 
ATOM     28  C   UNL     1       7.501  -3.703   0.820  0.00  0.00    +0.017 A 
ATOM     29  C   UNL     1       6.384  -4.277   1.432  0.00  0.00    +0.079 A 
ATOM     30  C   UNL     1       6.520  -5.489   2.124  0.00  0.00    +0.135 A 
BRANCH  30  31
ATOM     31  O   UNL     1       5.445  -6.053   2.728  0.00  0.00    -0.494 OA
ATOM     32  C   UNL     1       4.666  -6.963   1.948  0.00  0.00    +0.277 C 
ENDBRANCH  30  31
ENDBRANCH  20  29
ENDBRANCH  18  22
ENDBRANCH   1  18
TORSDOF 6
