REMARK  Name = ZINC00664714
REMARK  8 active torsions:
REMARK  status: ('A' for Active; 'I' for Inactive)
REMARK    1  A    between atoms: C_1  and  C_2
REMARK    2  A    between atoms: C_5  and  C_9
REMARK    3  A    between atoms: C_7  and  C_8
REMARK    4  A    between atoms: C_16  and  N_30
REMARK    5  A    between atoms: C_17  and  C_28
REMARK    6  A    between atoms: C_18  and  C_20
REMARK    7  A    between atoms: C_23  and  C_27
REMARK    8  A    between atoms: C_24  and  C_26
REMARK                            x       y       z     vdW  Elec       q    Type
REMARK                         _______ _______ _______ _____ _____    ______ ____
ROOT
ATOM      1  C   UNL     1       0.183  -4.601  -0.118  0.00  0.00    +0.074 A 
ATOM      2  C   UNL     1      -0.775  -5.257  -0.815  0.00  0.00    +0.054 A 
ATOM      3  C   UNL     1      -0.581  -6.640  -0.630  0.00  0.00    +0.245 A 
ATOM      4  N   UNL     1       0.453  -6.808   0.145  0.00  0.00    -0.135 NA
ATOM      5  N   UNL     1       0.964  -5.546   0.485  0.00  0.00    -0.273 N 
ATOM      6  H   UNL     1       1.734  -5.375   1.050  0.00  0.00    +0.189 HD
ATOM      7  O   UNL     1      -1.394  -7.566  -1.207  0.00  0.00    -0.421 OA
ATOM      8  C   UNL     1      -2.552  -7.129  -1.740  0.00  0.00    +0.201 C 
ATOM      9  C   UNL     1      -2.845  -5.833  -1.975  0.00  0.00    +0.098 C 
ATOM     10  C   UNL     1      -1.891  -4.707  -1.665  0.00  0.00    +0.102 C 
ENDROOT
BRANCH   1  15
ATOM     11  C   UNL     1       0.855   1.105   0.224  0.00  0.00    +0.044 C 
ATOM     12  C   UNL     1       0.679  -0.389   0.134  0.00  0.00    -0.047 A 
ATOM     13  C   UNL     1      -0.574  -0.947   0.316  0.00  0.00    +0.004 A 
ATOM     14  C   UNL     1      -0.741  -2.314   0.236  0.00  0.00    +0.010 A 
ATOM     15  C   UNL     1       0.356  -3.134  -0.030  0.00  0.00    +0.000 A 
ATOM     16  C   UNL     1       1.616  -2.565  -0.214  0.00  0.00    +0.013 A 
ATOM     17  C   UNL     1       1.770  -1.196  -0.136  0.00  0.00    -0.047 A 
ATOM     18  C   UNL     1       3.130  -0.579  -0.340  0.00  0.00    +0.044 C 
ENDBRANCH   1  15
BRANCH  10  19
ATOM     19  C   UNL     1      -1.327  -4.151  -2.947  0.00  0.00    -0.034 A 
ATOM     20  C   UNL     1      -0.571  -4.958  -3.777  0.00  0.00    +0.005 A 
ATOM     21  C   UNL     1      -0.054  -4.448  -4.953  0.00  0.00    +0.004 A 
ATOM     22  C   UNL     1      -0.293  -3.131  -5.299  0.00  0.00    -0.048 A 
ATOM     23  C   UNL     1      -1.049  -2.324  -4.470  0.00  0.00    -0.047 A 
ATOM     24  C   UNL     1      -1.570  -2.836  -3.296  0.00  0.00    +0.008 A 
ATOM     25  C   UNL     1      -1.309  -0.889  -4.848  0.00  0.00    +0.044 C 
ATOM     26  C   UNL     1       0.272  -2.575  -6.581  0.00  0.00    +0.044 C 
ENDBRANCH  10  19
BRANCH   8  27
ATOM     27  N   UNL     1      -3.499  -8.068  -2.067  0.00  0.00    -0.328 N 
ATOM     28  H   UNL     1      -3.322  -9.009  -1.913  0.00  0.00    +0.145 HD
ATOM     29  H   UNL     1      -4.344  -7.790  -2.453  0.00  0.00    +0.145 HD
ENDBRANCH   8  27
BRANCH   9  30
ATOM     30  C   UNL     1      -4.120  -5.512  -2.543  0.00  0.00    +0.101 C 
ATOM     31  N   UNL     1      -5.131  -5.258  -2.995  0.00  0.00    -0.191 NA
ENDBRANCH   9  30
TORSDOF 4
