REMARK  Name = ZINC38733180
REMARK  6 active torsions:
REMARK  status: ('A' for Active; 'I' for Inactive)
REMARK    1  A    between atoms: C_1  and  C_2
REMARK    2  A    between atoms: C_2  and  C_38
REMARK    3  A    between atoms: C_7  and  C_12
REMARK    4  A    between atoms: C_12  and  N_13
REMARK    5  A    between atoms: C_14  and  C_16
REMARK    6  A    between atoms: C_22  and  C_24
REMARK                            x       y       z     vdW  Elec       q    Type
REMARK                         _______ _______ _______ _____ _____    ______ ____
ROOT
ATOM      1  C   UNL     1       4.123   2.746   5.145  0.00  0.00    +0.091 C 
ATOM      2  C   UNL     1       5.045   3.421   4.128  0.00  0.00    +0.040 C 
ATOM      3  C   UNL     1       6.186   4.094   4.832  0.00  0.00    -0.030 C 
ATOM      4  C   UNL     1       6.196   4.372   6.096  0.00  0.00    -0.030 C 
ATOM      5  C   UNL     1       5.072   4.051   7.036  0.00  0.00    +0.040 C 
ATOM      6  C   UNL     1       3.792   3.755   6.252  0.00  0.00    +0.091 C 
ENDROOT
BRANCH   6   7
ATOM      7  C   UNL     1       2.752   3.173   7.174  0.00  0.00    +0.220 C 
ATOM      8  O   UNL     1       2.634   1.970   7.273  0.00  0.00    -0.275 OA
ATOM      9  N   UNL     1       1.952   3.990   7.888  0.00  0.00    -0.298 N 
ATOM     10  C   UNL     1       2.010   5.446   7.699  0.00  0.00    +0.126 C 
ATOM     11  C   UNL     1       0.603   5.953   7.360  0.00  0.00    +0.125 C 
ATOM     12  N   UNL     1      -0.344   5.403   8.341  0.00  0.00    -0.314 N 
ATOM     13  C   UNL     1      -0.402   3.947   8.530  0.00  0.00    +0.125 C 
ATOM     14  C   UNL     1       1.002   3.440   8.865  0.00  0.00    +0.126 C 
ATOM     15  C   UNL     1      -1.169   6.245   9.078  0.00  0.00    +0.099 A 
ATOM     16  C   UNL     1      -1.196   7.606   8.791  0.00  0.00    +0.042 A 
ATOM     17  C   UNL     1      -2.022   8.433   9.531  0.00  0.00    +0.005 A 
ATOM     18  C   UNL     1      -2.795   7.869  10.538  0.00  0.00    +0.018 A 
ATOM     19  C   UNL     1      -2.718   6.510  10.768  0.00  0.00    +0.084 A 
ATOM     20  N   UNL     1      -1.925   5.744  10.042  0.00  0.00    -0.350 N 
ATOM     21  H   UNL     1      -1.893   4.792  10.222  0.00  0.00    +0.166 HD
ENDBRANCH   6   7
BRANCH   1  23
ATOM     22  N   UNL     1       2.902   1.423   3.448  0.00  0.00    -0.315 N 
ATOM     23  C   UNL     1       2.852   2.307   4.464  0.00  0.00    +0.217 C 
ATOM     24  O   UNL     1       1.784   2.749   4.831  0.00  0.00    -0.275 OA
ATOM     25  H   UNL     1       3.757   1.069   3.155  0.00  0.00    +0.149 HD
BRANCH  22  26
ATOM     26  C   UNL     1       1.667   0.997   2.786  0.00  0.00    +0.108 C 
BRANCH  26  32
ATOM     27  C   UNL     1       0.036   1.553  -0.014  0.00  0.00    +0.011 C 
ATOM     28  C   UNL     1       0.049   0.027  -0.030  0.00  0.00    -0.029 C 
ATOM     29  C   UNL     1       1.163  -0.605  -0.883  0.00  0.00    -0.005 C 
ATOM     30  C   UNL     1       2.468   0.191  -0.829  0.00  0.00    +0.004 C 
ATOM     31  C   UNL     1       2.818   0.659   0.577  0.00  0.00    +0.005 C 
ATOM     32  C   UNL     1       2.002  -0.003   1.675  0.00  0.00    +0.010 C 
ATOM     33  C   UNL     1       0.737  -0.673   1.143  0.00  0.00    -0.000 C 
ATOM     34  C   UNL     1       1.142  -1.768   0.124  0.00  0.00    +0.008 C 
ATOM     35  C   UNL     1      -1.346  -0.539  -0.349  0.00  0.00    +0.011 C 
ENDBRANCH  26  32
ENDBRANCH  22  26
ENDBRANCH   1  23
TORSDOF 4
