REMARK  Name = ZINC55183761
REMARK  2 active torsions:
REMARK  status: ('A' for Active; 'I' for Inactive)
REMARK    1  A    between atoms: C_5  and  N_7
REMARK    2  A    between atoms: C_8  and  C_10
REMARK                            x       y       z     vdW  Elec       q    Type
REMARK                         _______ _______ _______ _____ _____    ______ ____
ROOT
ATOM      1  C   UNL     1       0.117  -4.236   0.190  0.00  0.00    +0.120 A 
ATOM      2  C   UNL     1      -1.071  -4.980   0.194  0.00  0.00    +0.131 A 
ATOM      3  N   UNL     1      -1.022  -6.292   0.286  0.00  0.00    -0.237 NA
ATOM      4  C   UNL     1       0.140  -6.946   0.378  0.00  0.00    +0.140 A 
ATOM      5  C   UNL     1       0.132  -8.348   0.474  0.00  0.00    +0.048 A 
ATOM      6  C   UNL     1       1.314  -9.022   0.567  0.00  0.00    +0.020 A 
ATOM      7  C   UNL     1       2.519  -8.307   0.566  0.00  0.00    +0.035 A 
ATOM      8  C   UNL     1       2.506  -6.956   0.473  0.00  0.00    +0.111 A 
ATOM      9  N   UNL     1       1.330  -6.276   0.379  0.00  0.00    -0.267 N 
ATOM     10  C   UNL     1       1.348  -4.929   0.281  0.00  0.00    +0.271 A 
ATOM     11  O   UNL     1       2.404  -4.322   0.276  0.00  0.00    -0.266 OA
ATOM     12 BR   UNL     1       4.165  -9.228   0.696  0.00  0.00    -0.049 Br
ENDROOT
BRANCH   1  14
ATOM     13  N   UNL     1       1.236  -2.081  -0.038  0.00  0.00    -0.280 N 
ATOM     14  C   UNL     1       0.086  -2.772   0.088  0.00  0.00    +0.255 C 
ATOM     15  O   UNL     1      -0.979  -2.183   0.118  0.00  0.00    -0.270 OA
ATOM     16  H   UNL     1       2.078  -2.554  -0.128  0.00  0.00    +0.155 HD
BRANCH  13  21
ATOM     17  C   UNL     1       0.081   1.377  -0.514  0.00  0.00    +0.002 A 
ATOM     18  C   UNL     1       1.172   2.085  -0.044  0.00  0.00    +0.002 A 
ATOM     19  C   UNL     1       2.285   1.413   0.428  0.00  0.00    +0.022 A 
ATOM     20  C   UNL     1       2.309   0.032   0.432  0.00  0.00    +0.062 A 
ATOM     21  C   UNL     1       1.214  -0.682  -0.040  0.00  0.00    +0.052 A 
ATOM     22  C   UNL     1       0.099  -0.004  -0.513  0.00  0.00    +0.025 A 
ATOM     23 CL   UNL     1       3.707  -0.811   1.025  0.00  0.00    -0.082 Cl
ENDBRANCH  13  21
ENDBRANCH   1  14
TORSDOF 2
