REMARK  Name = ZINC17026126
REMARK  7 active torsions:
REMARK  status: ('A' for Active; 'I' for Inactive)
REMARK    1  A    between atoms: C_1  and  C_2
REMARK    2  A    between atoms: C_5  and  N_9
REMARK    3  A    between atoms: C_6  and  C_8
REMARK    4  A    between atoms: C_14  and  N_18
REMARK    5  A    between atoms: C_19  and  N_24
REMARK    6  A    between atoms: C_21  and  C_23
REMARK    7  A    between atoms: C_25  and  C_27
REMARK                            x       y       z     vdW  Elec       q    Type
REMARK                         _______ _______ _______ _____ _____    ______ ____
ROOT
ATOM      1  N   UNL     1       0.923   3.011  -0.255  0.00  0.00    -0.214 N 
ATOM      2  C   UNL     1      -0.420   2.887  -0.473  0.00  0.00    +0.168 A 
ATOM      3  C   UNL     1      -0.688   1.505  -0.544  0.00  0.00    +0.083 A 
ATOM      4  C   UNL     1       0.540   0.835  -0.351  0.00  0.00    +0.148 A 
ATOM      5  N   UNL     1       1.476   1.726  -0.186  0.00  0.00    -0.172 NA
ATOM      6  C   UNL     1      -2.016   1.094  -0.758  0.00  0.00    +0.170 A 
ATOM      7  N   UNL     1      -2.951   2.026  -0.894  0.00  0.00    -0.216 NA
ATOM      8  C   UNL     1      -2.652   3.311  -0.825  0.00  0.00    +0.226 A 
ATOM      9  N   UNL     1      -1.427   3.744  -0.621  0.00  0.00    -0.216 NA
ENDROOT
BRANCH   1  14
ATOM     10  C   UNL     1       3.772   7.890   0.279  0.00  0.00    +0.044 C 
ATOM     11  C   UNL     1       3.014   6.594   0.138  0.00  0.00    -0.050 A 
ATOM     12  C   UNL     1       2.119   6.428  -0.903  0.00  0.00    +0.005 A 
ATOM     13  C   UNL     1       1.428   5.241  -1.039  0.00  0.00    +0.028 A 
ATOM     14  C   UNL     1       1.625   4.216  -0.123  0.00  0.00    +0.071 A 
ATOM     15  C   UNL     1       2.525   4.385   0.921  0.00  0.00    -0.025 A 
ATOM     16  C   UNL     1       3.217   5.574   1.048  0.00  0.00    +0.008 A 
ATOM     17  C   UNL     1       2.747   3.273   1.914  0.00  0.00    +0.046 C 
ENDBRANCH   1  14
BRANCH   6  18
ATOM     18  N   UNL     1      -2.341  -0.257  -0.833  0.00  0.00    -0.199 N 
ATOM     19  C   UNL     1      -3.584  -0.774  -1.042  0.00  0.00    +0.131 A 
ATOM     20  C   UNL     1      -3.466  -2.130  -1.045  0.00  0.00    +0.068 A 
ATOM     21  C   UNL     1      -2.120  -2.444  -0.833  0.00  0.00    +0.062 A 
ATOM     22  N   UNL     1      -1.447  -1.329  -0.713  0.00  0.00    -0.169 NA
ATOM     23  C   UNL     1      -1.541  -3.834  -0.763  0.00  0.00    +0.067 C 
BRANCH  19  24
ATOM     24  N   UNL     1      -4.760  -0.049  -1.220  0.00  0.00    -0.264 N 
ATOM     25  C   UNL     1      -5.926  -0.694  -1.419  0.00  0.00    +0.285 C 
ATOM     26  O   UNL     1      -5.952  -1.911  -1.442  0.00  0.00    -0.266 OA
ATOM     27  H   UNL     1      -4.739   0.921  -1.202  0.00  0.00    +0.157 HD
BRANCH  25  28
ATOM     28  C   UNL     1      -7.163   0.069  -1.607  0.00  0.00    +0.191 A 
ATOM     29  C   UNL     1      -8.405  -0.456  -1.821  0.00  0.00    +0.056 A 
ATOM     30  C   UNL     1      -9.287   0.628  -1.940  0.00  0.00    +0.058 A 
ATOM     31  C   UNL     1      -8.552   1.756  -1.804  0.00  0.00    +0.171 A 
ATOM     32  O   UNL     1      -7.272   1.415  -1.603  0.00  0.00    -0.444 OA
ATOM     33 BR   UNL     1      -9.220   3.523  -1.885  0.00  0.00    -0.008 Br
ENDBRANCH  25  28
ENDBRANCH  19  24
ENDBRANCH   6  18
TORSDOF 4
