REMARK  Name = ZINC08712845
REMARK  8 active torsions:
REMARK  status: ('A' for Active; 'I' for Inactive)
REMARK    1  A    between atoms: C_1  and  C_2
REMARK    2  A    between atoms: C_7  and  C_8
REMARK    3  A    between atoms: C_8  and  N_9
REMARK    4  A    between atoms: N_9  and  C_24
REMARK    5  A    between atoms: C_10  and  C_12
REMARK    6  A    between atoms: C_12  and  N_13
REMARK    7  A    between atoms: C_24  and  C_30
REMARK    8  A    between atoms: N_32  and  C_33
REMARK                            x       y       z     vdW  Elec       q    Type
REMARK                         _______ _______ _______ _____ _____    ______ ____
ROOT
ATOM      1  N   UNL     1      -0.995   0.463  -0.909  0.00  0.00    -0.282 N 
ATOM      2  C   UNL     1      -1.092  -0.771  -1.443  0.00  0.00    +0.234 C 
ATOM      3  O   UNL     1      -0.143  -1.525  -1.404  0.00  0.00    -0.274 OA
ENDROOT
BRANCH   1   4
ATOM      4  C   UNL     1       0.226   0.863  -0.205  0.00  0.00    +0.114 C 
ATOM      5  C   UNL     1       1.448   0.400  -1.000  0.00  0.00    +0.035 C 
ATOM      6  C   UNL     1       1.427   1.042  -2.389  0.00  0.00    +0.003 C 
ATOM      7  C   UNL     1       1.458   2.565  -2.246  0.00  0.00    +0.000 C 
ATOM      8  C   UNL     1       0.236   3.028  -1.451  0.00  0.00    +0.003 C 
ATOM      9  C   UNL     1       0.258   2.386  -0.063  0.00  0.00    +0.035 C 
BRANCH   4  10
ATOM     10  C   UNL     1       0.247   0.230   1.163  0.00  0.00    +0.241 C 
ATOM     11  O   UNL     1       0.740   0.824   2.098  0.00  0.00    -0.273 OA
ATOM     12  N   UNL     1      -0.287  -0.994   1.347  0.00  0.00    -0.284 N 
ATOM     13  H   UNL     1      -0.627  -1.494   0.589  0.00  0.00    +0.155 HD
BRANCH  12  14
ATOM     14  C   UNL     1      -0.350  -1.544   2.634  0.00  0.00    +0.037 A 
ATOM     15  C   UNL     1      -0.407  -0.710   3.743  0.00  0.00    +0.027 A 
ATOM     16  C   UNL     1      -0.473  -1.251   5.013  0.00  0.00    +0.051 A 
ATOM     17  C   UNL     1      -0.474  -2.626   5.184  0.00  0.00    +0.166 A 
ATOM     18  C   UNL     1      -0.412  -3.465   4.073  0.00  0.00    +0.168 A 
ATOM     19  C   UNL     1      -0.350  -2.922   2.801  0.00  0.00    +0.072 A 
ATOM     20  O   UNL     1      -0.426  -4.760   4.504  0.00  0.00    -0.453 OA
ATOM     21  C   UNL     1      -0.085  -4.705   5.901  0.00  0.00    +0.466 C 
ATOM     22  O   UNL     1      -0.527  -3.397   6.310  0.00  0.00    -0.453 OA
ENDBRANCH  12  14
ENDBRANCH   4  10
ENDBRANCH   1   4
BRANCH   1  23
ATOM     23  C   UNL     1      -2.110   1.405  -1.034  0.00  0.00    +0.144 C 
BRANCH  23  30
ATOM     24  C   UNL     1      -2.654   0.811   1.741  0.00  0.00    +0.044 C 
ATOM     25  C   UNL     1      -3.654   0.432   0.680  0.00  0.00    -0.046 A 
ATOM     26  C   UNL     1      -4.832  -0.199   1.034  0.00  0.00    +0.003 A 
ATOM     27  C   UNL     1      -5.750  -0.545   0.060  0.00  0.00    +0.000 A 
ATOM     28  C   UNL     1      -5.490  -0.261  -1.268  0.00  0.00    +0.000 A 
ATOM     29  C   UNL     1      -4.315   0.375  -1.621  0.00  0.00    +0.005 A 
ATOM     30  C   UNL     1      -3.394   0.717  -0.648  0.00  0.00    -0.027 A 
ENDBRANCH  23  30
ENDBRANCH   1  23
BRANCH   2  31
ATOM     31  C   UNL     1      -2.380  -1.214  -2.087  0.00  0.00    +0.210 C 
BRANCH  31  32
ATOM     32  N   UNL     1      -2.157  -2.466  -2.814  0.00  0.00    -0.255 N 
ATOM     33  C   UNL     1      -2.306  -3.734  -2.257  0.00  0.00    +0.048 A 
ATOM     34  C   UNL     1      -2.671  -4.138  -0.980  0.00  0.00    +0.024 A 
ATOM     35  C   UNL     1      -2.748  -5.484  -0.672  0.00  0.00    +0.002 A 
ATOM     36  C   UNL     1      -2.462  -6.445  -1.627  0.00  0.00    +0.001 A 
ATOM     37  C   UNL     1      -2.096  -6.065  -2.902  0.00  0.00    +0.014 A 
ATOM     38  C   UNL     1      -2.016  -4.711  -3.224  0.00  0.00    +0.048 A 
ATOM     39  C   UNL     1      -1.665  -3.988  -4.461  0.00  0.00    +0.250 C 
ATOM     40  O   UNL     1      -1.351  -4.464  -5.532  0.00  0.00    -0.282 OA
ATOM     41  C   UNL     1      -1.789  -2.536  -4.105  0.00  0.00    +0.292 C 
ATOM     42  O   UNL     1      -1.590  -1.597  -4.846  0.00  0.00    -0.266 OA
ENDBRANCH  31  32
ENDBRANCH   2  31
TORSDOF 7
