REMARK  Name = ZINC05516568
REMARK  6 active torsions:
REMARK  status: ('A' for Active; 'I' for Inactive)
REMARK    1  A    between atoms: C_1  and  C_2
REMARK    2  A    between atoms: C_7  and  N_8
REMARK    3  A    between atoms: C_9  and  C_27
REMARK    4  A    between atoms: C_11  and  C_14
REMARK    5  A    between atoms: C_12  and  C_13
REMARK    6  A    between atoms: C_24  and  C_26
REMARK                            x       y       z     vdW  Elec       q    Type
REMARK                         _______ _______ _______ _____ _____    ______ ____
ROOT
ATOM      1  N   UNL     1       0.093   0.186   2.352  0.00  0.00    -0.317 N 
ATOM      2  C   UNL     1      -1.026   0.523   3.062  0.00  0.00    +0.022 A 
ATOM      3  C   UNL     1      -0.659   1.069   4.233  0.00  0.00    +0.031 A 
ATOM      4  C   UNL     1       0.810   1.070   4.249  0.00  0.00    -0.003 A 
ATOM      5  C   UNL     1       1.204   0.501   3.049  0.00  0.00    +0.028 A 
ATOM      6  C   UNL     1       2.624   0.276   2.599  0.00  0.00    +0.064 C 
ATOM      7  C   UNL     1      -2.446   0.315   2.602  0.00  0.00    +0.064 C 
ENDROOT
BRANCH   4   8
ATOM      8  C   UNL     1       1.653   1.550   5.284  0.00  0.00    +0.026 C 
ATOM      9  C   UNL     1       1.151   1.728   6.557  0.00  0.00    +0.081 C 
ATOM     10  C   UNL     1      -0.192   1.217   6.948  0.00  0.00    +0.152 C 
ATOM     11  N   UNL     1      -0.713   0.122   6.461  0.00  0.00    -0.283 NA
ATOM     12  N   UNL     1      -0.847   2.032   7.896  0.00  0.00    -0.152 N 
ATOM     13  C   UNL     1      -0.062   2.843   8.688  0.00  0.00    +0.181 C 
ATOM     14  N   UNL     1       1.231   3.027   8.606  0.00  0.00    -0.152 NA
ATOM     15  C   UNL     1       1.921   2.433   7.609  0.00  0.00    +0.273 C 
ATOM     16  O   UNL     1       3.140   2.477   7.571  0.00  0.00    -0.268 OA
ATOM     17  S   UNL     1      -1.256   3.556   9.788  0.00  0.00    -0.038 S 
ATOM     18  C   UNL     1      -2.713   2.814   9.064  0.00  0.00    +0.097 C 
ATOM     19  N   UNL     1      -2.207   2.082   8.114  0.00  0.00    -0.170 NA
ATOM     20  C   UNL     1      -4.158   2.991   9.455  0.00  0.00    +0.075 C 
ATOM     21  H   UNL     1      -1.606  -0.150   6.726  0.00  0.00    +0.188 HD
ENDBRANCH   4   8
BRANCH   1  28
ATOM     22  C   UNL     1       0.110   1.889   0.071  0.00  0.00    +0.046 C 
ATOM     23  C   UNL     1       0.095   0.388  -0.057  0.00  0.00    -0.025 A 
ATOM     24  C   UNL     1       0.096  -0.200  -1.307  0.00  0.00    +0.025 A 
ATOM     25  C   UNL     1       0.082  -1.578  -1.425  0.00  0.00    +0.041 A 
ATOM     26  C   UNL     1       0.068  -2.372  -0.292  0.00  0.00    +0.022 A 
ATOM     27  C   UNL     1       0.067  -1.790   0.961  0.00  0.00    +0.028 A 
ATOM     28  C   UNL     1       0.087  -0.407   1.082  0.00  0.00    +0.050 A 
ATOM     29 CL   UNL     1       0.082  -2.313  -2.998  0.00  0.00    -0.084 Cl
ENDBRANCH   1  28
TORSDOF 2
