REMARK  Name = ZINC13408811
REMARK  4 active torsions:
REMARK  status: ('A' for Active; 'I' for Inactive)
REMARK    1  A    between atoms: C_1  and  C_2
REMARK    2  A    between atoms: N_6  and  O_7
REMARK    3  A    between atoms: C_19  and  C_27
REMARK    4  A    between atoms: C_24  and  O_26
REMARK                            x       y       z     vdW  Elec       q    Type
REMARK                         _______ _______ _______ _____ _____    ______ ____
ROOT
ATOM      1  C   UNL     1      -1.665   2.526   3.576  0.00  0.00    +0.012 C 
ATOM      2  C   UNL     1      -1.355   3.664   2.604  0.00  0.00    -0.025 C 
ATOM      3  C   UNL     1      -0.340   4.597   3.271  0.00  0.00    +0.013 C 
ATOM      4  C   UNL     1      -0.880   5.095   4.612  0.00  0.00    +0.055 C 
ATOM      5  C   UNL     1      -2.286   5.621   4.470  0.00  0.00    +0.058 C 
ATOM      6  N   UNL     1      -2.625   6.720   5.040  0.00  0.00    -0.097 NA
ATOM      7  C   UNL     1      -3.302   4.846   3.652  0.00  0.00    +0.058 C 
ATOM      8  C   UNL     1      -2.630   4.466   2.338  0.00  0.00    +0.001 C 
ATOM      9  C   UNL     1      -3.539   3.668   1.413  0.00  0.00    +0.005 C 
ATOM     10  C   UNL     1      -2.928   3.762   0.010  0.00  0.00    +0.004 C 
ATOM     11  C   UNL     1      -1.415   3.724   0.062  0.00  0.00    -0.004 C 
ATOM     12  C   UNL     1      -0.806   3.097   1.309  0.00  0.00    -0.001 C 
ATOM     13  C   UNL     1      -0.737   1.583   1.277  0.00  0.00    +0.005 C 
ATOM     14  C   UNL     1      -0.013   1.087   0.008  0.00  0.00    +0.010 C 
ATOM     15  C   UNL     1      -0.770   1.602  -1.193  0.00  0.00    -0.003 C 
ATOM     16  C   UNL     1      -0.776   3.142  -1.167  0.00  0.00    +0.001 C 
ATOM     17  C   UNL     1      -1.392   3.477  -2.531  0.00  0.00    +0.007 C 
ATOM     18  C   UNL     1      -0.703   2.448  -3.473  0.00  0.00    +0.032 C 
ATOM     19  C   UNL     1      -0.113   1.341  -2.561  0.00  0.00    +0.121 C 
ATOM     20  C   UNL     1      -2.163   0.979  -1.237  0.00  0.00    +0.014 C 
ENDROOT
BRANCH   6  21
ATOM     21  O   UNL     1      -1.676   7.443   5.804  0.00  0.00    -0.409 OA
ATOM     22  H   UNL     1      -2.024   8.256   6.194  0.00  0.00    +0.328 HD
ENDBRANCH   6  21
BRANCH  19  23
ATOM     23  O   UNL     1      -0.485   0.049  -3.037  0.00  0.00    -0.391 OA
ATOM     24  H   UNL     1      -0.104  -0.178  -3.896  0.00  0.00    +0.210 HD
ENDBRANCH  19  23
TORSDOF 2
