REMARK  Name = ZINC63598725
REMARK  5 active torsions:
REMARK  status: ('A' for Active; 'I' for Inactive)
REMARK    1  A    between atoms: C_4  and  C_7
REMARK    2  A    between atoms: C_8  and  C_18
REMARK    3  A    between atoms: N_10  and  C_12
REMARK    4  A    between atoms: C_18  and  C_19
REMARK    5  A    between atoms: C_18  and  C_29
REMARK                            x       y       z     vdW  Elec       q    Type
REMARK                         _______ _______ _______ _____ _____    ______ ____
ROOT
ATOM      1  C   UNL     1       3.021  -2.674   1.394  0.00  0.00    +0.060 C 
ENDROOT
BRANCH   1   2
ATOM      2  C   UNL     1       3.182  -4.032   0.709  0.00  0.00    +0.144 C 
ATOM      3  C   UNL     1       2.617  -3.922  -0.695  0.00  0.00    +0.075 C 
ATOM      4  N   UNL     1       1.645  -4.740  -1.020  0.00  0.00    -0.287 N 
ATOM      5  C   UNL     1       1.159  -5.643  -0.158  0.00  0.00    +0.162 C 
ATOM      6  S   UNL     1      -0.111  -6.655  -0.700  0.00  0.00    -0.016 S 
ATOM      7  N   UNL     1       1.593  -5.812   1.096  0.00  0.00    -0.158 NA
ATOM      8  C   UNL     1       2.553  -5.087   1.599  0.00  0.00    +0.249 C 
ATOM      9  O   UNL     1       2.972  -5.273   2.863  0.00  0.00    -0.273 OA
ATOM     10  N   UNL     1       3.100  -3.012  -1.580  0.00  0.00    -0.349 N 
ATOM     11  H   UNL     1       3.820  -2.416  -1.320  0.00  0.00    +0.143 HD
ATOM     12  H   UNL     1       2.725  -2.958  -2.473  0.00  0.00    +0.143 HD
ATOM     13  H   UNL     1       1.267  -4.691  -1.912  0.00  0.00    +0.155 HD
ENDBRANCH   1   2
BRANCH   1  14
ATOM     14  C   UNL     1       3.583  -2.749   2.815  0.00  0.00    +0.144 C 
ATOM     15  C   UNL     1       3.307  -1.426   3.504  0.00  0.00    +0.075 C 
ATOM     16  N   UNL     1       4.338  -0.756   3.961  0.00  0.00    -0.287 N 
ATOM     17  C   UNL     1       5.593  -1.210   3.831  0.00  0.00    +0.162 C 
ATOM     18  S   UNL     1       6.855  -0.245   4.469  0.00  0.00    -0.016 S 
ATOM     19  N   UNL     1       5.931  -2.362   3.241  0.00  0.00    -0.158 NA
ATOM     20  C   UNL     1       5.040  -3.162   2.724  0.00  0.00    +0.249 C 
ATOM     21  O   UNL     1       5.403  -4.314   2.134  0.00  0.00    -0.273 OA
ATOM     22  N   UNL     1       2.041  -0.953   3.642  0.00  0.00    -0.349 N 
ATOM     23  H   UNL     1       1.286  -1.504   3.381  0.00  0.00    +0.143 HD
ATOM     24  H   UNL     1       1.891  -0.065   4.001  0.00  0.00    +0.143 HD
ATOM     25  H   UNL     1       4.188   0.093   4.405  0.00  0.00    +0.155 HD
ENDBRANCH   1  14
BRANCH   1  27
ATOM     26  C   UNL     1       3.210  -0.476   0.020  0.00  0.00    +0.097 A 
ATOM     27  C   UNL     1       3.769  -1.625   0.613  0.00  0.00    +0.004 A 
ATOM     28  C   UNL     1       5.096  -1.620   0.357  0.00  0.00    +0.119 A 
ATOM     29  N   UNL     1       5.375  -0.508  -0.372  0.00  0.00    -0.239 N 
ATOM     30  N   UNL     1       4.178   0.189  -0.576  0.00  0.00    -0.166 NA
BRANCH  26  34
ATOM     31  C   UNL     1      -0.892   0.641   0.120  0.00  0.00    +0.000 A 
ATOM     32  C   UNL     1       0.088   1.616   0.150  0.00  0.00    +0.001 A 
ATOM     33  C   UNL     1       1.421   1.259   0.118  0.00  0.00    +0.010 A 
ATOM     34  C   UNL     1       1.778  -0.086   0.055  0.00  0.00    +0.002 A 
ATOM     35  C   UNL     1       0.786  -1.064   0.025  0.00  0.00    +0.010 A 
ATOM     36  C   UNL     1      -0.543  -0.696   0.057  0.00  0.00    +0.001 A 
ENDBRANCH  26  34
BRANCH  29  37
ATOM     37  C   UNL     1       6.639  -0.129  -0.844  0.00  0.00    +0.065 A 
ATOM     38  C   UNL     1       7.747  -0.923  -0.579  0.00  0.00    +0.028 A 
ATOM     39  C   UNL     1       8.992  -0.546  -1.044  0.00  0.00    +0.002 A 
ATOM     40  C   UNL     1       9.135   0.620  -1.774  0.00  0.00    +0.000 A 
ATOM     41  C   UNL     1       8.033   1.412  -2.040  0.00  0.00    +0.002 A 
ATOM     42  C   UNL     1       6.785   1.038  -1.582  0.00  0.00    +0.028 A 
ENDBRANCH  29  37
ENDBRANCH   1  27
TORSDOF 5
