REMARK  Name = ZINC13032169
REMARK  9 active torsions:
REMARK  status: ('A' for Active; 'I' for Inactive)
REMARK    1  A    between atoms: C_1  and  O_2
REMARK    2  A    between atoms: O_2  and  C_3
REMARK    3  A    between atoms: C_6  and  C_28
REMARK    4  A    between atoms: C_8  and  S_9
REMARK    5  A    between atoms: S_9  and  N_12
REMARK    6  A    between atoms: N_12  and  N_13
REMARK    7  A    between atoms: C_14  and  C_16
REMARK    8  A    between atoms: C_16  and  N_17
REMARK    9  A    between atoms: C_19  and  C_24
REMARK                            x       y       z     vdW  Elec       q    Type
REMARK                         _______ _______ _______ _____ _____    ______ ____
ROOT
ATOM      1  N   UNL     1       5.647  -1.775  -3.050  0.00  0.00    -0.108 NA
ATOM      2  H   UNL     1       5.052  -2.232  -3.664  0.00  0.00    +0.172 HD
ENDROOT
BRANCH   1   3
ATOM      3  N   UNL     1       5.251  -1.556  -1.724  0.00  0.00    -0.230 N 
ATOM      4  C   UNL     1       4.094  -0.917  -1.463  0.00  0.00    +0.248 C 
ATOM      5  O   UNL     1       3.395  -0.530  -2.376  0.00  0.00    -0.273 OA
ATOM      6  H   UNL     1       5.810  -1.865  -0.993  0.00  0.00    +0.171 HD
BRANCH   4   7
ATOM      7  C   UNL     1       3.668  -0.681  -0.037  0.00  0.00    +0.221 C 
BRANCH   7   8
ATOM      8  N   UNL     1       2.385   0.027  -0.021  0.00  0.00    -0.306 N 
ATOM      9  C   UNL     1       2.369   1.385  -0.013  0.00  0.00    +0.102 A 
ATOM     10  C   UNL     1       1.197   2.062   0.002  0.00  0.00    +0.071 A 
ATOM     11  C   UNL     1      -0.016   1.360   0.009  0.00  0.00    +0.019 A 
ATOM     12  C   UNL     1       0.002  -0.004   0.002  0.00  0.00    +0.071 A 
ATOM     13  C   UNL     1       1.237  -0.675  -0.013  0.00  0.00    +0.252 A 
ATOM     14  O   UNL     1       1.268  -1.895  -0.021  0.00  0.00    -0.268 OA
BRANCH  10  15
ATOM     15  C   UNL     1       1.197   3.569   0.010  0.00  0.00    +0.419 C 
ATOM     16  F   UNL     1       1.069   4.042  -1.300  0.00  0.00    -0.166 F 
ATOM     17  F   UNL     1       0.123   4.031   0.779  0.00  0.00    -0.166 F 
ATOM     18  F   UNL     1       2.397   4.032   0.558  0.00  0.00    -0.166 F 
ENDBRANCH  10  15
ENDBRANCH   7   8
ENDBRANCH   4   7
ENDBRANCH   1   3
BRANCH   1  19
ATOM     19  S   UNL     1       7.131  -1.253  -3.567  0.00  0.00    +0.077 S 
ATOM     20  O   UNL     1       7.295  -1.743  -4.891  0.00  0.00    -0.152 OA
ATOM     21  O   UNL     1       7.207   0.131  -3.253  0.00  0.00    -0.152 OA
BRANCH  19  27
ATOM     22  C   UNL     1       8.413  -1.800  -1.214  0.00  0.00    +0.146 A 
ATOM     23  C   UNL     1       9.367  -2.436  -0.428  0.00  0.00    +0.048 A 
ATOM     24  C   UNL     1      10.247  -3.328  -0.997  0.00  0.00    +0.019 A 
ATOM     25  C   UNL     1      10.180  -3.595  -2.368  0.00  0.00    +0.065 A 
ATOM     26  C   UNL     1       9.216  -2.958  -3.153  0.00  0.00    +0.047 A 
ATOM     27  C   UNL     1       8.343  -2.062  -2.577  0.00  0.00    +0.149 A 
BRANCH  25  28
ATOM     28  C   UNL     1      11.120  -4.551  -2.982  0.00  0.00    +0.387 C 
ATOM     29  O   UNL     1      11.060  -4.781  -4.173  0.00  0.00    -0.241 OA
ATOM     30  O   UNL     1      12.046  -5.168  -2.222  0.00  0.00    -0.241 OA
ENDBRANCH  25  28
BRANCH  22  32
ATOM     31  C   UNL     1       7.674  -0.698   0.757  0.00  0.00    +0.277 C 
ATOM     32  O   UNL     1       7.547  -0.921  -0.648  0.00  0.00    -0.493 OA
ENDBRANCH  22  32
ENDBRANCH  19  27
ENDBRANCH   1  19
TORSDOF 8
