REMARK  Name = ZINC38169147
REMARK  8 active torsions:
REMARK  status: ('A' for Active; 'I' for Inactive)
REMARK    1  A    between atoms: C_1  and  C_2
REMARK    2  A    between atoms: C_6  and  O_32
REMARK    3  A    between atoms: C_7  and  O_30
REMARK    4  A    between atoms: N_12  and  N_13
REMARK    5  A    between atoms: C_14  and  C_15
REMARK    6  A    between atoms: C_20  and  O_21
REMARK    7  A    between atoms: O_30  and  C_31
REMARK    8  A    between atoms: O_32  and  C_33
REMARK                            x       y       z     vdW  Elec       q    Type
REMARK                         _______ _______ _______ _____ _____    ______ ____
ROOT
ATOM      1  N   UNL     1       0.024   0.078   2.389  0.00  0.00    -0.170 NA
ATOM      2  C   UNL     1      -0.055  -0.537   3.532  0.00  0.00    +0.145 C 
ENDROOT
BRANCH   2   3
ATOM      3  C   UNL     1      -0.164   0.236   4.776  0.00  0.00    +0.048 A 
ATOM      4  C   UNL     1      -0.244  -0.423   6.019  0.00  0.00    +0.036 A 
ATOM      5  C   UNL     1      -0.347   0.324   7.204  0.00  0.00    +0.137 A 
ATOM      6  C   UNL     1      -0.370   1.713   7.138  0.00  0.00    +0.065 A 
ATOM      7  C   UNL     1      -0.293   2.357   5.921  0.00  0.00    +0.063 A 
ATOM      8  C   UNL     1      -0.183   1.634   4.740  0.00  0.00    +0.140 A 
ATOM      9 BR   UNL     1      -0.329   4.247   5.861  0.00  0.00    -0.046 Br
ATOM     10  O   UNL     1      -0.404  -0.552   8.230  0.00  0.00    -0.459 OA
ATOM     11  C   UNL     1      -0.348  -1.817   7.783  0.00  0.00    +0.109 A 
ATOM     12  C   UNL     1      -0.249  -1.818   6.441  0.00  0.00    +0.002 A 
ATOM     13  C   UNL     1      -0.161  -3.054   5.586  0.00  0.00    +0.039 C 
ATOM     14  C   UNL     1       0.201  -4.243   6.486  0.00  0.00    +0.005 C 
ATOM     15  C   UNL     1      -0.728  -4.257   7.703  0.00  0.00    +0.008 C 
ATOM     16  C   UNL     1      -0.390  -3.076   8.619  0.00  0.00    +0.075 C 
BRANCH   8  17
ATOM     17  O   UNL     1      -0.101   2.284   3.550  0.00  0.00    -0.505 OA
ATOM     18  H   UNL     1      -0.958   2.459   3.137  0.00  0.00    +0.292 HD
ENDBRANCH   8  17
ENDBRANCH   2   3
BRANCH   1  30
ATOM     19  C   UNL     1       2.336   0.109   0.859  0.00  0.00    +0.088 C 
ATOM     20  C   UNL     1       1.129  -0.674   0.409  0.00  0.00    +0.132 A 
ATOM     21  N   UNL     1       1.202  -1.335  -0.706  0.00  0.00    -0.232 NA
ATOM     22  C   UNL     1       0.155  -2.061  -1.172  0.00  0.00    +0.082 A 
ATOM     23  C   UNL     1       0.236  -2.771  -2.371  0.00  0.00    +0.078 A 
ATOM     24  C   UNL     1      -0.853  -3.498  -2.811  0.00  0.00    +0.164 A 
ATOM     25  C   UNL     1      -2.037  -3.531  -2.066  0.00  0.00    +0.162 A 
ATOM     26  C   UNL     1      -2.135  -2.835  -0.879  0.00  0.00    +0.064 A 
ATOM     27  C   UNL     1      -1.043  -2.096  -0.423  0.00  0.00    +0.070 A 
ATOM     28  C   UNL     1      -1.093  -1.338   0.833  0.00  0.00    +0.282 A 
ATOM     29  O   UNL     1      -2.095  -1.327   1.526  0.00  0.00    -0.265 OA
ATOM     30  N   UNL     1       0.018  -0.656   1.196  0.00  0.00    -0.182 N 
BRANCH  25  31
ATOM     31  O   UNL     1      -3.098  -4.253  -2.516  0.00  0.00    -0.491 OA
ATOM     32  C   UNL     1      -4.277  -4.244  -1.709  0.00  0.00    +0.277 C 
ENDBRANCH  25  31
BRANCH  24  33
ATOM     33  O   UNL     1      -0.773  -4.189  -3.978  0.00  0.00    -0.491 OA
ATOM     34  C   UNL     1       0.463  -4.115  -4.691  0.00  0.00    +0.277 C 
ENDBRANCH  24  33
ENDBRANCH   1  30
TORSDOF 5
