REMARK  Name = ZINC41510609
REMARK  15 active torsions:
REMARK  status: ('A' for Active; 'I' for Inactive)
REMARK    1  A    between atoms: C_1  and  C_2
REMARK    2  A    between atoms: C_2  and  N_3
REMARK    3  A    between atoms: N_3  and  C_4
REMARK    4  A    between atoms: N_3  and  C_6
REMARK    5  A    between atoms: C_4  and  C_5
REMARK    6  A    between atoms: C_6  and  C_7
REMARK    7  A    between atoms: C_8  and  O_31
REMARK    8  A    between atoms: C_10  and  C_30
REMARK    9  A    between atoms: C_15  and  C_16
REMARK   10  A    between atoms: C_18  and  O_26
REMARK   11  A    between atoms: C_19  and  O_24
REMARK   12  A    between atoms: C_21  and  O_22
REMARK   13  A    between atoms: O_22  and  C_23
REMARK   14  A    between atoms: O_24  and  C_25
REMARK   15  A    between atoms: O_26  and  C_27
REMARK                            x       y       z     vdW  Elec       q    Type
REMARK                         _______ _______ _______ _____ _____    ______ ____
ROOT
ATOM      1  C   UNL     1      -1.327  -3.522  -2.166  0.00  0.00    +0.020 A 
ATOM      2  C   UNL     1      -2.003  -4.007  -1.058  0.00  0.00    +0.122 A 
ATOM      3  C   UNL     1      -3.393  -4.082  -1.054  0.00  0.00    +0.050 A 
ATOM      4  C   UNL     1      -4.106  -3.676  -2.146  0.00  0.00    -0.033 A 
ATOM      5  C   UNL     1      -3.439  -3.185  -3.268  0.00  0.00    +0.071 A 
ATOM      6  C   UNL     1      -2.037  -3.099  -3.283  0.00  0.00    +0.145 A 
ATOM      7  O   UNL     1      -1.625  -2.592  -4.465  0.00  0.00    -0.451 OA
ATOM      8  C   UNL     1      -2.667  -2.310  -5.282  0.00  0.00    +0.176 C 
ATOM      9  C   UNL     1      -2.586  -1.790  -6.536  0.00  0.00    +0.062 C 
ATOM     10  C   UNL     1      -3.899  -2.680  -4.575  0.00  0.00    +0.232 C 
ATOM     11  O   UNL     1      -5.047  -2.579  -4.973  0.00  0.00    -0.283 OA
ATOM     12  C   UNL     1      -5.611  -3.759  -2.139  0.00  0.00    +0.045 C 
ENDROOT
BRANCH   9  13
ATOM     13  C   UNL     1      -1.280  -1.624  -7.177  0.00  0.00    +0.024 A 
ATOM     14  C   UNL     1      -0.157  -2.295  -6.672  0.00  0.00    +0.061 A 
ATOM     15  C   UNL     1       1.070  -2.135  -7.280  0.00  0.00    +0.162 A 
ATOM     16  C   UNL     1       1.197  -1.306  -8.397  0.00  0.00    +0.165 A 
ATOM     17  C   UNL     1       0.091  -0.640  -8.903  0.00  0.00    +0.095 A 
ATOM     18  C   UNL     1      -1.147  -0.796  -8.306  0.00  0.00    +0.131 A 
BRANCH  18  19
ATOM     19  O   UNL     1      -2.230  -0.148  -8.805  0.00  0.00    -0.494 OA
ATOM     20  C   UNL     1      -2.020   0.676  -9.954  0.00  0.00    +0.277 C 
ENDBRANCH  18  19
BRANCH  16  21
ATOM     21  O   UNL     1       2.409  -1.153  -8.990  0.00  0.00    -0.491 OA
ATOM     22  C   UNL     1       2.469  -0.291 -10.129  0.00  0.00    +0.277 C 
ENDBRANCH  16  21
BRANCH  15  23
ATOM     23  O   UNL     1       2.160  -2.785  -6.790  0.00  0.00    -0.491 OA
ATOM     24  C   UNL     1       1.959  -3.616  -5.645  0.00  0.00    +0.277 C 
ENDBRANCH  15  23
ENDBRANCH   9  13
BRANCH   2  25
ATOM     25  O   UNL     1      -1.304  -4.414   0.032  0.00  0.00    -0.506 OA
ATOM     26  H   UNL     1      -1.144  -3.715   0.680  0.00  0.00    +0.292 HD
ENDBRANCH   2  25
BRANCH   1  27
ATOM     27  C   UNL     1       0.178  -3.446  -2.157  0.00  0.00    -0.036 C 
BRANCH  27  28
ATOM     28  N   UNL     1       0.600  -2.143  -1.627  0.00  0.00    +0.382 N 
ATOM     29  H   UNL     1       0.163  -1.406  -2.160  0.00  0.00    -0.081 HD
BRANCH  28  31
ATOM     30  C   UNL     1       0.556  -0.642   0.308  0.00  0.00    -0.017 C 
ATOM     31  C   UNL     1       0.196  -2.033  -0.219  0.00  0.00    -0.082 C 
ENDBRANCH  28  31
BRANCH  28  32
ATOM     32  C   UNL     1       2.060  -2.021  -1.729  0.00  0.00    -0.082 C 
ATOM     33  C   UNL     1       2.722  -3.154  -0.942  0.00  0.00    -0.017 C 
ENDBRANCH  28  32
ENDBRANCH  27  28
ENDBRANCH   1  27
TORSDOF 9
