REMARK  Name = ZINC26719879
REMARK  12 active torsions:
REMARK  status: ('A' for Active; 'I' for Inactive)
REMARK    1  A    between atoms: C_1  and  C_2
REMARK    2  A    between atoms: C_2  and  C_3
REMARK    3  A    between atoms: C_4  and  C_23
REMARK    4  A    between atoms: C_5  and  C_16
REMARK    5  A    between atoms: C_6  and  C_15
REMARK    6  A    between atoms: C_7  and  C_9
REMARK    7  A    between atoms: C_24  and  P_25
REMARK    8  A    between atoms: P_25  and  C_27
REMARK    9  A    between atoms: C_27  and  C_28
REMARK   10  A    between atoms: C_28  and  C_30
REMARK   11  A    between atoms: C_28  and  O_34
REMARK   12  A    between atoms: C_30  and  C_31
REMARK                            x       y       z     vdW  Elec       q    Type
REMARK                         _______ _______ _______ _____ _____    ______ ____
ROOT
ATOM      1  C   UNL     1       1.311   2.320   0.014  0.00  0.00    +0.049 A 
ATOM      2  C   UNL     1       1.985   2.408  -1.204  0.00  0.00    +0.004 A 
ATOM      3  C   UNL     1       3.379   2.626  -1.199  0.00  0.00    -0.004 A 
ATOM      4  C   UNL     1       4.022   2.744   0.033  0.00  0.00    -0.016 A 
ATOM      5  C   UNL     1       3.271   2.644   1.200  0.00  0.00    +0.075 A 
ATOM      6  N   UNL     1       1.958   2.443   1.153  0.00  0.00    -0.251 NA
ATOM      7  C   UNL     1       5.509   2.977   0.099  0.00  0.00    +0.046 C 
ENDROOT
BRANCH   3   8
ATOM      8  C   UNL     1       4.139   2.727  -2.467  0.00  0.00    -0.017 A 
ATOM      9  C   UNL     1       4.241   1.622  -3.311  0.00  0.00    +0.011 A 
ATOM     10  C   UNL     1       4.945   1.722  -4.493  0.00  0.00    +0.039 A 
ATOM     11  C   UNL     1       5.560   2.915  -4.837  0.00  0.00    +0.123 A 
ATOM     12  C   UNL     1       5.466   4.015  -3.998  0.00  0.00    +0.039 A 
ATOM     13  C   UNL     1       4.760   3.926  -2.817  0.00  0.00    +0.011 A 
ATOM     14  F   UNL     1       6.253   3.007  -5.993  0.00  0.00    -0.205 F 
ENDBRANCH   3   8
BRANCH   5  15
ATOM     15  C   UNL     1       3.944   2.768   2.515  0.00  0.00    +0.001 A 
ATOM     16  C   UNL     1       3.630   1.886   3.548  0.00  0.00    +0.010 A 
ATOM     17  C   UNL     1       4.265   2.003   4.768  0.00  0.00    +0.001 A 
ATOM     18  C   UNL     1       5.202   3.000   4.970  0.00  0.00    +0.000 A 
ATOM     19  C   UNL     1       5.513   3.882   3.951  0.00  0.00    +0.001 A 
ATOM     20  C   UNL     1       4.889   3.771   2.725  0.00  0.00    +0.010 A 
ENDBRANCH   5  15
BRANCH   1  22
ATOM     21  C   UNL     1      -0.904   3.426  -0.128  0.00  0.00    +0.010 C 
ATOM     22  C   UNL     1      -0.178   2.088   0.026  0.00  0.00    +0.053 C 
ENDBRANCH   1  22
BRANCH   2  23
ATOM     23  C   UNL     1       1.252   2.276  -2.477  0.00  0.00    +0.016 C 
ATOM     24  C   UNL     1       0.566   1.169  -2.736  0.00  0.00    +0.071 C 
BRANCH  24  25
ATOM     25  P   UNL     1      -0.452   1.063  -4.234  0.00  0.00    +0.260 P 
ATOM     26  O   UNL     1      -1.864   0.829  -3.855  0.00  0.00    -0.284 OA
ATOM     27  O   UNL     1      -0.339   2.441  -5.059  0.00  0.00    -0.165 OA
BRANCH  25  28
ATOM     28  C   UNL     1       0.135  -0.316  -5.271  0.00  0.00    +0.135 C 
BRANCH  28  29
ATOM     29  C   UNL     1      -0.799  -0.485  -6.471  0.00  0.00    +0.135 C 
BRANCH  29  30
ATOM     30  O   UNL     1      -2.094  -0.881  -6.015  0.00  0.00    -0.391 OA
ATOM     31  H   UNL     1      -2.904  -1.051  -6.740  0.00  0.00    +0.210 HD
ENDBRANCH  29  30
BRANCH  29  32
ATOM     32  C   UNL     1      -0.238  -1.559  -7.407  0.00  0.00    +0.157 C 
BRANCH  32  33
ATOM     33  C   UNL     1      -1.090  -1.639  -8.647  0.00  0.00    +0.358 C 
ATOM     34  O   UNL     1      -2.047  -0.912  -8.770  0.00  0.00    -0.246 OA
ATOM     35  O   UNL     1      -0.785  -2.518  -9.615  0.00  0.00    -0.246 OA
ENDBRANCH  32  33
ENDBRANCH  29  32
ENDBRANCH  28  29
ENDBRANCH  25  28
ENDBRANCH  24  25
ENDBRANCH   2  23
TORSDOF 10
