REMARK  Name = ZINC09602043
REMARK  8 active torsions:
REMARK  status: ('A' for Active; 'I' for Inactive)
REMARK    1  A    between atoms: C_1  and  C_2
REMARK    2  A    between atoms: C_3  and  C_34
REMARK    3  A    between atoms: C_5  and  N_26
REMARK    4  A    between atoms: C_6  and  C_7
REMARK    5  A    between atoms: C_7  and  C_9
REMARK    6  A    between atoms: C_7  and  N_62
REMARK    7  A    between atoms: N_17  and  C_20
REMARK    8  A    between atoms: C_27  and  C_29
REMARK                            x       y       z     vdW  Elec       q    Type
REMARK                         _______ _______ _______ _____ _____    ______ ____
ROOT
ATOM      1  C   UNL     1       0.012   3.327   0.989  0.00  0.00    -0.003 C 
ENDROOT
BRANCH   1   7
ATOM      2  C   UNL     1      -1.565   1.018   0.168  0.00  0.00    +0.045 C 
ATOM      3  C   UNL     1      -0.059   0.950   0.184  0.00  0.00    -0.037 A 
ATOM      4  C   UNL     1       0.580  -0.185  -0.186  0.00  0.00    -0.008 A 
ATOM      5  S   UNL     1       2.295   0.273   0.006  0.00  0.00    -0.078 S 
ATOM      6  C   UNL     1       2.047   1.949   0.568  0.00  0.00    +0.074 A 
ATOM      7  C   UNL     1       0.688   2.047   0.572  0.00  0.00    -0.025 A 
ATOM      8  C   UNL     1      -0.005  -1.497  -0.642  0.00  0.00    +0.052 C 
BRANCH   6   9
ATOM      9  N   UNL     1       2.999   2.911   0.913  0.00  0.00    -0.273 N 
ATOM     10  C   UNL     1       4.305   2.581   0.956  0.00  0.00    +0.284 C 
ATOM     11  O   UNL     1       4.655   1.445   0.694  0.00  0.00    -0.266 OA
ATOM     12  H   UNL     1       2.720   3.816   1.123  0.00  0.00    +0.156 HD
BRANCH  10  13
ATOM     13  C   UNL     1       5.304   3.591   1.319  0.00  0.00    +0.189 A 
ATOM     14  C   UNL     1       6.653   3.392   1.401  0.00  0.00    +0.054 A 
ATOM     15  C   UNL     1       7.220   4.620   1.778  0.00  0.00    +0.042 A 
ATOM     16  C   UNL     1       6.206   5.503   1.908  0.00  0.00    +0.196 A 
ATOM     17  O   UNL     1       5.053   4.880   1.625  0.00  0.00    -0.458 OA
ENDBRANCH  10  13
ENDBRANCH   6   9
ENDBRANCH   1   7
BRANCH   1  23
ATOM     18  C   UNL     1       0.120   5.741   0.831  0.00  0.00    -0.058 C 
ATOM     19  C   UNL     1       0.956   6.908   0.299  0.00  0.00    +0.086 C 
ATOM     20  N   UNL     1       1.054   6.809  -1.164  0.00  0.00    -0.333 N 
ATOM     21  C   UNL     1       1.678   5.540  -1.563  0.00  0.00    +0.086 C 
ATOM     22  C   UNL     1       0.843   4.373  -1.030  0.00  0.00    -0.058 C 
ATOM     23  N   UNL     1       0.770   4.472   0.443  0.00  0.00    +0.389 N 
ATOM     24  H   UNL     1       1.723   4.455   0.825  0.00  0.00    -0.080 HD
BRANCH  20  25
ATOM     25  C   UNL     1       1.750   7.898  -1.694  0.00  0.00    +0.030 A 
ATOM     26  C   UNL     1       2.878   7.688  -2.477  0.00  0.00    +0.023 A 
ATOM     27  C   UNL     1       3.562   8.767  -3.003  0.00  0.00    +0.002 A 
ATOM     28  C   UNL     1       3.131  10.055  -2.742  0.00  0.00    +0.000 A 
ATOM     29  C   UNL     1       2.011  10.267  -1.958  0.00  0.00    +0.002 A 
ATOM     30  C   UNL     1       1.320   9.193  -1.433  0.00  0.00    +0.023 A 
ENDBRANCH  20  25
ENDBRANCH   1  23
BRANCH   1  31
ATOM     31  C   UNL     1       0.001   3.421   2.493  0.00  0.00    -0.038 A 
ATOM     32  C   UNL     1      -1.110   3.009   3.214  0.00  0.00    +0.005 A 
ATOM     33  C   UNL     1      -1.074   3.110   4.597  0.00  0.00    +0.020 A 
ATOM     34  C   UNL     1       0.056   3.624   5.205  0.00  0.00    +0.111 A 
ATOM     35  N   UNL     1       1.092   4.011   4.487  0.00  0.00    -0.263 NA
ATOM     36  C   UNL     1       1.095   3.925   3.171  0.00  0.00    +0.113 A 
ENDBRANCH   1  31
TORSDOF 6
