REMARK  Name = ZINC40023410
REMARK  4 active torsions:
REMARK  status: ('A' for Active; 'I' for Inactive)
REMARK    1  A    between atoms: C_6  and  N_7
REMARK    2  A    between atoms: N_7  and  C_8
REMARK    3  A    between atoms: C_8  and  C_9
REMARK    4  A    between atoms: N_11  and  C_12
REMARK                            x       y       z     vdW  Elec       q    Type
REMARK                         _______ _______ _______ _____ _____    ______ ____
ROOT
ATOM      1  C   UNL     1      -3.611  -1.001   0.037  0.00  0.00    +0.234 C 
ATOM      2  O   UNL     1      -3.373  -2.190   0.025  0.00  0.00    -0.274 OA
ATOM      3  N   UNL     1      -4.887  -0.568   0.046  0.00  0.00    -0.283 N 
ATOM      4  H   UNL     1      -5.078   0.380   0.122  0.00  0.00    +0.155 HD
ENDROOT
BRANCH   3   5
ATOM      5  C   UNL     1      -5.939  -1.489  -0.055  0.00  0.00    +0.056 A 
ATOM      6  C   UNL     1      -5.823  -2.743   0.529  0.00  0.00    +0.074 A 
ATOM      7  C   UNL     1      -6.864  -3.653   0.430  0.00  0.00    +0.164 A 
ATOM      8  C   UNL     1      -8.024  -3.307  -0.253  0.00  0.00    +0.164 A 
ATOM      9  C   UNL     1      -8.137  -2.054  -0.837  0.00  0.00    +0.071 A 
ATOM     10  C   UNL     1      -7.101  -1.145  -0.734  0.00  0.00    +0.066 A 
ATOM     11 CL   UNL     1      -7.250   0.426  -1.459  0.00  0.00    -0.082 Cl
ATOM     12  O   UNL     1      -9.061  -4.185  -0.354  0.00  0.00    -0.485 OA
ATOM     13  C   UNL     1      -8.768  -5.560  -0.081  0.00  0.00    +0.270 C 
ATOM     14  C   UNL     1      -7.937  -5.627   1.208  0.00  0.00    +0.270 C 
ATOM     15  O   UNL     1      -6.733  -4.880   1.004  0.00  0.00    -0.485 OA
ENDBRANCH   3   5
BRANCH   1  16
ATOM     16  C   UNL     1      -2.478  -0.006   0.044  0.00  0.00    +0.198 C 
BRANCH  16  17
ATOM     17  N   UNL     1      -1.200  -0.722   0.033  0.00  0.00    -0.335 N 
ATOM     18  H   UNL     1      -1.187  -1.692   0.023  0.00  0.00    +0.147 HD
BRANCH  17  24
ATOM     19  C   UNL     1      -0.016   1.382   0.050  0.00  0.00    +0.027 A 
ATOM     20  C   UNL     1       1.171   2.090   0.053  0.00  0.00    +0.051 A 
ATOM     21  C   UNL     1       2.382   1.417   0.042  0.00  0.00    +0.173 A 
ATOM     22  C   UNL     1       2.404   0.025   0.028  0.00  0.00    +0.174 A 
ATOM     23  C   UNL     1       1.214  -0.684   0.026  0.00  0.00    +0.072 A 
ATOM     24  C   UNL     1       0.003  -0.006   0.036  0.00  0.00    +0.031 A 
ATOM     25  O   UNL     1       3.704  -0.392   0.020  0.00  0.00    -0.395 OA
ATOM     26  C   UNL     1       4.473   0.757  -0.384  0.00  0.00    +0.589 C 
ATOM     27  O   UNL     1       3.670   1.873   0.042  0.00  0.00    -0.395 OA
ATOM     28  F   UNL     1       4.639   0.773  -1.773  0.00  0.00    -0.125 F 
ATOM     29  F   UNL     1       5.714   0.769   0.261  0.00  0.00    -0.125 F 
ENDBRANCH  17  24
ENDBRANCH  16  17
ENDBRANCH   1  16
TORSDOF 4
