REMARK  Name = ZINC13915114
REMARK  7 active torsions:
REMARK  status: ('A' for Active; 'I' for Inactive)
REMARK    1  A    between atoms: C_1  and  C_2
REMARK    2  A    between atoms: C_3  and  C_21
REMARK    3  A    between atoms: C_4  and  C_10
REMARK    4  A    between atoms: C_12  and  O_19
REMARK    5  A    between atoms: C_13  and  O_18
REMARK    6  A    between atoms: O_19  and  C_20
REMARK    7  A    between atoms: C_21  and  C_23
REMARK                            x       y       z     vdW  Elec       q    Type
REMARK                         _______ _______ _______ _____ _____    ______ ____
ROOT
ATOM      1  C   UNL     1      -0.312   1.031  -0.097  0.00  0.00    +0.061 C 
ATOM      2  C   UNL     1      -0.874   1.543   1.204  0.00  0.00    +0.015 C 
ATOM      3  C   UNL     1      -0.781   2.864   1.498  0.00  0.00    +0.036 C 
ATOM      4  C   UNL     1      -1.365   3.335   2.815  0.00  0.00    +0.139 C 
ATOM      5  N   UNL     1      -1.979   2.310   3.676  0.00  0.00    -0.315 N 
ATOM      6  C   UNL     1      -1.989   1.033   3.246  0.00  0.00    +0.135 C 
ATOM      7  S   UNL     1      -2.700  -0.168   4.238  0.00  0.00    -0.019 S 
ATOM      8  N   UNL     1      -1.463   0.672   2.069  0.00  0.00    -0.300 N 
ATOM      9  H   UNL     1      -2.367   2.549   4.532  0.00  0.00    +0.149 HD
ATOM     10  H   UNL     1      -1.504  -0.264   1.818  0.00  0.00    +0.154 HD
ENDROOT
BRANCH   4  11
ATOM     11  C   UNL     1      -0.260   3.998   3.597  0.00  0.00    -0.004 A 
ATOM     12  C   UNL     1       1.060   3.680   3.332  0.00  0.00    +0.056 A 
ATOM     13  C   UNL     1       2.077   4.292   4.045  0.00  0.00    +0.163 A 
ATOM     14  C   UNL     1       1.768   5.219   5.037  0.00  0.00    +0.174 A 
ATOM     15  C   UNL     1       0.444   5.529   5.303  0.00  0.00    +0.077 A 
ATOM     16  C   UNL     1      -0.568   4.918   4.582  0.00  0.00    +0.041 A 
ATOM     17 BR   UNL     1      -2.374   5.342   4.946  0.00  0.00    -0.049 Br
ATOM     18 BR   UNL     1       0.019   6.788   6.648  0.00  0.00    -0.045 Br
BRANCH  14  19
ATOM     19  O   UNL     1       2.764   5.818   5.743  0.00  0.00    -0.503 OA
ATOM     20  H   UNL     1       3.019   5.341   6.545  0.00  0.00    +0.292 HD
ENDBRANCH  14  19
BRANCH  13  21
ATOM     21  O   UNL     1       3.375   3.984   3.781  0.00  0.00    -0.491 OA
ATOM     22  C   UNL     1       3.618   3.025   2.750  0.00  0.00    +0.277 C 
ENDBRANCH  13  21
ENDBRANCH   4  11
BRANCH   3  23
ATOM     23  C   UNL     1      -0.169   3.764   0.611  0.00  0.00    +0.160 C 
ATOM     24  O   UNL     1       0.387   3.350  -0.387  0.00  0.00    -0.293 OA
ATOM     25  C   UNL     1      -0.201   5.243   0.897  0.00  0.00    +0.091 C 
ENDBRANCH   3  23
TORSDOF 4
