REMARK  Name = ZINC08551390
REMARK  11 active torsions:
REMARK  status: ('A' for Active; 'I' for Inactive)
REMARK    1  A    between atoms: C_3  and  O_37
REMARK    2  A    between atoms: C_4  and  O_36
REMARK    3  A    between atoms: C_6  and  C_7
REMARK    4  A    between atoms: C_15  and  O_35
REMARK    5  A    between atoms: C_16  and  C_19
REMARK    6  A    between atoms: C_17  and  O_18
REMARK    7  A    between atoms: C_21  and  O_34
REMARK    8  A    between atoms: C_23  and  O_33
REMARK    9  A    between atoms: C_25  and  O_32
REMARK   10  A    between atoms: C_27  and  C_30
REMARK   11  A    between atoms: C_30  and  O_31
REMARK                            x       y       z     vdW  Elec       q    Type
REMARK                         _______ _______ _______ _____ _____    ______ ____
ROOT
ATOM      1  C   UNL     1       1.166   3.564   0.010  0.00  0.00    +0.139 A 
ATOM      2  C   UNL     1      -0.035   4.204   0.019  0.00  0.00    +0.098 A 
ATOM      3  C   UNL     1      -0.071   5.618   0.033  0.00  0.00    +0.197 A 
ATOM      4  O   UNL     1      -1.130   6.225   0.047  0.00  0.00    -0.287 OA
ATOM      5  C   UNL     1       1.218   6.330   0.024  0.00  0.00    +0.106 A 
ATOM      6  C   UNL     1       2.402   5.572   0.009  0.00  0.00    +0.146 A 
ATOM      7  O   UNL     1       2.335   4.224   0.002  0.00  0.00    -0.454 OA
ATOM      8  C   UNL     1       3.626   6.222   0.000  0.00  0.00    +0.093 A 
ATOM      9  C   UNL     1       3.677   7.607   0.006  0.00  0.00    +0.130 A 
ATOM     10  C   UNL     1       2.507   8.359   0.021  0.00  0.00    +0.067 A 
ATOM     11  C   UNL     1       1.276   7.729   0.030  0.00  0.00    +0.140 A 
ENDROOT
BRANCH   1  17
ATOM     12  C   UNL     1      -0.017   1.374   0.010  0.00  0.00    +0.015 A 
ATOM     13  C   UNL     1       0.002  -0.004   0.002  0.00  0.00    +0.050 A 
ATOM     14  C   UNL     1       1.211  -0.685  -0.013  0.00  0.00    +0.158 A 
ATOM     15  C   UNL     1       2.413   0.022  -0.021  0.00  0.00    +0.159 A 
ATOM     16  C   UNL     1       2.402   1.403  -0.014  0.00  0.00    +0.060 A 
ATOM     17  C   UNL     1       1.184   2.089   0.002  0.00  0.00    +0.021 A 
BRANCH  15  18
ATOM     18  O   UNL     1       3.596  -0.648  -0.036  0.00  0.00    -0.503 OA
ATOM     19  H   UNL     1       3.930  -0.837  -0.924  0.00  0.00    +0.292 HD
ENDBRANCH  15  18
BRANCH  14  20
ATOM     20  O   UNL     1       1.224  -2.043  -0.020  0.00  0.00    -0.503 OA
ATOM     21  H   UNL     1       1.220  -2.432  -0.905  0.00  0.00    +0.292 HD
ENDBRANCH  14  20
ENDBRANCH   1  17
BRANCH  10  22
ATOM     22  C   UNL     1       2.581   9.864   0.027  0.00  0.00    +0.187 C 
ATOM     23  C   UNL     1       2.994  10.350   1.419  0.00  0.00    +0.179 C 
ATOM     24  C   UNL     1       3.125  11.876   1.401  0.00  0.00    +0.177 C 
ATOM     25  C   UNL     1       4.136  12.277   0.322  0.00  0.00    +0.176 C 
ATOM     26  C   UNL     1       3.679  11.717  -1.028  0.00  0.00    +0.175 C 
ATOM     27  O   UNL     1       3.547  10.298  -0.933  0.00  0.00    -0.361 OA
BRANCH  25  28
ATOM     28  O   UNL     1       4.213  13.702   0.246  0.00  0.00    -0.386 OA
ATOM     29  H   UNL     1       4.492  14.125   1.070  0.00  0.00    +0.210 HD
ENDBRANCH  25  28
BRANCH  24  30
ATOM     30  O   UNL     1       3.581  12.332   2.676  0.00  0.00    -0.386 OA
ATOM     31  H   UNL     1       3.687  13.291   2.736  0.00  0.00    +0.210 HD
ENDBRANCH  24  30
BRANCH  23  32
ATOM     32  O   UNL     1       4.248   9.765   1.776  0.00  0.00    -0.386 OA
ATOM     33  H   UNL     1       4.571  10.030   2.648  0.00  0.00    +0.210 HD
ENDBRANCH  23  32
BRANCH  26  34
ATOM     34  C   UNL     1       4.714  12.063  -2.100  0.00  0.00    +0.190 C 
BRANCH  34  35
ATOM     35  O   UNL     1       4.234  11.643  -3.379  0.00  0.00    -0.392 OA
ATOM     36  H   UNL     1       4.841  11.831  -4.108  0.00  0.00    +0.210 HD
ENDBRANCH  34  35
ENDBRANCH  26  34
ENDBRANCH  10  22
BRANCH  11  37
ATOM     37  O   UNL     1       0.134   8.461   0.045  0.00  0.00    -0.505 OA
ATOM     38  H   UNL     1      -0.189   8.669   0.932  0.00  0.00    +0.292 HD
ENDBRANCH  11  37
BRANCH   9  39
ATOM     39  O   UNL     1       4.880   8.236  -0.003  0.00  0.00    -0.506 OA
ATOM     40  H   UNL     1       5.237   8.414   0.877  0.00  0.00    +0.292 HD
ENDBRANCH   9  39
TORSDOF 11
