REMARK  Name = ZINC33724045
REMARK  4 active torsions:
REMARK  status: ('A' for Active; 'I' for Inactive)
REMARK    1  A    between atoms: C_1  and  N_2
REMARK    2  A    between atoms: N_5  and  C_8
REMARK    3  A    between atoms: C_9  and  C_19
REMARK    4  A    between atoms: N_23  and  C_27
REMARK                            x       y       z     vdW  Elec       q    Type
REMARK                         _______ _______ _______ _____ _____    ______ ____
ROOT
ATOM      1  C   UNL     1      -1.563   3.458   4.830  0.00  0.00    +0.136 A 
ATOM      2  C   UNL     1      -1.797   4.843   5.002  0.00  0.00    +0.081 A 
ATOM      3  C   UNL     1      -2.501   5.267   6.154  0.00  0.00    +0.267 A 
ATOM      4  O   UNL     1      -2.728   6.450   6.340  0.00  0.00    -0.267 OA
ATOM      5  N   UNL     1      -2.912   4.341   7.046  0.00  0.00    -0.268 N 
ATOM      6  C   UNL     1      -3.586   4.741   8.161  0.00  0.00    +0.096 A 
ATOM      7  C   UNL     1      -4.011   3.839   9.074  0.00  0.00    +0.018 A 
ATOM      8  C   UNL     1      -3.761   2.474   8.882  0.00  0.00    +0.005 A 
ATOM      9  C   UNL     1      -3.088   2.063   7.770  0.00  0.00    +0.047 A 
ATOM     10  C   UNL     1      -2.653   3.015   6.831  0.00  0.00    +0.142 A 
ATOM     11  N   UNL     1      -1.995   2.604   5.747  0.00  0.00    -0.214 NA
ENDROOT
BRANCH   1  16
ATOM     12  C   UNL     1       1.392   0.651   1.050  0.00  0.00    -0.096 C 
ATOM     13  N   UNL     1       0.670   1.139   2.233  0.00  0.00    +0.380 N 
ATOM     14  C   UNL     1      -0.757   1.327   1.938  0.00  0.00    -0.060 C 
ATOM     15  C   UNL     1      -1.486   1.758   3.213  0.00  0.00    +0.088 C 
ATOM     16  N   UNL     1      -0.887   3.001   3.721  0.00  0.00    -0.318 N 
ATOM     17  C   UNL     1       0.541   2.812   4.015  0.00  0.00    +0.088 C 
ATOM     18  C   UNL     1       1.269   2.381   2.740  0.00  0.00    -0.060 C 
ATOM     19  H   UNL     1       0.757   0.374   3.019  0.00  0.00    -0.082 HD
ENDBRANCH   1  16
BRANCH   2  20
ATOM     20  C   UNL     1      -1.343   5.779   4.043  0.00  0.00    +0.037 C 
ATOM     21  C   UNL     1      -0.370   6.677   4.375  0.00  0.00    +0.077 C 
ATOM     22  C   UNL     1       0.394   6.784   5.572  0.00  0.00    +0.259 C 
ATOM     23  O   UNL     1       0.227   6.005   6.494  0.00  0.00    -0.269 OA
ATOM     24  N   UNL     1       1.292   7.750   5.653  0.00  0.00    -0.251 N 
ATOM     25  C   UNL     1       1.472   8.620   4.633  0.00  0.00    +0.121 C 
ATOM     26  S   UNL     1       2.559   9.938   4.525  0.00  0.00    -0.027 S 
ATOM     27  S   UNL     1       0.285   8.044   3.428  0.00  0.00    -0.061 S 
BRANCH  24  28
ATOM     28  C   UNL     1       2.100   7.886   6.868  0.00  0.00    +0.105 C 
ATOM     29  C   UNL     1       1.880   9.276   7.486  0.00  0.00    +0.047 C 
ATOM     30  C   UNL     1       2.951   9.548   8.569  0.00  0.00    +0.168 C 
ATOM     31  S   UNL     1       4.375   8.538   7.990  0.00  0.00    -0.029 S 
ATOM     32  O   UNL     1       4.655   7.536   8.959  0.00  0.00    -0.174 OA
ATOM     33  O   UNL     1       5.415   9.406   7.562  0.00  0.00    -0.174 OA
ATOM     34  C   UNL     1       3.608   7.747   6.514  0.00  0.00    +0.188 C 
ENDBRANCH  24  28
ENDBRANCH   2  20
TORSDOF 3
