REMARK  Name = ZINC41547232
REMARK  7 active torsions:
REMARK  status: ('A' for Active; 'I' for Inactive)
REMARK    1  A    between atoms: C_1  and  C_2
REMARK    2  A    between atoms: C_11  and  C_13
REMARK    3  A    between atoms: C_11  and  C_14
REMARK    4  A    between atoms: N_16  and  C_17
REMARK    5  A    between atoms: C_20  and  N_23
REMARK    6  A    between atoms: C_24  and  C_30
REMARK    7  A    between atoms: C_26  and  C_28
REMARK                            x       y       z     vdW  Elec       q    Type
REMARK                         _______ _______ _______ _____ _____    ______ ____
ROOT
ATOM      1  C   UNL     1       0.306  -6.239   1.087  0.00  0.00    +0.270 C 
ATOM      2  O   UNL     1       0.217  -6.815   2.151  0.00  0.00    -0.271 OA
ATOM      3  N   UNL     1       0.052  -6.899  -0.060  0.00  0.00    -0.282 N 
ATOM      4  H   UNL     1       0.057  -6.423  -0.905  0.00  0.00    +0.155 HD
ENDROOT
BRANCH   1  15
ATOM      5  C   UNL     1      -0.066   1.502   0.024  0.00  0.00    +0.044 C 
ATOM      6  C   UNL     1      -0.037  -0.005   0.013  0.00  0.00    -0.048 A 
ATOM      7  C   UNL     1      -0.036  -0.685  -1.190  0.00  0.00    +0.007 A 
ATOM      8  C   UNL     1      -0.015  -2.068  -1.208  0.00  0.00    +0.048 A 
ATOM      9  C   UNL     1       0.007  -2.773  -0.017  0.00  0.00    +0.144 A 
ATOM     10  C   UNL     1       0.017  -2.087   1.195  0.00  0.00    +0.076 A 
ATOM     11  C   UNL     1      -0.006  -0.702   1.207  0.00  0.00    +0.030 A 
ATOM     12  N   UNL     1       0.074  -2.808   2.396  0.00  0.00    -0.279 N 
ATOM     13  C   UNL     1       0.338  -4.131   2.358  0.00  0.00    +0.270 C 
ATOM     14  O   UNL     1       0.284  -4.793   3.373  0.00  0.00    -0.271 OA
ATOM     15  C   UNL     1       0.700  -4.785   1.048  0.00  0.00    +0.258 C 
ATOM     16  O   UNL     1       0.009  -4.134  -0.021  0.00  0.00    -0.465 OA
ATOM     17  C   UNL     1       2.209  -4.673   0.823  0.00  0.00    +0.076 C 
ATOM     18  H   UNL     1      -0.073  -2.362   3.244  0.00  0.00    +0.155 HD
ENDBRANCH   1  15
BRANCH   3  19
ATOM     19  C   UNL     1      -0.220  -8.272  -0.032  0.00  0.00    +0.034 A 
ATOM     20  C   UNL     1       0.221  -9.089  -1.065  0.00  0.00    +0.025 A 
ATOM     21  C   UNL     1      -0.046 -10.443  -1.038  0.00  0.00    +0.029 A 
ATOM     22  C   UNL     1      -0.756 -10.988   0.024  0.00  0.00    +0.066 A 
ATOM     23  C   UNL     1      -1.197 -10.172   1.057  0.00  0.00    +0.029 A 
ATOM     24  C   UNL     1      -0.924  -8.819   1.032  0.00  0.00    +0.025 A 
BRANCH  22  25
ATOM     25  N   UNL     1      -1.029 -12.364   0.051  0.00  0.00    -0.235 N 
ATOM     26  C   UNL     1      -1.081 -13.147   1.160  0.00  0.00    +0.060 A 
ATOM     27  C   UNL     1      -1.371 -14.407   0.758  0.00  0.00    +0.085 A 
ATOM     28  C   UNL     1      -1.501 -14.396  -0.636  0.00  0.00    +0.079 A 
ATOM     29  N   UNL     1      -1.302 -13.174  -1.059  0.00  0.00    -0.170 NA
ATOM     30  C   UNL     1      -1.821 -15.588  -1.501  0.00  0.00    +0.069 C 
ATOM     31 CL   UNL     1      -1.551 -15.792   1.789  0.00  0.00    -0.080 Cl
ATOM     32  C   UNL     1      -0.856 -12.696   2.580  0.00  0.00    +0.067 C 
ENDBRANCH  22  25
ENDBRANCH   3  19
TORSDOF 3
