REMARK  Name = ZINC13393817
REMARK  8 active torsions:
REMARK  status: ('A' for Active; 'I' for Inactive)
REMARK    1  A    between atoms: C_1  and  C_2
REMARK    2  A    between atoms: C_2  and  C_3
REMARK    3  A    between atoms: C_3  and  C_4
REMARK    4  A    between atoms: N_6  and  C_7
REMARK    5  A    between atoms: C_10  and  C_13
REMARK    6  A    between atoms: C_19  and  C_21
REMARK    7  A    between atoms: C_23  and  C_30
REMARK    8  A    between atoms: C_25  and  N_27
REMARK                            x       y       z     vdW  Elec       q    Type
REMARK                         _______ _______ _______ _____ _____    ______ ____
ROOT
ATOM      1  C   UNL     1      -5.930  -1.192  -0.351  0.00  0.00    +0.080 A 
ATOM      2  C   UNL     1      -5.872  -2.558  -0.352  0.00  0.00    +0.076 A 
ATOM      3  S   UNL     1      -7.608  -2.964  -0.484  0.00  0.00    -0.060 S 
ATOM      4  C   UNL     1      -8.227  -1.288  -0.524  0.00  0.00    +0.165 A 
ATOM      5  N   UNL     1      -7.108  -0.592  -0.432  0.00  0.00    -0.225 NA
ATOM      6  N   UNL     1      -9.536  -0.837  -0.621  0.00  0.00    -0.261 N 
ATOM      7  C   UNL     1     -10.550  -1.722  -0.700  0.00  0.00    +0.250 C 
ATOM      8  O   UNL     1     -10.317  -2.915  -0.687  0.00  0.00    -0.270 OA
ATOM      9  H   UNL     1      -9.722   0.115  -0.632  0.00  0.00    +0.157 HD
ENDROOT
BRANCH   1  13
ATOM     10  C   UNL     1      -2.364   1.109  -0.073  0.00  0.00    +0.033 A 
ATOM     11  C   UNL     1      -2.295  -0.278  -0.079  0.00  0.00    +0.024 A 
ATOM     12  C   UNL     1      -3.450  -1.027  -0.163  0.00  0.00    +0.012 A 
ATOM     13  C   UNL     1      -4.687  -0.390  -0.254  0.00  0.00    +0.001 A 
ATOM     14  C   UNL     1      -4.753   1.003  -0.254  0.00  0.00    +0.012 A 
ATOM     15  C   UNL     1      -3.595   1.747  -0.164  0.00  0.00    +0.024 A 
BRANCH  10  18
ATOM     16  C   UNL     1      -0.147   1.409   0.737  0.00  0.00    +0.217 C 
ATOM     17  O   UNL     1      -0.257   0.388   1.383  0.00  0.00    -0.275 OA
ATOM     18  N   UNL     1      -1.191   1.867   0.018  0.00  0.00    -0.285 N 
ATOM     19  H   UNL     1      -1.128   2.721  -0.437  0.00  0.00    +0.155 HD
BRANCH  16  20
ATOM     20  C   UNL     1       1.159   2.161   0.734  0.00  0.00    +0.096 C 
BRANCH  20  22
ATOM     21  C   UNL     1       3.496   2.194   1.616  0.00  0.00    +0.004 C 
ATOM     22  C   UNL     1       2.171   1.430   1.619  0.00  0.00    +0.006 C 
ENDBRANCH  20  22
ENDBRANCH  16  20
ENDBRANCH  10  18
ENDBRANCH   1  13
BRANCH   7  23
ATOM     23  C   UNL     1     -11.944  -1.242  -0.804  0.00  0.00    +0.040 A 
ATOM     24  C   UNL     1     -12.993  -2.155  -0.885  0.00  0.00    +0.028 A 
ATOM     25  C   UNL     1     -14.304  -1.694  -0.983  0.00  0.00    +0.066 A 
ATOM     26  C   UNL     1     -14.559  -0.320  -0.997  0.00  0.00    +0.048 A 
ATOM     27  C   UNL     1     -13.515   0.579  -0.915  0.00  0.00    +0.128 A 
ATOM     28  C   UNL     1     -12.213   0.129  -0.814  0.00  0.00    +0.045 A 
BRANCH  27  29
ATOM     29  N   UNL     1     -13.792   2.033  -0.931  0.00  0.00    +0.056 N 
ATOM     30  O   UNL     1     -14.940   2.433  -1.015  0.00  0.00    -0.126 OA
ATOM     31  O   UNL     1     -12.873   2.829  -0.859  0.00  0.00    -0.126 OA
ENDBRANCH  27  29
BRANCH  25  32
ATOM     32  C   UNL     1     -15.423  -2.656  -1.069  0.00  0.00    +0.387 C 
ATOM     33  O   UNL     1     -15.200  -3.850  -1.056  0.00  0.00    -0.241 OA
ATOM     34  O   UNL     1     -16.690  -2.208  -1.163  0.00  0.00    -0.241 OA
ENDBRANCH  25  32
ENDBRANCH   7  23
TORSDOF 7
