REMARK  Name = ZINC02381771
REMARK  8 active torsions:
REMARK  status: ('A' for Active; 'I' for Inactive)
REMARK    1  A    between atoms: C_1  and  C_2
REMARK    2  A    between atoms: C_2  and  C_4
REMARK    3  A    between atoms: C_7  and  N_10
REMARK    4  A    between atoms: C_11  and  C_13
REMARK    5  A    between atoms: C_13  and  N_14
REMARK    6  A    between atoms: C_22  and  C_24
REMARK    7  A    between atoms: C_22  and  C_25
REMARK    8  A    between atoms: N_28  and  C_31
REMARK                            x       y       z     vdW  Elec       q    Type
REMARK                         _______ _______ _______ _____ _____    ______ ____
ROOT
ATOM      1  N   UNL     1       0.375  -6.327  -5.372  0.00  0.00    -0.278 N 
ATOM      2  C   UNL     1       1.575  -6.874  -5.747  0.00  0.00    +0.098 A 
ATOM      3  C   UNL     1       1.675  -8.221  -6.094  0.00  0.00    +0.074 A 
ATOM      4  C   UNL     1       3.010  -8.673  -6.473  0.00  0.00    -0.018 A 
ATOM      5  C   UNL     1       3.966  -7.720  -6.435  0.00  0.00    +0.021 A 
ATOM      6  S   UNL     1       3.122  -6.260  -5.910  0.00  0.00    -0.073 S 
ATOM      7  C   UNL     1       5.412  -7.911  -6.771  0.00  0.00    +0.203 C 
ATOM      8  O   UNL     1       5.667  -9.324  -6.826  0.00  0.00    -0.368 OA
ATOM      9  C   UNL     1       4.716 -10.051  -7.609  0.00  0.00    +0.068 C 
ATOM     10  C   UNL     1       3.363 -10.094  -6.891  0.00  0.00    +0.071 C 
ATOM     11  C   UNL     1       5.222 -11.479  -7.823  0.00  0.00    +0.041 C 
ATOM     12  C   UNL     1       4.549  -9.366  -8.967  0.00  0.00    +0.041 C 
ATOM     13  C   UNL     1       0.419  -8.999  -6.029  0.00  0.00    +0.270 A 
ATOM     14  O   UNL     1       0.413 -10.183  -6.314  0.00  0.00    -0.266 OA
ATOM     15  N   UNL     1      -0.716  -8.385  -5.651  0.00  0.00    -0.228 N 
ATOM     16  C   UNL     1      -0.739  -7.082  -5.324  0.00  0.00    +0.338 A 
ATOM     17  O   UNL     1      -1.789  -6.573  -4.983  0.00  0.00    -0.246 OA
ENDROOT
BRANCH  15  18
ATOM     18  C   UNL     1      -1.905  -9.124  -5.591  0.00  0.00    +0.054 A 
ATOM     19  C   UNL     1      -2.292  -9.723  -4.400  0.00  0.00    +0.028 A 
ATOM     20  C   UNL     1      -3.464 -10.451  -4.343  0.00  0.00    +0.022 A 
ATOM     21  C   UNL     1      -4.253 -10.585  -5.473  0.00  0.00    +0.041 A 
ATOM     22  C   UNL     1      -3.869  -9.989  -6.662  0.00  0.00    +0.022 A 
ATOM     23  C   UNL     1      -2.701  -9.255  -6.721  0.00  0.00    +0.028 A 
ATOM     24 CL   UNL     1      -5.725 -11.502  -5.399  0.00  0.00    -0.084 Cl
ENDBRANCH  15  18
BRANCH   1  25
ATOM     25  C   UNL     1       0.305  -4.909  -5.014  0.00  0.00    +0.223 C 
BRANCH  25  27
ATOM     26  N   UNL     1       0.546  -3.523  -2.979  0.00  0.00    -0.284 N 
ATOM     27  C   UNL     1       0.561  -4.750  -3.537  0.00  0.00    +0.237 C 
ATOM     28  O   UNL     1       0.781  -5.726  -2.852  0.00  0.00    -0.274 OA
ATOM     29  H   UNL     1       0.293  -2.752  -3.509  0.00  0.00    +0.155 HD
BRANCH  26  33
ATOM     30  C   UNL     1       1.585  -3.047   1.022  0.00  0.00    +0.017 A 
ATOM     31  C   UNL     1       2.176  -4.062   0.259  0.00  0.00    +0.013 A 
ATOM     32  C   UNL     1       1.830  -4.215  -1.059  0.00  0.00    +0.024 A 
ATOM     33  C   UNL     1       0.894  -3.364  -1.639  0.00  0.00    +0.033 A 
ATOM     34  C   UNL     1       0.305  -2.353  -0.885  0.00  0.00    +0.024 A 
ATOM     35  C   UNL     1       0.640  -2.196   0.435  0.00  0.00    +0.013 A 
BRANCH  30  37
ATOM     36  C   UNL     1       2.969  -3.796   3.062  0.00  0.00    +0.091 C 
ATOM     37  C   UNL     1       1.952  -2.879   2.434  0.00  0.00    +0.160 C 
ATOM     38  O   UNL     1       1.436  -2.002   3.094  0.00  0.00    -0.292 OA
ENDBRANCH  30  37
ENDBRANCH  26  33
ENDBRANCH  25  27
ENDBRANCH   1  25
TORSDOF 5
