REMARK  Name = ZINC08846398
REMARK  8 active torsions:
REMARK  status: ('A' for Active; 'I' for Inactive)
REMARK    1  A    between atoms: C_1  and  O_2
REMARK    2  A    between atoms: O_2  and  C_3
REMARK    3  A    between atoms: C_6  and  C_11
REMARK    4  A    between atoms: C_8  and  O_9
REMARK    5  A    between atoms: O_9  and  C_10
REMARK    6  A    between atoms: C_14  and  C_25
REMARK    7  A    between atoms: C_20  and  N_24
REMARK    8  A    between atoms: C_21  and  C_22
REMARK                            x       y       z     vdW  Elec       q    Type
REMARK                         _______ _______ _______ _____ _____    ______ ____
ROOT
ATOM      1  C   UNL     1      -5.267  -2.886  -0.320  0.00  0.00    +0.101 C 
ATOM      2  C   UNL     1      -5.760  -2.429   1.029  0.00  0.00    +0.050 A 
ATOM      3  C   UNL     1      -5.301  -2.771   2.294  0.00  0.00    +0.077 A 
ATOM      4  N   UNL     1      -6.029  -2.130   3.178  0.00  0.00    -0.175 NA
ATOM      5  N   UNL     1      -6.979  -1.357   2.493  0.00  0.00    -0.246 N 
ATOM      6  H   UNL     1      -7.647  -0.782   2.898  0.00  0.00    +0.192 HD
ATOM      7  C   UNL     1      -6.799  -1.554   1.177  0.00  0.00    +0.222 A 
ATOM      8  O   UNL     1      -7.471  -1.030   0.122  0.00  0.00    -0.423 OA
ATOM      9  C   UNL     1      -7.277  -1.597  -1.086  0.00  0.00    +0.200 C 
ATOM     10  C   UNL     1      -6.277  -2.466  -1.358  0.00  0.00    +0.098 C 
ENDROOT
BRANCH   3  11
ATOM     11  C   UNL     1      -4.165  -3.713   2.599  0.00  0.00    +0.016 C 
ATOM     12  C   UNL     1      -4.392  -5.038   1.869  0.00  0.00    +0.016 C 
ATOM     13  C   UNL     1      -3.239  -5.995   2.178  0.00  0.00    -0.010 C 
ATOM     14  C   UNL     1      -1.921  -5.373   1.711  0.00  0.00    +0.007 C 
ATOM     15  C   UNL     1      -1.694  -4.048   2.442  0.00  0.00    -0.010 C 
ATOM     16  C   UNL     1      -2.848  -3.091   2.132  0.00  0.00    +0.016 C 
ATOM     17  C   UNL     1      -1.633  -4.301   3.949  0.00  0.00    +0.007 C 
ATOM     18  C   UNL     1      -2.950  -4.923   4.417  0.00  0.00    -0.010 C 
ATOM     19  C   UNL     1      -3.177  -6.248   3.686  0.00  0.00    +0.007 C 
ATOM     20  C   UNL     1      -4.104  -3.966   4.107  0.00  0.00    +0.016 C 
ENDBRANCH   3  11
BRANCH   1  24
ATOM     21  C   UNL     1      -1.490  -1.066  -1.163  0.00  0.00    +0.162 A 
ATOM     22  C   UNL     1      -2.505  -0.324  -0.580  0.00  0.00    +0.050 A 
ATOM     23  C   UNL     1      -3.725  -0.915  -0.309  0.00  0.00    +0.008 A 
ATOM     24  C   UNL     1      -3.935  -2.246  -0.618  0.00  0.00    -0.031 A 
ATOM     25  C   UNL     1      -2.927  -2.992  -1.200  0.00  0.00    +0.054 A 
ATOM     26  C   UNL     1      -1.704  -2.404  -1.480  0.00  0.00    +0.162 A 
BRANCH  21  28
ATOM     27  C   UNL     1      -0.141   0.891  -1.079  0.00  0.00    +0.277 C 
ATOM     28  O   UNL     1      -0.289  -0.486  -1.431  0.00  0.00    -0.491 OA
ENDBRANCH  21  28
BRANCH  26  29
ATOM     29  O   UNL     1      -0.713  -3.134  -2.058  0.00  0.00    -0.491 OA
ATOM     30  C   UNL     1      -1.036  -4.471  -2.449  0.00  0.00    +0.277 C 
ENDBRANCH  26  29
ENDBRANCH   1  24
BRANCH   9  31
ATOM     31  N   UNL     1      -8.145  -1.273  -2.099  0.00  0.00    -0.328 N 
ATOM     32  H   UNL     1      -8.872  -0.652  -1.935  0.00  0.00    +0.145 HD
ATOM     33  H   UNL     1      -8.031  -1.664  -2.979  0.00  0.00    +0.145 HD
ENDBRANCH   9  31
BRANCH  10  34
ATOM     34  C   UNL     1      -6.173  -3.007  -2.680  0.00  0.00    +0.101 C 
ATOM     35  N   UNL     1      -6.091  -3.437  -3.728  0.00  0.00    -0.191 NA
ENDBRANCH  10  34
TORSDOF 6
