REMARK  Name = ZINC00978080
REMARK  4 active torsions:
REMARK  status: ('A' for Active; 'I' for Inactive)
REMARK    1  A    between atoms: C_1  and  C_2
REMARK    2  A    between atoms: C_6  and  N_8
REMARK    3  A    between atoms: C_12  and  N_16
REMARK    4  A    between atoms: N_16  and  N_17
REMARK                            x       y       z     vdW  Elec       q    Type
REMARK                         _______ _______ _______ _____ _____    ______ ____
ROOT
ATOM      1  N   UNL     1       0.050  -2.798   2.395  0.00  0.00    -0.209 N 
ATOM      2  C   UNL     1       0.141  -2.196   3.587  0.00  0.00    +0.228 C 
ATOM      3  O   UNL     1       0.218  -1.000   3.766  0.00  0.00    -0.275 OA
ATOM      4  C   UNL     1       0.130  -3.246   4.677  0.00  0.00    +0.126 C 
ATOM      5  C   UNL     1       0.017  -4.573   3.900  0.00  0.00    +0.168 C 
ATOM      6  C   UNL     1      -0.030  -4.133   2.453  0.00  0.00    +0.245 C 
ATOM      7  O   UNL     1      -0.124  -4.873   1.497  0.00  0.00    -0.273 OA
ENDROOT
BRANCH   1  13
ATOM      8  C   UNL     1      -2.370  -1.345  -1.632  0.00  0.00    +0.044 C 
ATOM      9  C   UNL     1      -1.124  -1.368  -0.785  0.00  0.00    -0.049 A 
ATOM     10  C   UNL     1       0.006  -0.689  -1.200  0.00  0.00    +0.003 A 
ATOM     11  C   UNL     1       1.151  -0.708  -0.425  0.00  0.00    +0.002 A 
ATOM     12  C   UNL     1       1.169  -1.406   0.766  0.00  0.00    +0.024 A 
ATOM     13  C   UNL     1       0.035  -2.089   1.186  0.00  0.00    +0.044 A 
ATOM     14  C   UNL     1      -1.115  -2.063   0.409  0.00  0.00    +0.027 A 
ENDBRANCH   1  13
BRANCH   5  15
ATOM     15  N   UNL     1       1.189  -5.422   4.152  0.00  0.00    -0.229 NA
ATOM     16  H   UNL     1       1.604  -5.209   5.047  0.00  0.00    +0.145 HD
BRANCH  15  17
ATOM     17  N   UNL     1       0.863  -6.745   4.067  0.00  0.00    -0.263 N 
ATOM     18  C   UNL     1       1.837  -7.717   4.274  0.00  0.00    +0.151 A 
ATOM     19  C   UNL     1       1.498  -9.064   4.180  0.00  0.00    +0.083 A 
ATOM     20  C   UNL     1       2.477 -10.020   4.388  0.00  0.00    +0.045 A 
ATOM     21  C   UNL     1       3.767  -9.594   4.685  0.00  0.00    +0.061 A 
ATOM     22  C   UNL     1       4.031  -8.241   4.763  0.00  0.00    +0.133 A 
ATOM     23  N   UNL     1       3.078  -7.352   4.554  0.00  0.00    -0.236 NA
ATOM     24 CL   UNL     1       5.032 -10.752   4.956  0.00  0.00    -0.082 Cl
ATOM     25 CL   UNL     1      -0.129  -9.539   3.807  0.00  0.00    -0.080 Cl
ATOM     26  H   UNL     1      -0.048  -7.008   3.862  0.00  0.00    +0.168 HD
ENDBRANCH  15  17
ENDBRANCH   5  15
TORSDOF 3
