REMARK  Name = ZINC09500481
REMARK  8 active torsions:
REMARK  status: ('A' for Active; 'I' for Inactive)
REMARK    1  A    between atoms: C_1  and  C_2
REMARK    2  A    between atoms: C_5  and  N_9
REMARK    3  A    between atoms: C_10  and  C_12
REMARK    4  A    between atoms: C_12  and  N_13
REMARK    5  A    between atoms: C_20  and  C_35
REMARK    6  A    between atoms: C_21  and  C_23
REMARK    7  A    between atoms: C_27  and  C_34
REMARK    8  A    between atoms: C_30  and  C_33
REMARK                            x       y       z     vdW  Elec       q    Type
REMARK                         _______ _______ _______ _____ _____    ______ ____
ROOT
ATOM      1  N   UNL     1       0.610  -6.113   2.954  0.00  0.00    -0.290 N 
ATOM      2  C   UNL     1       1.660  -6.962   3.071  0.00  0.00    +0.203 A 
ATOM      3  N   UNL     1       1.698  -7.891   3.987  0.00  0.00    -0.230 NA
ATOM      4  C   UNL     1       0.707  -8.052   4.855  0.00  0.00    +0.116 A 
ATOM      5  C   UNL     1      -0.443  -7.229   4.836  0.00  0.00    +0.076 A 
ATOM      6  C   UNL     1      -0.446  -6.185   3.786  0.00  0.00    +0.263 A 
ATOM      7  O   UNL     1      -1.383  -5.413   3.676  0.00  0.00    -0.267 OA
ATOM      8  C   UNL     1      -1.408  -7.510   5.806  0.00  0.00    -0.017 A 
ATOM      9  C   UNL     1      -1.204  -8.526   6.693  0.00  0.00    +0.080 A 
ATOM     10  S   UNL     1       0.392  -9.160   6.205  0.00  0.00    -0.064 S 
ATOM     11  C   UNL     1      -2.671  -6.691   5.873  0.00  0.00    +0.046 C 
ENDROOT
BRANCH   9  12
ATOM     12  C   UNL     1      -2.078  -8.983   7.778  0.00  0.00    +0.254 C 
ATOM     13  O   UNL     1      -3.275  -9.096   7.588  0.00  0.00    -0.269 OA
ATOM     14  N   UNL     1      -1.556  -9.278   8.985  0.00  0.00    -0.297 N 
ATOM     15  C   UNL     1      -0.103  -9.238   9.202  0.00  0.00    +0.111 C 
ATOM     16  C   UNL     1       0.191  -8.334  10.403  0.00  0.00    +0.004 C 
ATOM     17  C   UNL     1      -0.612  -8.820  11.612  0.00  0.00    +0.009 C 
ATOM     18  C   UNL     1      -2.108  -8.737  11.299  0.00  0.00    +0.004 C 
ATOM     19  C   UNL     1      -2.429  -9.639  10.110  0.00  0.00    +0.111 C 
ATOM     20  C   UNL     1      -2.911  -9.191  12.520  0.00  0.00    +0.009 C 
ATOM     21  C   UNL     1       1.685  -8.386  10.728  0.00  0.00    +0.009 C 
ENDBRANCH   9  12
BRANCH   1  22
ATOM     22  C   UNL     1       0.628  -5.091   1.903  0.00  0.00    +0.222 C 
BRANCH  22  24
ATOM     23  N   UNL     1       1.400  -2.756   1.638  0.00  0.00    -0.284 N 
ATOM     24  C   UNL     1       1.274  -3.837   2.433  0.00  0.00    +0.237 C 
ATOM     25  O   UNL     1       1.679  -3.800   3.576  0.00  0.00    -0.274 OA
ATOM     26  H   UNL     1       1.020  -2.764   0.745  0.00  0.00    +0.155 HD
BRANCH  23  31
ATOM     27  C   UNL     1       4.159   1.835   3.510  0.00  0.00    +0.045 C 
ATOM     28  C   UNL     1       3.426   0.616   3.012  0.00  0.00    -0.032 A 
ATOM     29  C   UNL     1       3.873  -0.647   3.357  0.00  0.00    +0.006 A 
ATOM     30  C   UNL     1       3.204  -1.766   2.903  0.00  0.00    +0.023 A 
ATOM     31  C   UNL     1       2.080  -1.624   2.099  0.00  0.00    +0.035 A 
ATOM     32  C   UNL     1       1.633  -0.356   1.754  0.00  0.00    +0.043 A 
ATOM     33  C   UNL     1       2.304   0.761   2.216  0.00  0.00    +0.046 A 
ATOM     34 CL   UNL     1       1.742   2.348   1.791  0.00  0.00    -0.083 Cl
ENDBRANCH  23  31
ENDBRANCH  22  24
ENDBRANCH   1  22
TORSDOF 4
