REMARK  Name = ZINC35039986
REMARK  7 active torsions:
REMARK  status: ('A' for Active; 'I' for Inactive)
REMARK    1  A    between atoms: C_1  and  C_2
REMARK    2  A    between atoms: C_2  and  C_4
REMARK    3  A    between atoms: C_2  and  N_22
REMARK    4  A    between atoms: N_14  and  C_15
REMARK    5  A    between atoms: N_22  and  C_23
REMARK    6  A    between atoms: C_24  and  C_26
REMARK    7  A    between atoms: C_29  and  N_32
REMARK                            x       y       z     vdW  Elec       q    Type
REMARK                         _______ _______ _______ _____ _____    ______ ____
ROOT
ATOM      1  C   UNL     1       1.159  -0.233   1.146  0.00  0.00    +0.138 A 
ATOM      2  N   UNL     1       0.756  -1.192   1.923  0.00  0.00    -0.231 NA
ATOM      3  C   UNL     1       1.530  -1.662   2.933  0.00  0.00    +0.078 A 
ATOM      4  C   UNL     1       1.096  -2.693   3.769  0.00  0.00    +0.028 A 
ATOM      5  C   UNL     1       1.915  -3.140   4.781  0.00  0.00    +0.002 A 
ATOM      6  C   UNL     1       3.168  -2.577   4.984  0.00  0.00    +0.001 A 
ATOM      7  C   UNL     1       3.618  -1.558   4.173  0.00  0.00    +0.015 A 
ATOM      8  C   UNL     1       2.805  -1.092   3.141  0.00  0.00    +0.065 A 
ATOM      9  C   UNL     1       3.232  -0.008   2.244  0.00  0.00    +0.266 A 
ATOM     10  O   UNL     1       4.320   0.525   2.370  0.00  0.00    -0.267 OA
ATOM     11  N   UNL     1       2.372   0.370   1.270  0.00  0.00    -0.263 N 
ENDROOT
BRANCH  11  12
ATOM     12  C   UNL     1       2.733   1.395   0.386  0.00  0.00    +0.051 A 
ATOM     13  C   UNL     1       2.052   2.605   0.409  0.00  0.00    +0.027 A 
ATOM     14  C   UNL     1       2.409   3.613  -0.465  0.00  0.00    +0.017 A 
ATOM     15  C   UNL     1       3.444   3.418  -1.363  0.00  0.00    +0.018 A 
ATOM     16  C   UNL     1       4.123   2.213  -1.388  0.00  0.00    +0.017 A 
ATOM     17  C   UNL     1       3.774   1.204  -0.513  0.00  0.00    +0.027 A 
ATOM     18 BR   UNL     1       3.929   4.801  -2.557  0.00  0.00    -0.050 Br
ENDBRANCH  11  12
BRANCH   1  20
ATOM     19  C   UNL     1      -1.114   0.622   0.645  0.00  0.00    +0.036 C 
ATOM     20  C   UNL     1       0.239   0.232   0.047  0.00  0.00    +0.139 C 
BRANCH  20  21
ATOM     21  N   UNL     1       0.051  -0.850  -0.923  0.00  0.00    -0.291 N 
ATOM     22  C   UNL     1      -0.527  -2.126  -0.493  0.00  0.00    +0.133 C 
ATOM     23  C   UNL     1       0.409  -0.672  -2.210  0.00  0.00    +0.247 C 
ATOM     24  O   UNL     1       0.980   0.347  -2.546  0.00  0.00    -0.270 OA
BRANCH  23  25
ATOM     25  C   UNL     1       0.108  -1.717  -3.212  0.00  0.00    +0.037 A 
ATOM     26  C   UNL     1      -1.063  -2.469  -3.111  0.00  0.00    +0.015 A 
ATOM     27  C   UNL     1      -1.337  -3.442  -4.049  0.00  0.00    +0.033 A 
ATOM     28  C   UNL     1      -0.455  -3.673  -5.090  0.00  0.00    +0.126 A 
ATOM     29  C   UNL     1       0.708  -2.931  -5.196  0.00  0.00    +0.033 A 
ATOM     30  C   UNL     1       0.992  -1.951  -4.267  0.00  0.00    +0.015 A 
BRANCH  28  31
ATOM     31  N   UNL     1      -0.756  -4.718  -6.093  0.00  0.00    +0.056 N 
ATOM     32  O   UNL     1      -1.771  -5.369  -6.003  0.00  0.00    -0.126 OA
ATOM     33  O   UNL     1       0.014  -4.922  -7.003  0.00  0.00    -0.126 OA
ENDBRANCH  28  31
ENDBRANCH  23  25
ENDBRANCH  20  21
ENDBRANCH   1  20
TORSDOF 5
