REMARK  Name = ZINC13092833
REMARK  10 active torsions:
REMARK  status: ('A' for Active; 'I' for Inactive)
REMARK    1  A    between atoms: C_6  and  O_7
REMARK    2  A    between atoms: O_7  and  C_8
REMARK    3  A    between atoms: C_8  and  C_9
REMARK    4  A    between atoms: N_11  and  N_12
REMARK    5  A    between atoms: C_13  and  C_15
REMARK    6  A    between atoms: C_15  and  S_16
REMARK    7  A    between atoms: S_16  and  C_17
REMARK    8  A    between atoms: C_21  and  C_24
REMARK    9  A    between atoms: C_24  and  C_25
REMARK   10  A    between atoms: C_25  and  C_26
REMARK                            x       y       z     vdW  Elec       q    Type
REMARK                         _______ _______ _______ _____ _____    ______ ____
ROOT
ATOM      1  N   UNL     1      -3.898  -4.615   0.016  0.00  0.00    -0.234 N 
ATOM      2  C   UNL     1      -4.055  -5.954   0.010  0.00  0.00    +0.239 C 
ATOM      3  O   UNL     1      -3.083  -6.678  -0.003  0.00  0.00    -0.273 OA
ATOM      4  H   UNL     1      -4.676  -4.035   0.027  0.00  0.00    +0.173 HD
ENDROOT
BRANCH   1   7
ATOM      5  C   UNL     1      -2.454  -2.722   0.012  0.00  0.00    +0.267 C 
ATOM      6  O   UNL     1      -3.426  -1.998   0.025  0.00  0.00    -0.271 OA
ATOM      7  N   UNL     1      -2.611  -4.061   0.006  0.00  0.00    -0.232 N 
ATOM      8  H   UNL     1      -1.834  -4.641  -0.005  0.00  0.00    +0.173 HD
BRANCH   5   9
ATOM      9  C   UNL     1      -1.070  -2.126   0.001  0.00  0.00    +0.326 C 
BRANCH   9  10
ATOM     10  O   UNL     1      -1.165  -0.701   0.010  0.00  0.00    -0.483 OA
BRANCH  10  16
ATOM     11  C   UNL     1      -0.017   1.383   0.010  0.00  0.00    +0.047 A 
ATOM     12  C   UNL     1       1.171   2.089   0.002  0.00  0.00    +0.019 A 
ATOM     13  C   UNL     1       2.378   1.414  -0.013  0.00  0.00    +0.018 A 
ATOM     14  C   UNL     1       2.399   0.030  -0.022  0.00  0.00    +0.019 A 
ATOM     15  C   UNL     1       1.214  -0.679  -0.014  0.00  0.00    +0.047 A 
ATOM     16  C   UNL     1       0.002  -0.004   0.002  0.00  0.00    +0.121 A 
ATOM     17 BR   UNL     1       4.002   2.383  -0.024  0.00  0.00    -0.050 Br
ENDBRANCH  10  16
ENDBRANCH   9  10
ENDBRANCH   5   9
ENDBRANCH   1   7
BRANCH   2  18
ATOM     18  C   UNL     1      -5.439  -6.550   0.021  0.00  0.00    +0.174 C 
BRANCH  18  19
ATOM     19  S   UNL     1      -5.319  -8.359   0.010  0.00  0.00    -0.075 S 
BRANCH  19  20
ATOM     20  C   UNL     1      -6.996  -8.899   0.024  0.00  0.00    +0.213 A 
ATOM     21  N   UNL     1      -7.267 -10.198   0.019  0.00  0.00    -0.180 NA
ATOM     22  C   UNL     1      -8.534 -10.599   0.030  0.00  0.00    +0.296 A 
ATOM     23  O   UNL     1      -8.841 -11.919   0.026  0.00  0.00    -0.264 OA
ATOM     24  C   UNL     1      -9.542  -9.634   0.045  0.00  0.00    +0.130 A 
ATOM     25  N   UNL     1      -9.211  -8.357   0.049  0.00  0.00    -0.146 NA
ATOM     26  N   UNL     1      -7.974  -8.001   0.044  0.00  0.00    -0.122 NA
BRANCH  24  27
ATOM     27  C   UNL     1     -10.992 -10.046   0.057  0.00  0.00    +0.074 C 
BRANCH  27  28
ATOM     28  C   UNL     1     -11.468 -10.193   1.503  0.00  0.00    +0.131 C 
BRANCH  28  29
ATOM     29  C   UNL     1     -12.918 -10.605   1.515  0.00  0.00    +0.356 C 
ATOM     30  O   UNL     1     -13.514 -10.766   0.464  0.00  0.00    -0.246 OA
ATOM     31  O   UNL     1     -13.494 -10.778   2.575  0.00  0.00    -0.246 OA
ENDBRANCH  28  29
ENDBRANCH  27  28
ENDBRANCH  24  27
ENDBRANCH  19  20
ENDBRANCH  18  19
ENDBRANCH   2  18
TORSDOF 10
