REMARK  Name = ZINC09580174
REMARK  4 active torsions:
REMARK  status: ('A' for Active; 'I' for Inactive)
REMARK    1  A    between atoms: C_6  and  C_7
REMARK    2  A    between atoms: C_7  and  C_8
REMARK    3  A    between atoms: C_8  and  N_10
REMARK    4  A    between atoms: N_12  and  C_23
REMARK                            x       y       z     vdW  Elec       q    Type
REMARK                         _______ _______ _______ _____ _____    ______ ____
ROOT
ATOM      1  N   UNL     1      -2.147  -2.383  -1.710  0.00  0.00    -0.159 NA
ATOM      2  C   UNL     1      -3.015  -2.272  -2.709  0.00  0.00    +0.154 C 
ATOM      3  N   UNL     1      -2.886  -1.538  -3.858  0.00  0.00    -0.276 N 
ATOM      4  C   UNL     1      -3.752  -1.831  -4.972  0.00  0.00    +0.116 C 
ATOM      5  C   UNL     1      -3.011  -2.031  -6.297  0.00  0.00    +0.190 C 
ATOM      6  S   UNL     1      -3.025  -3.858  -6.487  0.00  0.00    -0.028 S 
ATOM      7  O   UNL     1      -3.490  -4.181  -7.791  0.00  0.00    -0.174 OA
ATOM      8  O   UNL     1      -1.778  -4.377  -6.044  0.00  0.00    -0.174 OA
ATOM      9  C   UNL     1      -4.322  -4.301  -5.267  0.00  0.00    +0.182 C 
ATOM     10  C   UNL     1      -4.771  -2.950  -4.703  0.00  0.00    +0.097 C 
ATOM     11  S   UNL     1      -4.616  -3.052  -2.865  0.00  0.00    -0.086 S 
ENDROOT
BRANCH   3  12
ATOM     12  C   UNL     1      -1.929  -0.520  -3.950  0.00  0.00    +0.039 A 
ATOM     13  C   UNL     1      -0.703  -0.772  -4.552  0.00  0.00    +0.027 A 
ATOM     14  C   UNL     1       0.242   0.232  -4.643  0.00  0.00    +0.051 A 
ATOM     15  C   UNL     1      -0.029   1.491  -4.133  0.00  0.00    +0.166 A 
ATOM     16  C   UNL     1      -1.258   1.746  -3.528  0.00  0.00    +0.168 A 
ATOM     17  C   UNL     1      -2.207   0.742  -3.442  0.00  0.00    +0.073 A 
ATOM     18  O   UNL     1      -1.278   3.047  -3.113  0.00  0.00    -0.453 OA
ATOM     19  C   UNL     1       0.098   3.469  -3.103  0.00  0.00    +0.466 C 
ATOM     20  O   UNL     1       0.720   2.633  -4.097  0.00  0.00    -0.453 OA
ENDBRANCH   3  12
BRANCH   1  21
ATOM     21  C   UNL     1      -0.985  -1.737  -1.764  0.00  0.00    +0.243 C 
ATOM     22  O   UNL     1      -0.966  -0.524  -1.835  0.00  0.00    -0.273 OA
BRANCH  21  23
ATOM     23  C   UNL     1       0.309  -2.510  -1.737  0.00  0.00    +0.133 C 
BRANCH  23  29
ATOM     24  C   UNL     1       1.851  -1.051  -0.411  0.00  0.00    +0.007 A 
ATOM     25  C   UNL     1       2.912  -0.170  -0.323  0.00  0.00    +0.038 A 
ATOM     26  C   UNL     1       3.590   0.213  -1.468  0.00  0.00    +0.123 A 
ATOM     27  C   UNL     1       3.203  -0.286  -2.700  0.00  0.00    +0.038 A 
ATOM     28  C   UNL     1       2.142  -1.167  -2.786  0.00  0.00    +0.007 A 
ATOM     29  C   UNL     1       1.466  -1.550  -1.642  0.00  0.00    -0.038 A 
ATOM     30  F   UNL     1       4.627   1.075  -1.383  0.00  0.00    -0.205 F 
ENDBRANCH  23  29
ENDBRANCH  21  23
ENDBRANCH   1  21
TORSDOF 4
