REMARK  Name = ZINC08863188
REMARK  6 active torsions:
REMARK  status: ('A' for Active; 'I' for Inactive)
REMARK    1  A    between atoms: C_3  and  C_11
REMARK    2  A    between atoms: C_6  and  N_7
REMARK    3  A    between atoms: N_13  and  C_14
REMARK    4  A    between atoms: C_14  and  C_15
REMARK    5  A    between atoms: C_15  and  C_17
REMARK    6  A    between atoms: C_15  and  N_49
REMARK                            x       y       z     vdW  Elec       q    Type
REMARK                         _______ _______ _______ _____ _____    ______ ____
ROOT
ATOM      1  C   UNL     1      -0.736   1.662   1.287  0.00  0.00    +0.094 C 
ENDROOT
BRANCH   1   4
ATOM      2  C   UNL     1      -2.922   1.593   2.361  0.00  0.00    +0.245 C 
ATOM      3  O   UNL     1      -2.529   2.433   3.147  0.00  0.00    -0.270 OA
ATOM      4  N   UNL     1      -2.101   1.141   1.393  0.00  0.00    -0.313 N 
ATOM      5  H   UNL     1      -2.414   0.471   0.765  0.00  0.00    +0.149 HD
BRANCH   2   8
ATOM      6  C   UNL     1      -6.039  -0.384   1.672  0.00  0.00    +0.033 A 
ATOM      7  C   UNL     1      -4.753   0.103   1.567  0.00  0.00    +0.017 A 
ATOM      8  C   UNL     1      -4.299   1.068   2.468  0.00  0.00    +0.055 A 
ATOM      9  C   UNL     1      -5.150   1.530   3.474  0.00  0.00    +0.055 A 
ATOM     10  C   UNL     1      -6.438   1.038   3.565  0.00  0.00    +0.053 A 
ATOM     11  C   UNL     1      -6.880   0.082   2.668  0.00  0.00    +0.128 A 
ATOM     12 CL   UNL     1      -4.594   2.725   4.604  0.00  0.00    -0.083 Cl
BRANCH  11  13
ATOM     13  N   UNL     1      -8.258  -0.446   2.774  0.00  0.00    +0.056 N 
ATOM     14  O   UNL     1      -8.651  -1.288   1.986  0.00  0.00    -0.126 OA
ATOM     15  O   UNL     1      -9.001  -0.038   3.650  0.00  0.00    -0.126 OA
ENDBRANCH  11  13
ENDBRANCH   2   8
ENDBRANCH   1   4
BRANCH   1  16
ATOM     16  C   UNL     1      -0.077   1.113   0.020  0.00  0.00    -0.020 C 
BRANCH  16  23
ATOM     17  C   UNL     1      -2.184   1.360  -1.164  0.00  0.00    -0.078 C 
ATOM     18  C   UNL     1      -2.851   1.680  -2.475  0.00  0.00    -0.019 C 
ATOM     19  C   UNL     1      -2.852   0.407  -3.347  0.00  0.00    -0.002 C 
ATOM     20  C   UNL     1      -1.556   0.167  -3.973  0.00  0.00    -0.002 C 
ATOM     21  C   UNL     1      -0.436  -0.040  -2.932  0.00  0.00    -0.019 C 
ATOM     22  C   UNL     1      -0.023   1.306  -2.402  0.00  0.00    -0.078 C 
ATOM     23  N   UNL     1      -0.728   1.732  -1.145  0.00  0.00    +0.385 N 
ATOM     24  H   UNL     1      -0.655   2.752  -1.062  0.00  0.00    -0.081 HD
ENDBRANCH  16  23
BRANCH  16  25
ATOM     25  C   UNL     1       1.382   1.491   0.008  0.00  0.00    -0.052 A 
ATOM     26  C   UNL     1       2.347   0.577   0.388  0.00  0.00    +0.009 A 
ATOM     27  C   UNL     1       3.650   0.949   0.366  0.00  0.00    +0.045 A 
ATOM     28  S   UNL     1       3.542   2.637  -0.205  0.00  0.00    -0.105 S 
ATOM     29  C   UNL     1       1.768   2.730  -0.381  0.00  0.00    +0.047 A 
ENDBRANCH  16  25
ENDBRANCH   1  16
TORSDOF 6
