REMARK  Name = ZINC04354189
REMARK  11 active torsions:
REMARK  status: ('A' for Active; 'I' for Inactive)
REMARK    1  A    between atoms: C_1  and  C_2
REMARK    2  A    between atoms: C_2  and  C_3
REMARK    3  A    between atoms: C_3  and  C_5
REMARK    4  A    between atoms: C_3  and  N_16
REMARK    5  A    between atoms: N_7  and  C_8
REMARK    6  A    between atoms: C_8  and  C_9
REMARK    7  A    between atoms: N_16  and  C_17
REMARK    8  A    between atoms: C_17  and  C_18
REMARK    9  A    between atoms: C_23  and  C_25
REMARK   10  A    between atoms: C_26  and  N_33
REMARK   11  A    between atoms: C_27  and  C_30
REMARK                            x       y       z     vdW  Elec       q    Type
REMARK                         _______ _______ _______ _____ _____    ______ ____
ROOT
ATOM      1  N   UNL     1      -0.500   0.479  -2.498  0.00  0.00    -0.278 N 
ATOM      2  C   UNL     1      -0.423   1.093  -3.695  0.00  0.00    +0.258 C 
ATOM      3  O   UNL     1       0.494   1.859  -3.928  0.00  0.00    -0.269 OA
ENDROOT
BRANCH   2   4
ATOM      4  C   UNL     1      -1.443   0.840  -4.715  0.00  0.00    +0.115 A 
ATOM      5  C   UNL     1      -1.640   1.470  -5.944  0.00  0.00    +0.076 A 
ATOM      6  C   UNL     1      -2.721   0.962  -6.661  0.00  0.00    +0.155 A 
ATOM      7  N   UNL     1      -3.434  -0.020  -6.151  0.00  0.00    -0.203 NA
ATOM      8  S   UNL     1      -2.759  -0.361  -4.721  0.00  0.00    +0.019 S 
BRANCH   6   9
ATOM      9  C   UNL     1      -3.064   1.520  -7.982  0.00  0.00    +0.262 C 
ATOM     10  O   UNL     1      -2.358   2.373  -8.484  0.00  0.00    -0.269 OA
ATOM     11  N   UNL     1      -4.161   1.085  -8.633  0.00  0.00    -0.324 N 
ATOM     12  H   UNL     1      -4.724   0.404  -8.233  0.00  0.00    +0.145 HD
ATOM     13  H   UNL     1      -4.387   1.452  -9.502  0.00  0.00    +0.145 HD
ENDBRANCH   6   9
BRANCH   5  14
ATOM     14  N   UNL     1      -0.836   2.503  -6.407  0.00  0.00    -0.355 N 
ATOM     15  H   UNL     1      -0.035   2.751  -5.920  0.00  0.00    +0.142 HD
ATOM     16  H   UNL     1      -1.076   2.978  -7.219  0.00  0.00    +0.142 HD
ENDBRANCH   5  14
ENDBRANCH   2   4
BRANCH   1  17
ATOM     17  C   UNL     1       0.491   0.771  -1.459  0.00  0.00    +0.162 C 
BRANCH  17  18
ATOM     18  C   UNL     1       1.218  -0.495  -1.087  0.00  0.00    +0.234 C 
ATOM     19  O   UNL     1       0.935  -1.540  -1.636  0.00  0.00    -0.274 OA
ATOM     20  N   UNL     1       2.181  -0.468  -0.145  0.00  0.00    -0.310 N 
ATOM     21  H   UNL     1       2.407   0.368   0.293  0.00  0.00    +0.149 HD
BRANCH  20  22
ATOM     22  C   UNL     1       2.888  -1.699   0.216  0.00  0.00    +0.139 C 
BRANCH  22  23
ATOM     23  C   UNL     1       3.907  -1.398   1.285  0.00  0.00    -0.030 A 
ATOM     24  C   UNL     1       5.192  -1.033   0.929  0.00  0.00    +0.008 A 
ATOM     25  C   UNL     1       6.128  -0.756   1.908  0.00  0.00    +0.038 A 
ATOM     26  C   UNL     1       5.778  -0.845   3.245  0.00  0.00    +0.123 A 
ATOM     27  C   UNL     1       4.490  -1.211   3.599  0.00  0.00    +0.038 A 
ATOM     28  C   UNL     1       3.555  -1.482   2.619  0.00  0.00    +0.008 A 
ATOM     29  F   UNL     1       6.692  -0.575   4.202  0.00  0.00    -0.205 F 
ENDBRANCH  22  23
ENDBRANCH  20  22
ENDBRANCH  17  18
BRANCH  17  31
ATOM     30  C   UNL     1      -0.848   2.685  -0.572  0.00  0.00    +0.006 C 
ATOM     31  C   UNL     1      -0.215   1.336  -0.225  0.00  0.00    +0.028 C 
ENDBRANCH  17  31
ENDBRANCH   1  17
BRANCH   1  32
ATOM     32  C   UNL     1      -1.575  -0.481  -2.235  0.00  0.00    +0.183 C 
BRANCH  32  33
ATOM     33  C   UNL     1      -2.759   0.239  -1.644  0.00  0.00    +0.122 A 
ATOM     34  C   UNL     1      -3.696   0.911  -2.336  0.00  0.00    +0.046 A 
ATOM     35  C   UNL     1      -4.613   1.426  -1.390  0.00  0.00    +0.041 A 
ATOM     36  C   UNL     1      -4.181   1.038  -0.177  0.00  0.00    +0.195 A 
ATOM     37  O   UNL     1      -3.060   0.315  -0.337  0.00  0.00    -0.466 OA
ENDBRANCH  32  33
ENDBRANCH   1  32
TORSDOF 10
