REMARK  Name = ZINC33936603
REMARK  8 active torsions:
REMARK  status: ('A' for Active; 'I' for Inactive)
REMARK    1  A    between atoms: C_1  and  C_2
REMARK    2  A    between atoms: C_3  and  C_8
REMARK    3  A    between atoms: C_8  and  C_9
REMARK    4  A    between atoms: C_8  and  C_20
REMARK    5  A    between atoms: C_14  and  O_15
REMARK    6  A    between atoms: O_15  and  C_16
REMARK    7  A    between atoms: C_16  and  C_17
REMARK    8  A    between atoms: C_21  and  C_27
REMARK                            x       y       z     vdW  Elec       q    Type
REMARK                         _______ _______ _______ _____ _____    ______ ____
ROOT
ATOM      1  C   UNL     1       0.031  -0.333   2.525  0.00  0.00    +0.097 C 
ENDROOT
BRANCH   1   4
ATOM      2  C   UNL     1       0.348   1.896   0.374  0.00  0.00    +0.065 C 
ATOM      3  C   UNL     1       0.454   0.413   0.129  0.00  0.00    +0.039 A 
ATOM      4  C   UNL     1       0.317  -0.552   1.062  0.00  0.00    +0.050 A 
ATOM      5  C   UNL     1       0.488  -1.804   0.426  0.00  0.00    +0.269 A 
ATOM      6  N   UNL     1       0.726  -1.570  -0.880  0.00  0.00    -0.266 N 
ATOM      7  N   UNL     1       0.701  -0.183  -1.075  0.00  0.00    -0.301 N 
ATOM      8  O   UNL     1       0.430  -2.896   0.963  0.00  0.00    -0.266 OA
ATOM      9  H   UNL     1       0.837   0.276  -1.919  0.00  0.00    +0.186 HD
ATOM     10  H   UNL     1       0.883  -2.241  -1.563  0.00  0.00    +0.190 HD
ENDBRANCH   1   4
BRANCH   1  11
ATOM     11  C   UNL     1       1.055  -1.067   3.352  0.00  0.00    +0.053 A 
ATOM     12  C   UNL     1       0.887  -1.511   4.667  0.00  0.00    +0.068 A 
ATOM     13  N   UNL     1       1.991  -2.103   5.045  0.00  0.00    -0.176 NA
ATOM     14  N   UNL     1       2.902  -2.057   3.981  0.00  0.00    -0.243 N 
ATOM     15  H   UNL     1       3.801  -2.421   3.984  0.00  0.00    +0.192 HD
ATOM     16  C   UNL     1       2.305  -1.421   2.949  0.00  0.00    +0.271 A 
ATOM     17  O   UNL     1       2.854  -1.177   1.732  0.00  0.00    -0.266 OA
ATOM     18  C   UNL     1      -0.352  -1.336   5.506  0.00  0.00    +0.068 C 
ENDBRANCH   1  11
BRANCH   1  19
ATOM     19  C   UNL     1      -1.345  -0.855   2.851  0.00  0.00    +0.008 A 
ATOM     20  C   UNL     1      -1.605  -2.210   2.784  0.00  0.00    +0.023 A 
ATOM     21  C   UNL     1      -2.867  -2.689   3.084  0.00  0.00    +0.018 A 
ATOM     22  C   UNL     1      -3.873  -1.812   3.451  0.00  0.00    +0.019 A 
ATOM     23  C   UNL     1      -3.617  -0.456   3.520  0.00  0.00    +0.047 A 
ATOM     24  C   UNL     1      -2.350   0.025   3.225  0.00  0.00    +0.125 A 
ATOM     25 BR   UNL     1      -3.220  -4.544   2.990  0.00  0.00    -0.050 Br
BRANCH  24  26
ATOM     26  O   UNL     1      -2.095   1.359   3.297  0.00  0.00    -0.488 OA
BRANCH  26  27
ATOM     27  C   UNL     1      -3.177   2.206   3.688  0.00  0.00    +0.256 C 
BRANCH  27  28
ATOM     28  C   UNL     1      -2.710   3.639   3.712  0.00  0.00    +0.006 C 
ATOM     29  C   UNL     1      -3.453   4.578   3.182  0.00  0.00    +0.007 C 
ENDBRANCH  27  28
ENDBRANCH  26  27
ENDBRANCH  24  26
ENDBRANCH   1  19
TORSDOF 6
