REMARK  Name = ZINC09425447
REMARK  5 active torsions:
REMARK  status: ('A' for Active; 'I' for Inactive)
REMARK    1  A    between atoms: C_1  and  C_2
REMARK    2  A    between atoms: C_2  and  S_3
REMARK    3  A    between atoms: S_3  and  C_4
REMARK    4  A    between atoms: C_27  and  C_29
REMARK    5  A    between atoms: C_27  and  C_30
REMARK                            x       y       z     vdW  Elec       q    Type
REMARK                         _______ _______ _______ _____ _____    ______ ____
ROOT
ATOM      1  C   UNL     1      -1.774   7.559  -1.896  0.00  0.00    +0.197 A 
ATOM      2  N   UNL     1      -0.829   8.445  -2.117  0.00  0.00    -0.122 NA
ATOM      3  N   UNL     1       0.328   7.935  -1.878  0.00  0.00    -0.127 NA
ATOM      4  C   UNL     1       0.193   6.685  -1.488  0.00  0.00    +0.179 A 
ATOM      5  N   UNL     1      -1.165   6.411  -1.488  0.00  0.00    -0.260 N 
ATOM      6  C   UNL     1      -1.592   5.169  -1.119  0.00  0.00    +0.208 A 
ATOM      7  N   UNL     1      -0.775   4.230  -0.766  0.00  0.00    -0.235 NA
ATOM      8  C   UNL     1       0.586   4.406  -0.734  0.00  0.00    +0.093 A 
ATOM      9  C   UNL     1       1.069   5.658  -1.102  0.00  0.00    +0.085 A 
ATOM     10  S   UNL     1       2.829   5.529  -0.945  0.00  0.00    -0.065 S 
ATOM     11  C   UNL     1       2.940   3.842  -0.401  0.00  0.00    +0.089 A 
ATOM     12  C   UNL     1       1.603   3.409  -0.351  0.00  0.00    +0.035 A 
ATOM     13  C   UNL     1       1.387   2.070   0.059  0.00  0.00    -0.024 A 
ATOM     14  C   UNL     1       2.451   1.286   0.374  0.00  0.00    +0.020 A 
ATOM     15  C   UNL     1       3.748   1.806   0.297  0.00  0.00    +0.105 A 
ATOM     16  N   UNL     1       4.833   1.003   0.625  0.00  0.00    -0.312 N 
ATOM     17  C   UNL     1       5.573   1.557   1.768  0.00  0.00    +0.134 C 
ATOM     18  C   UNL     1       6.722   0.613   2.131  0.00  0.00    +0.178 C 
ATOM     19  O   UNL     1       7.558   0.423   0.986  0.00  0.00    -0.377 OA
ATOM     20  C   UNL     1       6.869  -0.116  -0.146  0.00  0.00    +0.178 C 
ATOM     21  C   UNL     1       5.722   0.821  -0.532  0.00  0.00    +0.134 C 
ATOM     22  C   UNL     1       2.272  -0.147   0.809  0.00  0.00    +0.199 C 
ATOM     23  O   UNL     1       0.914  -0.383   1.182  0.00  0.00    -0.369 OA
ATOM     24  C   UNL     1      -0.025   0.033   0.184  0.00  0.00    +0.068 C 
ATOM     25  C   UNL     1      -0.029   1.562   0.132  0.00  0.00    +0.070 C 
ATOM     26  C   UNL     1      -1.422  -0.473   0.550  0.00  0.00    +0.041 C 
ATOM     27  C   UNL     1       0.387  -0.528  -1.178  0.00  0.00    +0.041 C 
ATOM     28  N   UNL     1       4.019   3.084  -0.088  0.00  0.00    -0.337 N 
ATOM     29  H   UNL     1       4.977   3.449  -0.138  0.00  0.00    +0.168 HD
ENDROOT
BRANCH   1  30
ATOM     30  S   UNL     1      -3.507   7.811  -2.089  0.00  0.00    -0.086 S 
BRANCH  30  32
ATOM     31  C   UNL     1      -5.115   9.886  -2.858  0.00  0.00    +0.016 C 
ATOM     32  C   UNL     1      -3.642   9.531  -2.649  0.00  0.00    +0.074 C 
ENDBRANCH  30  32
ENDBRANCH   1  30
TORSDOF 2
