REMARK  Name = ZINC20096094
REMARK  8 active torsions:
REMARK  status: ('A' for Active; 'I' for Inactive)
REMARK    1  A    between atoms: C_1  and  C_2
REMARK    2  A    between atoms: C_7  and  N_8
REMARK    3  A    between atoms: C_9  and  C_11
REMARK    4  A    between atoms: C_11  and  N_12
REMARK    5  A    between atoms: C_17  and  C_19
REMARK    6  A    between atoms: C_22  and  C_29
REMARK    7  A    between atoms: C_23  and  S_25
REMARK    8  A    between atoms: S_25  and  N_28
REMARK                            x       y       z     vdW  Elec       q    Type
REMARK                         _______ _______ _______ _____ _____    ______ ____
ROOT
ATOM      1  N   UNL     1       1.056   2.135   0.256  0.00  0.00    -0.220 N 
ATOM      2  C   UNL     1       0.108   1.207   0.033  0.00  0.00    +0.271 A 
ATOM      3  O   UNL     1      -1.069   1.527   0.002  0.00  0.00    -0.266 OA
ATOM      4  C   UNL     1       0.485  -0.143  -0.172  0.00  0.00    +0.024 A 
ATOM      5  C   UNL     1       1.804  -0.446  -0.141  0.00  0.00    -0.011 A 
ATOM      6  C   UNL     1       2.727   0.603   0.105  0.00  0.00    +0.095 A 
ATOM      7  N   UNL     1       2.303   1.830   0.290  0.00  0.00    -0.167 NA
ATOM      8  C   UNL     1       2.329  -1.837  -0.363  0.00  0.00    +0.038 C 
ATOM      9  C   UNL     1       1.214  -2.865  -0.174  0.00  0.00    +0.005 C 
ATOM     10  C   UNL     1       0.009  -2.436  -1.020  0.00  0.00    +0.005 C 
ATOM     11  C   UNL     1      -0.587  -1.170  -0.404  0.00  0.00    +0.041 C 
ENDROOT
BRANCH   6  12
ATOM     12  C   UNL     1       4.181   0.310   0.156  0.00  0.00    +0.004 A 
ATOM     13  C   UNL     1       4.755  -0.543  -0.785  0.00  0.00    +0.010 A 
ATOM     14  C   UNL     1       6.108  -0.811  -0.734  0.00  0.00    +0.006 A 
ATOM     15  C   UNL     1       6.894  -0.236   0.249  0.00  0.00    -0.024 A 
ATOM     16  C   UNL     1       6.329   0.611   1.185  0.00  0.00    +0.109 A 
ATOM     17  C   UNL     1       4.978   0.891   1.140  0.00  0.00    +0.039 A 
ATOM     18  C   UNL     1       8.370  -0.533   0.299  0.00  0.00    +0.046 C 
BRANCH  16  19
ATOM     19  S   UNL     1       7.337   1.339   2.433  0.00  0.00    +0.056 S 
ATOM     20  O   UNL     1       8.469   1.888   1.772  0.00  0.00    -0.153 OA
ATOM     21  O   UNL     1       6.474   2.124   3.245  0.00  0.00    -0.153 OA
BRANCH  19  22
ATOM     22  N   UNL     1       7.897   0.109   3.389  0.00  0.00    -0.204 NA
ATOM     23  H   UNL     1       8.534   0.524   4.185  0.00  0.00    +0.144 HD
ATOM     24  H   UNL     1       8.485  -0.592   2.778  0.00  0.00    +0.144 HD
ENDBRANCH  19  22
ENDBRANCH  16  19
ENDBRANCH   6  12
BRANCH   1  25
ATOM     25  C   UNL     1       0.656   3.528   0.466  0.00  0.00    +0.243 C 
BRANCH  25  27
ATOM     26  N   UNL     1       0.044   4.988   2.367  0.00  0.00    -0.284 N 
ATOM     27  C   UNL     1       0.423   3.768   1.935  0.00  0.00    +0.239 C 
ATOM     28  O   UNL     1       0.575   2.864   2.729  0.00  0.00    -0.273 OA
ATOM     29  H   UNL     1      -0.153   5.791   1.642  0.00  0.00    +0.155 HD
BRANCH  26  36
ATOM     30  C   UNL     1       0.480   7.635   3.314  0.00  0.00    +0.045 C 
ATOM     31  C   UNL     1       0.106   6.509   4.242  0.00  0.00    -0.029 A 
ATOM     32  C   UNL     1      -0.036   6.746   5.595  0.00  0.00    +0.005 A 
ATOM     33  C   UNL     1      -0.380   5.713   6.448  0.00  0.00    +0.000 A 
ATOM     34  C   UNL     1      -0.584   4.440   5.948  0.00  0.00    +0.002 A 
ATOM     35  C   UNL     1      -0.449   4.197   4.596  0.00  0.00    +0.023 A 
ATOM     36  C   UNL     1      -0.098   5.231   3.738  0.00  0.00    +0.036 A 
ENDBRANCH  26  36
ENDBRANCH  25  27
ENDBRANCH   1  25
TORSDOF 6
