REMARK  Name = ZINC36602931
REMARK  19 active torsions:
REMARK  status: ('A' for Active; 'I' for Inactive)
REMARK    1  A    between atoms: C_1  and  C_2
REMARK    2  A    between atoms: C_2  and  C_3
REMARK    3  A    between atoms: C_3  and  C_4
REMARK    4  A    between atoms: C_4  and  C_5
REMARK    5  A    between atoms: C_5  and  C_6
REMARK    6  A    between atoms: C_6  and  C_8
REMARK    7  A    between atoms: C_6  and  N_19
REMARK    8  A    between atoms: N_10  and  C_11
REMARK    9  A    between atoms: C_11  and  C_12
REMARK   10  A    between atoms: C_11  and  C_13
REMARK   11  A    between atoms: C_11  and  C_14
REMARK   12  A    between atoms: C_14  and  C_15
REMARK   13  A    between atoms: C_15  and  C_16
REMARK   14  A    between atoms: C_15  and  C_17
REMARK   15  A    between atoms: C_15  and  C_18
REMARK   16  A    between atoms: N_19  and  C_20
REMARK   17  A    between atoms: C_20  and  C_21
REMARK   18  A    between atoms: C_24  and  C_26
REMARK   19  A    between atoms: C_27  and  C_29
REMARK                            x       y       z     vdW  Elec       q    Type
REMARK                         _______ _______ _______ _____ _____    ______ ____
ROOT
ATOM      1  C   UNL     1      -3.196  -3.282  -0.660  0.00  0.00    +0.163 C 
ENDROOT
BRANCH   1   2
ATOM      2  C   UNL     1      -4.458  -3.410   0.153  0.00  0.00    +0.234 C 
ATOM      3  O   UNL     1      -5.401  -4.034  -0.286  0.00  0.00    -0.274 OA
ATOM      4  N   UNL     1      -4.540  -2.830   1.367  0.00  0.00    -0.309 N 
ATOM      5  H   UNL     1      -3.786  -2.331   1.718  0.00  0.00    +0.149 HD
BRANCH   4   6
ATOM      6  C   UNL     1      -5.767  -2.955   2.157  0.00  0.00    +0.030 C 
ATOM      7  C   UNL     1      -6.814  -1.971   1.631  0.00  0.00    +0.031 C 
ATOM      8  C   UNL     1      -6.306  -4.382   2.042  0.00  0.00    +0.031 C 
BRANCH   6   9
ATOM      9  C   UNL     1      -5.464  -2.640   3.623  0.00  0.00    +0.031 C 
BRANCH   9  10
ATOM     10  C   UNL     1      -4.209  -3.400   4.059  0.00  0.00    -0.036 C 
ATOM     11  C   UNL     1      -2.968  -2.683   3.524  0.00  0.00    +0.010 C 
ATOM     12  C   UNL     1      -4.149  -3.452   5.587  0.00  0.00    +0.010 C 
ATOM     13  C   UNL     1      -4.255  -4.824   3.501  0.00  0.00    +0.010 C 
ENDBRANCH   9  10
ENDBRANCH   6   9
ENDBRANCH   4   6
ENDBRANCH   1   2
BRANCH   1  14
ATOM     14  N   UNL     1      -3.358  -3.994  -1.930  0.00  0.00    -0.279 N 
ATOM     15  C   UNL     1      -2.532  -5.011  -2.243  0.00  0.00    +0.248 C 
ATOM     16  O   UNL     1      -1.710  -5.398  -1.434  0.00  0.00    -0.270 OA
BRANCH  15  17
ATOM     17  C   UNL     1      -2.624  -5.657  -3.568  0.00  0.00    +0.037 A 
ATOM     18  C   UNL     1      -3.199  -4.974  -4.642  0.00  0.00    +0.016 A 
ATOM     19  C   UNL     1      -3.283  -5.581  -5.877  0.00  0.00    +0.039 A 
ATOM     20  C   UNL     1      -2.798  -6.868  -6.053  0.00  0.00    +0.123 A 
ATOM     21  C   UNL     1      -2.226  -7.551  -4.990  0.00  0.00    +0.039 A 
ATOM     22  C   UNL     1      -2.132  -6.951  -3.753  0.00  0.00    +0.016 A 
ATOM     23  F   UNL     1      -2.883  -7.459  -7.265  0.00  0.00    -0.205 F 
ENDBRANCH  15  17
BRANCH  14  24
ATOM     24  C   UNL     1      -4.419  -3.599  -2.860  0.00  0.00    +0.183 C 
BRANCH  24  25
ATOM     25  C   UNL     1      -4.038  -2.309  -3.539  0.00  0.00    +0.122 A 
ATOM     26  C   UNL     1      -3.511  -2.194  -4.771  0.00  0.00    +0.046 A 
ATOM     27  C   UNL     1      -3.311  -0.814  -5.004  0.00  0.00    +0.045 A 
ATOM     28  C   UNL     1      -3.727  -0.168  -3.900  0.00  0.00    +0.102 A 
ATOM     29  O   UNL     1      -4.172  -1.078  -3.018  0.00  0.00    -0.463 OA
ATOM     30  C   UNL     1      -3.703   1.324  -3.691  0.00  0.00    +0.086 C 
ENDBRANCH  24  25
ENDBRANCH  14  24
ENDBRANCH   1  14
BRANCH   1  31
ATOM     31  C   UNL     1      -2.914  -1.804  -0.936  0.00  0.00    +0.032 C 
BRANCH  31  32
ATOM     32  C   UNL     1      -1.569  -1.665  -1.652  0.00  0.00    +0.002 C 
BRANCH  32  33
ATOM     33  C   UNL     1      -1.288  -0.187  -1.928  0.00  0.00    -0.000 C 
BRANCH  33  35
ATOM     34  C   UNL     1       0.338   1.429  -2.921  0.00  0.00    +0.004 C 
ATOM     35  C   UNL     1       0.057  -0.049  -2.645  0.00  0.00    -0.003 C 
ENDBRANCH  33  35
ENDBRANCH  32  33
ENDBRANCH  31  32
ENDBRANCH   1  31
TORSDOF 12
