REMARK  Name = ZINC06134986
REMARK  17 active torsions:
REMARK  status: ('A' for Active; 'I' for Inactive)
REMARK    1  A    between atoms: C_1  and  C_2
REMARK    2  A    between atoms: C_2  and  C_3
REMARK    3  A    between atoms: C_2  and  C_4
REMARK    4  A    between atoms: C_4  and  C_5
REMARK    5  A    between atoms: C_5  and  C_7
REMARK    6  A    between atoms: C_5  and  N_14
REMARK    7  A    between atoms: N_9  and  C_10
REMARK    8  A    between atoms: C_10  and  C_11
REMARK    9  A    between atoms: C_10  and  C_12
REMARK   10  A    between atoms: C_10  and  C_13
REMARK   11  A    between atoms: N_14  and  C_15
REMARK   12  A    between atoms: C_18  and  C_21
REMARK   13  A    between atoms: C_21  and  C_22
REMARK   14  A    between atoms: C_21  and  C_23
REMARK   15  A    between atoms: C_24  and  C_26
REMARK   16  A    between atoms: C_27  and  N_34
REMARK   17  A    between atoms: C_28  and  C_31
REMARK                            x       y       z     vdW  Elec       q    Type
REMARK                         _______ _______ _______ _____ _____    ______ ____
ROOT
ATOM      1  N   UNL     1       3.392  -0.937   0.592  0.00  0.00    -0.255 N 
ATOM      2  C   UNL     1       3.336  -2.278   0.470  0.00  0.00    +0.261 C 
ATOM      3  O   UNL     1       3.831  -2.822  -0.501  0.00  0.00    -0.269 OA
ENDROOT
BRANCH   1   4
ATOM      4  C   UNL     1       3.912  -0.161  -0.449  0.00  0.00    +0.037 A 
ATOM      5  C   UNL     1       4.104   1.203  -0.271  0.00  0.00    +0.024 A 
ATOM      6  C   UNL     1       4.623   1.965  -1.299  0.00  0.00    +0.006 A 
ATOM      7  C   UNL     1       4.940   1.375  -2.508  0.00  0.00    -0.045 A 
ATOM      8  C   UNL     1       4.745   0.018  -2.690  0.00  0.00    +0.006 A 
ATOM      9  C   UNL     1       4.232  -0.752  -1.665  0.00  0.00    +0.024 A 
BRANCH   7  10
ATOM     10  C   UNL     1       5.500   2.211  -3.630  0.00  0.00    +0.013 C 
ATOM     11  C   UNL     1       4.495   3.302  -4.003  0.00  0.00    +0.012 C 
ATOM     12  C   UNL     1       6.811   2.858  -3.178  0.00  0.00    +0.012 C 
ENDBRANCH   7  10
ENDBRANCH   1   4
BRANCH   2  13
ATOM     13  C   UNL     1       2.680  -3.081   1.503  0.00  0.00    +0.116 A 
ATOM     14  C   UNL     1       2.896  -4.414   1.858  0.00  0.00    +0.076 A 
ATOM     15  C   UNL     1       2.069  -4.829   2.902  0.00  0.00    +0.155 A 
ATOM     16  N   UNL     1       1.215  -3.977   3.424  0.00  0.00    -0.203 NA
ATOM     17  S   UNL     1       1.400  -2.616   2.651  0.00  0.00    +0.019 S 
BRANCH  15  18
ATOM     18  C   UNL     1       2.152  -6.209   3.415  0.00  0.00    +0.262 C 
ATOM     19  O   UNL     1       2.944  -6.992   2.927  0.00  0.00    -0.269 OA
ATOM     20  N   UNL     1       1.350  -6.603   4.424  0.00  0.00    -0.324 N 
ATOM     21  H   UNL     1       0.719  -5.978   4.813  0.00  0.00    +0.145 HD
ATOM     22  H   UNL     1       1.405  -7.511   4.761  0.00  0.00    +0.145 HD
ENDBRANCH  15  18
BRANCH  14  23
ATOM     23  N   UNL     1       3.829  -5.236   1.240  0.00  0.00    -0.355 N 
ATOM     24  H   UNL     1       4.376  -4.890   0.517  0.00  0.00    +0.142 HD
ATOM     25  H   UNL     1       3.933  -6.155   1.530  0.00  0.00    +0.142 HD
ENDBRANCH  14  23
ENDBRANCH   2  13
BRANCH   1  26
ATOM     26  C   UNL     1       2.908  -0.293   1.815  0.00  0.00    +0.168 C 
BRANCH  26  27
ATOM     27  C   UNL     1       1.824   0.695   1.468  0.00  0.00    +0.234 C 
ATOM     28  O   UNL     1       1.580   0.943   0.306  0.00  0.00    -0.274 OA
ATOM     29  N   UNL     1       1.125   1.301   2.447  0.00  0.00    -0.309 N 
ATOM     30  H   UNL     1       1.320   1.102   3.377  0.00  0.00    +0.149 HD
BRANCH  29  31
ATOM     31  C   UNL     1       0.071   2.261   2.110  0.00  0.00    +0.026 C 
ATOM     32  C   UNL     1      -1.001   1.566   1.267  0.00  0.00    +0.031 C 
ATOM     33  C   UNL     1      -0.560   2.799   3.395  0.00  0.00    +0.031 C 
ATOM     34  C   UNL     1       0.673   3.420   1.313  0.00  0.00    +0.031 C 
ENDBRANCH  29  31
ENDBRANCH  26  27
BRANCH  26  35
ATOM     35  C   UNL     1       4.065   0.440   2.498  0.00  0.00    +0.035 C 
BRANCH  35  37
ATOM     36  C   UNL     1       4.428  -1.454   4.086  0.00  0.00    +0.007 C 
ATOM     37  C   UNL     1       5.081  -0.581   3.013  0.00  0.00    -0.015 C 
ATOM     38  C   UNL     1       6.281   0.153   3.615  0.00  0.00    +0.007 C 
ENDBRANCH  35  37
ENDBRANCH  26  35
ENDBRANCH   1  26
TORSDOF 10
