REMARK  Name = ZINC15723355
REMARK  3 active torsions:
REMARK  status: ('A' for Active; 'I' for Inactive)
REMARK    1  A    between atoms: N_9  and  C_24
REMARK    2  A    between atoms: C_11  and  C_12
REMARK    3  A    between atoms: C_27  and  N_30
REMARK                            x       y       z     vdW  Elec       q    Type
REMARK                         _______ _______ _______ _____ _____    ______ ____
ROOT
ATOM      1  C   UNL     1       0.495   1.556  -1.760  0.00  0.00    +0.001 A 
ATOM      2  C   UNL     1       1.643   1.842  -2.485  0.00  0.00    +0.002 A 
ATOM      3  C   UNL     1       2.676   0.929  -2.556  0.00  0.00    +0.024 A 
ATOM      4  C   UNL     1       2.567  -0.288  -1.897  0.00  0.00    +0.044 A 
ATOM      5  C   UNL     1       1.403  -0.578  -1.161  0.00  0.00    +0.059 A 
ATOM      6  C   UNL     1       0.369   0.353  -1.098  0.00  0.00    +0.015 A 
ATOM      7  C   UNL     1       1.317  -1.877  -0.472  0.00  0.00    +0.258 C 
ATOM      8  O   UNL     1       0.331  -2.174   0.176  0.00  0.00    -0.269 OA
ATOM      9  N   UNL     1       2.359  -2.729  -0.578  0.00  0.00    -0.224 N 
ATOM     10  C   UNL     1       3.459  -2.402  -1.300  0.00  0.00    +0.102 C 
ATOM     11  C   UNL     1       4.524  -3.334  -1.378  0.00  0.00    +0.053 C 
ATOM     12  N   UNL     1       3.580  -1.228  -1.945  0.00  0.00    -0.302 N 
ATOM     13  H   UNL     1       4.387  -1.039  -2.449  0.00  0.00    +0.153 HD
ENDROOT
BRANCH  11  14
ATOM     14  C   UNL     1       5.706  -2.971  -1.946  0.00  0.00    +0.049 C 
ATOM     15  C   UNL     1       6.353  -1.644  -1.925  0.00  0.00    +0.009 A 
ATOM     16  C   UNL     1       6.011  -0.418  -1.368  0.00  0.00    +0.025 A 
ATOM     17  C   UNL     1       6.854   0.668  -1.529  0.00  0.00    +0.019 A 
ATOM     18  C   UNL     1       8.034   0.533  -2.243  0.00  0.00    +0.017 A 
ATOM     19  C   UNL     1       8.388  -0.679  -2.803  0.00  0.00    +0.025 A 
ATOM     20  C   UNL     1       7.554  -1.789  -2.654  0.00  0.00    +0.042 A 
ATOM     21  N   UNL     1       7.668  -3.071  -3.096  0.00  0.00    -0.281 N 
ATOM     22  C   UNL     1       6.650  -3.825  -2.729  0.00  0.00    +0.249 C 
ATOM     23  O   UNL     1       6.503  -5.010  -2.986  0.00  0.00    -0.270 OA
ATOM     24 BR   UNL     1       6.394   2.339  -0.774  0.00  0.00    -0.050 Br
ATOM     25  H   UNL     1       8.417  -3.396  -3.619  0.00  0.00    +0.155 HD
ENDBRANCH  11  14
BRANCH   9  26
ATOM     26  C   UNL     1       2.302  -3.970   0.066  0.00  0.00    +0.043 A 
ATOM     27  C   UNL     1       1.805  -5.080  -0.604  0.00  0.00    +0.026 A 
ATOM     28  C   UNL     1       1.751  -6.303   0.035  0.00  0.00    +0.034 A 
ATOM     29  C   UNL     1       2.191  -6.423   1.341  0.00  0.00    +0.126 A 
ATOM     30  C   UNL     1       2.686  -5.319   2.011  0.00  0.00    +0.034 A 
ATOM     31  C   UNL     1       2.749  -4.095   1.376  0.00  0.00    +0.026 A 
BRANCH  29  32
ATOM     32  N   UNL     1       2.130  -7.735   2.023  0.00  0.00    +0.056 N 
ATOM     33  O   UNL     1       1.697  -8.701   1.439  0.00  0.00    -0.126 OA
ATOM     34  O   UNL     1       2.514  -7.841   3.164  0.00  0.00    -0.126 OA
ENDBRANCH  29  32
ENDBRANCH   9  26
TORSDOF 3
