REMARK  Name = ZINC67295124
REMARK  3 active torsions:
REMARK  status: ('A' for Active; 'I' for Inactive)
REMARK    1  A    between atoms: C_8  and  C_10
REMARK    2  A    between atoms: N_20  and  C_21
REMARK    3  A    between atoms: C_24  and  C_27
REMARK                            x       y       z     vdW  Elec       q    Type
REMARK                         _______ _______ _______ _____ _____    ______ ____
ROOT
ATOM      1  C   UNL     1       0.167  -4.207   0.229  0.00  0.00    +0.098 A 
ATOM      2  C   UNL     1      -1.005  -4.952   0.227  0.00  0.00    +0.030 A 
ATOM      3  C   UNL     1      -0.875  -6.410   0.286  0.00  0.00    +0.019 A 
ATOM      4  C   UNL     1      -1.973  -7.238   0.022  0.00  0.00    +0.026 A 
ATOM      5  C   UNL     1      -1.823  -8.606   0.082  0.00  0.00    +0.019 A 
ATOM      6  C   UNL     1      -0.593  -9.164   0.402  0.00  0.00    +0.019 A 
ATOM      7  C   UNL     1       0.497  -8.361   0.666  0.00  0.00    +0.048 A 
ATOM      8  C   UNL     1       0.369  -6.981   0.614  0.00  0.00    +0.137 A 
ATOM      9  O   UNL     1       1.430  -6.179   0.878  0.00  0.00    -0.439 OA
ATOM     10  C   UNL     1       1.439  -4.955   0.286  0.00  0.00    +0.212 A 
ATOM     11  N   UNL     1       2.545  -4.450  -0.217  0.00  0.00    -0.325 N 
ATOM     12 BR   UNL     1      -3.302  -9.730  -0.273  0.00  0.00    -0.050 Br
ATOM     13  H   UNL     1       2.514  -3.622  -0.722  0.00  0.00    +0.169 HD
ENDROOT
BRANCH   1  21
ATOM     14  C   UNL     1       0.144   1.409  -0.196  0.00  0.00    +0.005 A 
ATOM     15  C   UNL     1       1.219   2.078   0.374  0.00  0.00    +0.020 A 
ATOM     16  C   UNL     1       2.268   1.349   0.899  0.00  0.00    +0.113 A 
ATOM     17  N   UNL     1       2.259   0.030   0.865  0.00  0.00    -0.240 NA
ATOM     18  C   UNL     1       1.253  -0.644   0.330  0.00  0.00    +0.125 A 
ATOM     19  C   UNL     1       0.164   0.025  -0.217  0.00  0.00    +0.044 A 
ATOM     20  N   UNL     1       1.286  -2.037   0.315  0.00  0.00    -0.266 N 
ATOM     21  C   UNL     1       0.142  -2.736   0.171  0.00  0.00    +0.254 C 
ATOM     22  O   UNL     1      -0.910  -2.152  -0.006  0.00  0.00    -0.270 OA
ATOM     23  H   UNL     1       2.131  -2.503   0.409  0.00  0.00    +0.157 HD
ENDBRANCH   1  21
BRANCH  11  24
ATOM     24  C   UNL     1       3.737  -5.092  -0.028  0.00  0.00    +0.042 A 
ATOM     25  C   UNL     1       4.072  -5.593   1.232  0.00  0.00    +0.026 A 
ATOM     26  C   UNL     1       5.277  -6.240   1.416  0.00  0.00    +0.014 A 
ATOM     27  C   UNL     1       6.152  -6.393   0.355  0.00  0.00    +0.055 A 
ATOM     28  C   UNL     1       5.827  -5.899  -0.896  0.00  0.00    +0.014 A 
ATOM     29  C   UNL     1       4.624  -5.255  -1.095  0.00  0.00    +0.026 A 
BRANCH  27  30
ATOM     30  C   UNL     1       7.466  -7.101   0.564  0.00  0.00    +0.417 C 
ATOM     31  F   UNL     1       7.302  -8.470   0.323  0.00  0.00    -0.166 F 
ATOM     32  F   UNL     1       8.420  -6.584  -0.319  0.00  0.00    -0.166 F 
ATOM     33  F   UNL     1       7.896  -6.908   1.881  0.00  0.00    -0.166 F 
ENDBRANCH  27  30
ENDBRANCH  11  24
TORSDOF 3
