REMARK  Name = ZINC54268516
REMARK  3 active torsions:
REMARK  status: ('A' for Active; 'I' for Inactive)
REMARK    1  A    between atoms: C_1  and  C_2
REMARK    2  A    between atoms: C_4  and  C_16
REMARK    3  A    between atoms: C_11  and  C_14
REMARK                            x       y       z     vdW  Elec       q    Type
REMARK                         _______ _______ _______ _____ _____    ______ ____
ROOT
ATOM      1  C   UNL     1      -0.018   1.503   0.010  0.00  0.00    +0.066 C 
ATOM      2  C   UNL     1       0.002  -0.004   0.002  0.00  0.00    +0.044 A 
ATOM      3  C   UNL     1       0.006  -0.699  -1.197  0.00  0.00    +0.046 A 
ATOM      4  C   UNL     1       0.025  -2.084  -1.160  0.00  0.00    +0.044 A 
ATOM      5  N   UNL     1       0.040  -2.698   0.011  0.00  0.00    -0.220 NA
ATOM      6  C   UNL     1       0.035  -2.004   1.140  0.00  0.00    +0.218 A 
ATOM      7  N   UNL     1       0.022  -0.679   1.139  0.00  0.00    -0.220 NA
ATOM      8  N   UNL     1       0.050  -2.679   2.348  0.00  0.00    -0.300 N 
ATOM      9  C   UNL     1       0.076  -4.148   2.385  0.00  0.00    +0.108 C 
ATOM     10  C   UNL     1      -1.080  -4.640   3.260  0.00  0.00    +0.030 C 
ATOM     11  C   UNL     1      -0.992  -3.975   4.636  0.00  0.00    +0.055 C 
ATOM     12  C   UNL     1      -1.116  -2.458   4.480  0.00  0.00    +0.030 C 
ATOM     13  C   UNL     1       0.046  -1.941   3.618  0.00  0.00    +0.108 C 
ATOM     14  C   UNL     1       0.030  -2.881  -2.439  0.00  0.00    +0.066 C 
ENDROOT
BRANCH  11  15
ATOM     15  C   UNL     1      -2.109  -4.483   5.511  0.00  0.00    +0.226 C 
ATOM     16  O   UNL     1      -1.854  -5.055   6.544  0.00  0.00    -0.301 OA
ENDBRANCH  11  15
TORSDOF 1
