REMARK  Name = ZINC12145257
REMARK  5 active torsions:
REMARK  status: ('A' for Active; 'I' for Inactive)
REMARK    1  A    between atoms: C_1  and  C_2
REMARK    2  A    between atoms: N_13  and  C_19
REMARK    3  A    between atoms: C_19  and  C_20
REMARK    4  A    between atoms: C_24  and  C_31
REMARK    5  A    between atoms: C_27  and  C_30
REMARK                            x       y       z     vdW  Elec       q    Type
REMARK                         _______ _______ _______ _____ _____    ______ ____
ROOT
ATOM      1  C   UNL     1      -0.214   7.971   7.099  0.00  0.00    +0.008 C 
ATOM      2  C   UNL     1       0.011   7.561   5.642  0.00  0.00    -0.009 C 
ATOM      3  C   UNL     1      -1.023   6.505   5.240  0.00  0.00    +0.008 C 
ATOM      4  C   UNL     1      -0.658   5.909   3.880  0.00  0.00    +0.037 C 
ATOM      5  C   UNL     1      -0.464   7.047   2.881  0.00  0.00    -0.024 A 
ATOM      6  C   UNL     1      -0.245   8.311   3.314  0.00  0.00    -0.004 A 
ATOM      7  S   UNL     1      -0.085   9.268   1.830  0.00  0.00    -0.073 S 
ATOM      8  C   UNL     1      -0.317   7.950   0.662  0.00  0.00    +0.114 A 
ATOM      9  C   UNL     1      -0.506   6.830   1.481  0.00  0.00    +0.056 A 
ATOM     10  C   UNL     1      -0.729   5.554   0.755  0.00  0.00    +0.173 A 
ATOM     11  N   UNL     1      -0.937   4.334   1.162  0.00  0.00    -0.148 NA
ATOM     12  N   UNL     1      -1.083   3.523   0.026  0.00  0.00    -0.203 N 
ATOM     13  C   UNL     1      -0.948   4.314  -1.059  0.00  0.00    +0.353 A 
ATOM     14  O   UNL     1      -1.010   3.955  -2.222  0.00  0.00    -0.244 OA
ATOM     15  N   UNL     1      -0.734   5.574  -0.627  0.00  0.00    -0.233 N 
ATOM     16  C   UNL     1      -0.533   6.753  -1.299  0.00  0.00    +0.211 A 
ATOM     17  N   UNL     1      -0.337   7.872  -0.668  0.00  0.00    -0.229 NA
ATOM     18  C   UNL     1      -0.157   8.786   4.731  0.00  0.00    +0.046 C 
ENDROOT
BRANCH  12  19
ATOM     19  C   UNL     1      -1.331   2.079   0.020  0.00  0.00    +0.244 C 
BRANCH  19  20
ATOM     20  C   UNL     1      -0.016   1.344   0.009  0.00  0.00    +0.237 C 
ATOM     21  O   UNL     1       1.026   1.964   0.003  0.00  0.00    -0.274 OA
ATOM     22  N   UNL     1       0.002  -0.004   0.002  0.00  0.00    -0.295 N 
ATOM     23  C   UNL     1      -1.249  -0.779   0.016  0.00  0.00    +0.139 C 
ATOM     24  C   UNL     1      -1.184  -1.814  -1.119  0.00  0.00    +0.133 C 
ATOM     25  O   UNL     1       0.027  -2.563  -1.001  0.00  0.00    -0.371 OA
ATOM     26  C   UNL     1       1.216  -1.781  -1.142  0.00  0.00    +0.133 C 
ATOM     27  C   UNL     1       1.274  -0.744  -0.014  0.00  0.00    +0.139 C 
ATOM     28  C   UNL     1       2.441  -2.693  -1.062  0.00  0.00    +0.039 C 
ATOM     29  C   UNL     1      -2.383  -2.760  -1.016  0.00  0.00    +0.039 C 
ENDBRANCH  19  20
ENDBRANCH  12  19
TORSDOF 2
