REMARK  Name = ZINC35867427
REMARK  10 active torsions:
REMARK  status: ('A' for Active; 'I' for Inactive)
REMARK    1  A    between atoms: C_1  and  C_2
REMARK    2  A    between atoms: C_11  and  N_18
REMARK    3  A    between atoms: C_13  and  C_15
REMARK    4  A    between atoms: C_15  and  C_16
REMARK    5  A    between atoms: C_15  and  C_17
REMARK    6  A    between atoms: N_26  and  C_27
REMARK    7  A    between atoms: C_30  and  O_35
REMARK    8  A    between atoms: C_32  and  O_33
REMARK    9  A    between atoms: O_33  and  C_34
REMARK   10  A    between atoms: O_35  and  C_36
REMARK                            x       y       z     vdW  Elec       q    Type
REMARK                         _______ _______ _______ _____ _____    ______ ____
ROOT
ATOM      1  N   UNL     1       1.042  -4.416  -2.345  0.00  0.00    -0.312 N 
ATOM      2  C   UNL     1       0.970  -2.997  -2.720  0.00  0.00    +0.125 C 
ATOM      3  C   UNL     1       1.936  -2.747  -3.885  0.00  0.00    +0.128 C 
ATOM      4  N   UNL     1       1.700  -3.765  -4.918  0.00  0.00    -0.282 N 
ATOM      5  C   UNL     1       1.772  -5.185  -4.543  0.00  0.00    +0.128 C 
ATOM      6  C   UNL     1       0.811  -5.434  -3.380  0.00  0.00    +0.125 C 
ATOM      7  C   UNL     1       1.420  -3.404  -6.186  0.00  0.00    +0.307 C 
ATOM      8  O   UNL     1       1.453  -2.231  -6.505  0.00  0.00    -0.252 OA
ATOM      9  N   UNL     1       1.105  -4.343  -7.100  0.00  0.00    -0.266 N 
ATOM     10  H   UNL     1       1.047  -5.275  -6.838  0.00  0.00    +0.156 HD
ENDROOT
BRANCH   1  20
ATOM     11  C   UNL     1      -5.417  -5.495  -0.782  0.00  0.00    +0.008 C 
ATOM     12  C   UNL     1      -3.899  -5.686  -0.765  0.00  0.00    -0.009 C 
ATOM     13  C   UNL     1      -3.227  -4.528  -1.509  0.00  0.00    +0.008 C 
ATOM     14  C   UNL     1      -1.743  -4.835  -1.712  0.00  0.00    +0.037 C 
ATOM     15  C   UNL     1      -1.123  -5.194  -0.364  0.00  0.00    -0.025 A 
ATOM     16  C   UNL     1      -1.905  -5.571   0.673  0.00  0.00    -0.004 A 
ATOM     17  S   UNL     1      -0.784  -5.887   2.013  0.00  0.00    -0.073 S 
ATOM     18  C   UNL     1       0.728  -5.513   1.187  0.00  0.00    +0.114 A 
ATOM     19  C   UNL     1       0.309  -5.151  -0.119  0.00  0.00    +0.051 A 
ATOM     20  C   UNL     1       1.329  -4.787  -1.044  0.00  0.00    +0.133 A 
ATOM     21  N   UNL     1       2.576  -4.826  -0.578  0.00  0.00    -0.216 NA
ATOM     22  C   UNL     1       2.891  -5.174   0.654  0.00  0.00    +0.135 A 
ATOM     23  N   UNL     1       1.990  -5.524   1.565  0.00  0.00    -0.224 NA
ATOM     24  C   UNL     1      -3.398  -5.699   0.686  0.00  0.00    +0.046 C 
BRANCH  22  25
ATOM     25  C   UNL     1       4.345  -5.175   1.048  0.00  0.00    +0.051 C 
ATOM     26  C   UNL     1       4.560  -4.199   2.207  0.00  0.00    +0.015 C 
ATOM     27  C   UNL     1       4.755  -6.583   1.484  0.00  0.00    +0.015 C 
ENDBRANCH  22  25
ENDBRANCH   1  20
BRANCH   9  28
ATOM     28  C   UNL     1       0.861  -3.972  -8.432  0.00  0.00    +0.077 A 
ATOM     29  C   UNL     1       0.526  -2.661  -8.736  0.00  0.00    +0.030 A 
ATOM     30  C   UNL     1       0.285  -2.296 -10.047  0.00  0.00    +0.047 A 
ATOM     31  C   UNL     1       0.379  -3.238 -11.061  0.00  0.00    +0.124 A 
ATOM     32  C   UNL     1       0.714  -4.550 -10.761  0.00  0.00    +0.093 A 
ATOM     33  C   UNL     1       0.962  -4.918  -9.448  0.00  0.00    +0.145 A 
BRANCH  33  34
ATOM     34  O   UNL     1       1.297  -6.202  -9.153  0.00  0.00    -0.493 OA
ATOM     35  C   UNL     1       1.381  -7.119 -10.246  0.00  0.00    +0.277 C 
ENDBRANCH  33  34
BRANCH  31  36
ATOM     36  O   UNL     1       0.141  -2.876 -12.350  0.00  0.00    -0.495 OA
ATOM     37  C   UNL     1      -0.199  -1.508 -12.587  0.00  0.00    +0.277 C 
ENDBRANCH  31  36
ENDBRANCH   9  28
TORSDOF 5
