REMARK  Name = ZINC20425248
REMARK  7 active torsions:
REMARK  status: ('A' for Active; 'I' for Inactive)
REMARK    1  A    between atoms: C_1  and  C_2
REMARK    2  A    between atoms: C_4  and  C_20
REMARK    3  A    between atoms: C_6  and  C_19
REMARK    4  A    between atoms: C_7  and  O_8
REMARK    5  A    between atoms: O_8  and  C_9
REMARK    6  A    between atoms: C_9  and  C_10
REMARK    7  A    between atoms: C_13  and  C_17
REMARK                            x       y       z     vdW  Elec       q    Type
REMARK                         _______ _______ _______ _____ _____    ______ ____
ROOT
ATOM      1  O   UNL     1      -2.422   3.802   0.046  0.00  0.00    -0.487 OA
ENDROOT
BRANCH   1   8
ATOM      2  C   UNL     1      -2.513   0.979   0.019  0.00  0.00    +0.047 C 
ATOM      3  C   UNL     1      -1.218   1.750   0.017  0.00  0.00    -0.008 A 
ATOM      4  C   UNL     1      -0.013   1.076   0.008  0.00  0.00    +0.011 A 
ATOM      5  C   UNL     1       1.176   1.783   0.000  0.00  0.00    -0.032 A 
ATOM      6  C   UNL     1       1.160   3.165   0.007  0.00  0.00    +0.011 A 
ATOM      7  C   UNL     1      -0.043   3.844   0.023  0.00  0.00    -0.008 A 
ATOM      8  C   UNL     1      -1.237   3.137   0.031  0.00  0.00    +0.127 A 
ATOM      9  C   UNL     1      -0.059   5.351   0.031  0.00  0.00    +0.047 C 
BRANCH   5  10
ATOM     10  C   UNL     1       2.490   1.045  -0.016  0.00  0.00    +0.143 C 
ATOM     11 CL   UNL     1       2.998   0.760  -1.722  0.00  0.00    -0.120 Cl
ENDBRANCH   5  10
ENDBRANCH   1   8
BRANCH   1  12
ATOM     12  C   UNL     1      -3.000   4.126  -1.220  0.00  0.00    +0.267 C 
BRANCH  12  13
ATOM     13  C   UNL     1      -4.301   4.856  -1.006  0.00  0.00    +0.025 A 
ATOM     14  C   UNL     1      -4.746   5.107   0.280  0.00  0.00    +0.011 A 
ATOM     15  C   UNL     1      -5.936   5.775   0.484  0.00  0.00    +0.019 A 
ATOM     16  C   UNL     1      -6.692   6.199  -0.611  0.00  0.00    +0.055 A 
ATOM     17  C   UNL     1      -6.239   5.944  -1.906  0.00  0.00    +0.057 A 
ATOM     18  C   UNL     1      -5.042   5.279  -2.097  0.00  0.00    +0.131 A 
ATOM     19  F   UNL     1      -4.598   5.036  -3.349  0.00  0.00    -0.205 F 
BRANCH  16  20
ATOM     20  C   UNL     1      -7.928   6.894  -0.405  0.00  0.00    +0.099 C 
ATOM     21  N   UNL     1      -8.908   7.445  -0.242  0.00  0.00    -0.191 NA
ENDBRANCH  16  20
ENDBRANCH  12  13
ENDBRANCH   1  12
TORSDOF 5
