REMARK  Name = ZINC60879531
REMARK  4 active torsions:
REMARK  status: ('A' for Active; 'I' for Inactive)
REMARK    1  A    between atoms: C_1  and  C_2
REMARK    2  A    between atoms: C_5  and  N_9
REMARK    3  A    between atoms: C_7  and  C_8
REMARK    4  A    between atoms: C_10  and  C_12
REMARK                            x       y       z     vdW  Elec       q    Type
REMARK                         _______ _______ _______ _____ _____    ______ ____
ROOT
ATOM      1  C   UNL     1      -0.133  -6.348  -1.175  0.00  0.00    +0.302 C 
ATOM      2  O   UNL     1      -0.186  -6.953  -0.124  0.00  0.00    -0.265 OA
ATOM      3  N   UNL     1      -0.130  -7.023  -2.341  0.00  0.00    -0.291 N 
ATOM      4  C   UNL     1      -0.166  -6.304  -3.622  0.00  0.00    +0.127 C 
ATOM      5  C   UNL     1       1.029  -6.754  -4.471  0.00  0.00    +0.125 C 
ATOM      6  N   UNL     1       1.069  -8.223  -4.485  0.00  0.00    -0.314 N 
ATOM      7  C   UNL     1       1.105  -8.943  -3.204  0.00  0.00    +0.125 C 
ATOM      8  C   UNL     1      -0.085  -8.492  -2.355  0.00  0.00    +0.127 C 
ATOM      9  C   UNL     1       1.072  -8.919  -5.688  0.00  0.00    +0.099 A 
ATOM     10  C   UNL     1       1.172  -8.222  -6.888  0.00  0.00    +0.042 A 
ATOM     11  C   UNL     1       1.174  -8.928  -8.078  0.00  0.00    +0.005 A 
ATOM     12  C   UNL     1       1.074 -10.312  -8.027  0.00  0.00    +0.018 A 
ATOM     13  C   UNL     1       0.978 -10.939  -6.801  0.00  0.00    +0.084 A 
ATOM     14  N   UNL     1       0.984 -10.240  -5.682  0.00  0.00    -0.350 N 
ATOM     15  H   UNL     1       0.919 -10.706  -4.833  0.00  0.00    +0.166 HD
ENDROOT
BRANCH   1  17
ATOM     16  N   UNL     1       0.066  -4.187  -0.014  0.00  0.00    -0.278 N 
ATOM     17  C   UNL     1      -0.070  -4.856  -1.176  0.00  0.00    +0.303 C 
ATOM     18  O   UNL     1      -0.142  -4.246  -2.223  0.00  0.00    -0.265 OA
ATOM     19  H   UNL     1       0.199  -4.674   0.814  0.00  0.00    +0.155 HD
BRANCH  16  24
ATOM     20  C   UNL     1      -0.140   1.481   0.034  0.00  0.00    +0.044 C 
ATOM     21  C   UNL     1      -0.085  -0.025   0.021  0.00  0.00    -0.047 A 
ATOM     22  C   UNL     1       0.636  -0.698   0.991  0.00  0.00    +0.005 A 
ATOM     23  C   UNL     1       0.689  -2.077   0.982  0.00  0.00    +0.023 A 
ATOM     24  C   UNL     1       0.015  -2.790  -0.002  0.00  0.00    +0.034 A 
ATOM     25  C   UNL     1      -0.710  -2.112  -0.974  0.00  0.00    +0.027 A 
ATOM     26  C   UNL     1      -0.761  -0.732  -0.956  0.00  0.00    -0.046 A 
ATOM     27  C   UNL     1      -1.551   0.005  -2.007  0.00  0.00    +0.044 C 
ENDBRANCH  16  24
ENDBRANCH   1  17
TORSDOF 2
