REMARK  Name = ZINC13272342
REMARK  8 active torsions:
REMARK  status: ('A' for Active; 'I' for Inactive)
REMARK    1  A    between atoms: C_2  and  C_3
REMARK    2  A    between atoms: C_3  and  N_4
REMARK    3  A    between atoms: C_13  and  S_14
REMARK    4  A    between atoms: S_14  and  C_15
REMARK    5  A    between atoms: C_15  and  C_16
REMARK    6  A    between atoms: N_18  and  C_19
REMARK    7  A    between atoms: C_21  and  C_27
REMARK    8  A    between atoms: C_23  and  C_25
REMARK                            x       y       z     vdW  Elec       q    Type
REMARK                         _______ _______ _______ _____ _____    ______ ____
ROOT
ATOM      1  C   UNL     1      -1.210   1.582   0.018  0.00  0.00    +0.227 C 
ATOM      2  O   UNL     1      -1.271   2.791  -0.067  0.00  0.00    -0.275 OA
ATOM      3  N   UNL     1      -0.011   0.966   0.007  0.00  0.00    -0.285 N 
ATOM      4  H   UNL     1       0.036  -0.003   0.007  0.00  0.00    +0.155 HD
ENDROOT
BRANCH   3   5
ATOM      5  C   UNL     1       1.166   1.724  -0.008  0.00  0.00    +0.035 A 
ATOM      6  C   UNL     1       1.209   2.920  -0.710  0.00  0.00    +0.038 A 
ATOM      7  C   UNL     1       2.379   3.681  -0.724  0.00  0.00    +0.066 A 
ATOM      8  C   UNL     1       3.508   3.233  -0.040  0.00  0.00    +0.030 A 
ATOM      9  C   UNL     1       3.463   2.028   0.659  0.00  0.00    +0.066 A 
ATOM     10  C   UNL     1       2.287   1.275   0.673  0.00  0.00    +0.038 A 
BRANCH   9  11
ATOM     11  C   UNL     1       4.657   1.549   1.386  0.00  0.00    +0.387 C 
ATOM     12  O   UNL     1       4.616   0.499   1.995  0.00  0.00    -0.241 OA
ATOM     13  O   UNL     1       5.790   2.277   1.372  0.00  0.00    -0.241 OA
ENDBRANCH   9  11
BRANCH   7  14
ATOM     14  C   UNL     1       2.423   4.958  -1.466  0.00  0.00    +0.387 C 
ATOM     15  O   UNL     1       1.438   5.348  -2.062  0.00  0.00    -0.241 OA
ATOM     16  O   UNL     1       3.554   5.689  -1.483  0.00  0.00    -0.241 OA
ENDBRANCH   7  14
ENDBRANCH   3   5
BRANCH   1  17
ATOM     17  C   UNL     1      -2.474   0.770   0.133  0.00  0.00    +0.173 C 
BRANCH  17  18
ATOM     18  S   UNL     1      -3.906   1.877   0.119  0.00  0.00    -0.078 S 
BRANCH  18  28
ATOM     19  N   UNL     1      -6.495   1.146   0.294  0.00  0.00    -0.283 N 
ATOM     20  C   UNL     1      -7.506   0.250   0.400  0.00  0.00    +0.269 A 
ATOM     21  O   UNL     1      -8.668   0.618   0.427  0.00  0.00    -0.266 OA
ATOM     22  C   UNL     1      -7.182  -1.102   0.482  0.00  0.00    +0.102 A 
ATOM     23  C   UNL     1      -5.847  -1.543   0.453  0.00  0.00    +0.086 A 
ATOM     24  C   UNL     1      -5.668  -2.930   0.544  0.00  0.00    +0.036 A 
ATOM     25  C   UNL     1      -6.737  -3.748   0.651  0.00  0.00    +0.048 A 
ATOM     26  S   UNL     1      -8.109  -2.606   0.632  0.00  0.00    -0.090 S 
ATOM     27  N   UNL     1      -4.894  -0.569   0.339  0.00  0.00    -0.222 NA
ATOM     28  C   UNL     1      -5.206   0.696   0.263  0.00  0.00    +0.173 A 
BRANCH  19  29
ATOM     29  C   UNL     1      -6.782   2.580   0.210  0.00  0.00    +0.154 C 
BRANCH  29  31
ATOM     30  C   UNL     1      -8.042   3.583  -1.625  0.00  0.00    +0.005 C 
ATOM     31  C   UNL     1      -6.949   2.975  -1.235  0.00  0.00    -0.013 C 
ENDBRANCH  29  31
ENDBRANCH  19  29
ENDBRANCH  18  28
ENDBRANCH  17  18
ENDBRANCH   1  17
TORSDOF 8
