REMARK  Name = ZINC65059953
REMARK  2 active torsions:
REMARK  status: ('A' for Active; 'I' for Inactive)
REMARK    1  A    between atoms: C_5  and  C_12
REMARK    2  A    between atoms: C_20  and  C_22
REMARK                            x       y       z     vdW  Elec       q    Type
REMARK                         _______ _______ _______ _____ _____    ______ ____
ROOT
ATOM      1  C   UNL     1       5.405   0.959  -1.282  0.00  0.00    +0.242 C 
ATOM      2  O   UNL     1       5.235   1.849  -2.089  0.00  0.00    -0.273 OA
ATOM      3  N   UNL     1       6.354   0.026  -1.498  0.00  0.00    -0.297 N 
ATOM      4  C   UNL     1       6.568  -1.060  -0.532  0.00  0.00    +0.127 C 
ATOM      5  C   UNL     1       6.451  -2.401  -1.269  0.00  0.00    +0.126 C 
ATOM      6  N   UNL     1       7.290  -2.349  -2.474  0.00  0.00    -0.298 N 
ATOM      7  C   UNL     1       7.076  -1.262  -3.440  0.00  0.00    +0.126 C 
ATOM      8  C   UNL     1       7.190   0.075  -2.706  0.00  0.00    +0.127 C 
ATOM      9  C   UNL     1       8.239  -3.281  -2.690  0.00  0.00    +0.219 C 
ATOM     10  O   UNL     1       8.406  -4.174  -1.886  0.00  0.00    -0.275 OA
ENDROOT
BRANCH   1  15
ATOM     11  C   UNL     1      -0.017   1.398   0.010  0.00  0.00    +0.017 A 
ATOM     12  C   UNL     1       1.109   2.143   0.003  0.00  0.00    +0.027 A 
ATOM     13  C   UNL     1       2.385   1.516  -0.013  0.00  0.00    +0.043 A 
ATOM     14  N   UNL     1       3.600   2.009  -0.023  0.00  0.00    -0.370 N 
ATOM     15  C   UNL     1       4.556   0.896  -0.039  0.00  0.00    +0.190 C 
ATOM     16  C   UNL     1       3.724  -0.366  -0.037  0.00  0.00    +0.016 C 
ATOM     17  C   UNL     1       2.433   0.036  -0.021  0.00  0.00    -0.002 A 
ATOM     18  C   UNL     1       1.163  -0.699  -0.012  0.00  0.00    +0.025 A 
ATOM     19  C   UNL     1       0.002  -0.004   0.002  0.00  0.00    +0.019 A 
ATOM     20 BR   UNL     1      -1.637  -0.948   0.013  0.00  0.00    -0.050 Br
ATOM     21  H   UNL     1       3.828   2.952  -0.021  0.00  0.00    +0.161 HD
ENDBRANCH   1  15
BRANCH   9  22
ATOM     22  C   UNL     1       9.091  -3.216  -3.931  0.00  0.00    +0.075 C 
ATOM     23  C   UNL     1       8.210  -3.375  -5.187  0.00  0.00    +0.013 C 
ATOM     24  C   UNL     1       9.080  -4.211  -6.158  0.00  0.00    +0.001 C 
ATOM     25  C   UNL     1       9.785  -5.213  -5.209  0.00  0.00    +0.001 C 
ATOM     26  C   UNL     1      10.093  -4.384  -3.945  0.00  0.00    +0.013 C 
ENDBRANCH   9  22
TORSDOF 2
