REMARK  Name = ZINC09303913
REMARK  1 active torsions:
REMARK  status: ('A' for Active; 'I' for Inactive)
REMARK    1  A    between atoms: N_19  and  C_22
REMARK                            x       y       z     vdW  Elec       q    Type
REMARK                         _______ _______ _______ _____ _____    ______ ____
ROOT
ATOM      1  C   UNL     1      -6.921   3.288  -0.710  0.00  0.00    +0.000 A 
ATOM      2  C   UNL     1      -7.337   4.060  -1.780  0.00  0.00    +0.002 A 
ATOM      3  C   UNL     1      -6.479   4.319  -2.828  0.00  0.00    +0.023 A 
ATOM      4  C   UNL     1      -5.184   3.806  -2.816  0.00  0.00    +0.036 A 
ATOM      5  C   UNL     1      -4.777   3.031  -1.735  0.00  0.00    -0.027 A 
ATOM      6  C   UNL     1      -5.637   2.774  -0.690  0.00  0.00    +0.004 A 
ATOM      7  C   UNL     1      -3.355   2.636  -2.023  0.00  0.00    +0.053 C 
ATOM      8  C   UNL     1      -3.200   1.112  -2.075  0.00  0.00    +0.089 C 
ATOM      9  C   UNL     1      -1.786   0.828  -1.454  0.00  0.00    +0.074 C 
ATOM     10  C   UNL     1      -1.248   2.220  -1.077  0.00  0.00    -0.054 C 
ATOM     11  C   UNL     1      -3.017   2.810   0.365  0.00  0.00    -0.076 C 
ATOM     12  C   UNL     1      -1.801   2.578   1.288  0.00  0.00    -0.020 C 
ATOM     13  C   UNL     1      -0.653   2.172   0.342  0.00  0.00    -0.016 C 
ATOM     14  C   UNL     1      -2.111   0.055  -0.195  0.00  0.00    +0.228 C 
ATOM     15  O   UNL     1      -1.298  -0.347   0.609  0.00  0.00    -0.275 OA
ATOM     16  N   UNL     1      -3.435  -0.115  -0.107  0.00  0.00    -0.210 N 
ATOM     17  C   UNL     1      -4.161   0.469  -1.101  0.00  0.00    +0.229 C 
ATOM     18  O   UNL     1      -5.367   0.447  -1.217  0.00  0.00    -0.275 OA
ATOM     19  C   UNL     1      -3.037   3.267  -3.351  0.00  0.00    +0.212 C 
ATOM     20  O   UNL     1      -1.986   3.198  -3.953  0.00  0.00    -0.277 OA
ATOM     21  N   UNL     1      -4.146   3.925  -3.742  0.00  0.00    -0.286 N 
ATOM     22  H   UNL     1      -4.215   4.424  -4.571  0.00  0.00    +0.155 HD
ATOM     23  N   UNL     1      -2.426   3.052  -0.967  0.00  0.00    +0.395 N 
ATOM     24  H   UNL     1      -2.185   4.044  -1.075  0.00  0.00    -0.079 HD
ENDROOT
BRANCH  16  25
ATOM     25  C   UNL     1      -4.043  -0.800   0.955  0.00  0.00    +0.045 A 
ATOM     26  C   UNL     1      -4.253  -2.170   0.869  0.00  0.00    +0.027 A 
ATOM     27  C   UNL     1      -4.847  -2.845   1.918  0.00  0.00    +0.041 A 
ATOM     28  C   UNL     1      -5.243  -2.154   3.051  0.00  0.00    +0.142 A 
ATOM     29  C   UNL     1      -5.039  -0.786   3.137  0.00  0.00    +0.078 A 
ATOM     30  C   UNL     1      -4.440  -0.109   2.091  0.00  0.00    +0.046 A 
ATOM     31 CL   UNL     1      -5.535   0.077   4.559  0.00  0.00    -0.081 Cl
ATOM     32  F   UNL     1      -5.828  -2.815   4.074  0.00  0.00    -0.204 F 
ENDBRANCH  16  25
TORSDOF 1
