REMARK  Name = ZINC64862800
REMARK  12 active torsions:
REMARK  status: ('A' for Active; 'I' for Inactive)
REMARK    1  A    between atoms: C_1  and  C_2
REMARK    2  A    between atoms: C_2  and  S_3
REMARK    3  A    between atoms: S_3  and  N_6
REMARK    4  A    between atoms: N_6  and  C_7
REMARK    5  A    between atoms: C_10  and  N_14
REMARK    6  A    between atoms: C_12  and  C_13
REMARK    7  A    between atoms: C_15  and  C_17
REMARK    8  A    between atoms: C_17  and  C_18
REMARK    9  A    between atoms: C_18  and  N_19
REMARK   10  A    between atoms: N_19  and  C_20
REMARK   11  A    between atoms: C_22  and  C_27
REMARK   12  A    between atoms: C_24  and  C_26
REMARK                            x       y       z     vdW  Elec       q    Type
REMARK                         _______ _______ _______ _____ _____    ______ ____
ROOT
ATOM      1  N   UNL     1       3.106  -5.349  -5.395  0.00  0.00    -0.285 N 
ATOM      2  C   UNL     1       3.612  -4.761  -6.497  0.00  0.00    +0.219 C 
ATOM      3  O   UNL     1       3.649  -3.551  -6.575  0.00  0.00    -0.275 OA
ATOM      4  H   UNL     1       3.146  -6.314  -5.298  0.00  0.00    +0.155 HD
ENDROOT
BRANCH   1   8
ATOM      5  C   UNL     1       1.370  -3.023  -2.399  0.00  0.00    +0.077 A 
ATOM      6  C   UNL     1       1.267  -2.634  -3.729  0.00  0.00    +0.029 A 
ATOM      7  C   UNL     1       1.841  -3.404  -4.720  0.00  0.00    +0.025 A 
ATOM      8  C   UNL     1       2.523  -4.568  -4.388  0.00  0.00    +0.034 A 
ATOM      9  C   UNL     1       2.626  -4.957  -3.060  0.00  0.00    +0.028 A 
ATOM     10  C   UNL     1       2.057  -4.184  -2.067  0.00  0.00    -0.024 A 
ATOM     11  C   UNL     1       2.175  -4.603  -0.625  0.00  0.00    +0.046 C 
BRANCH   5  12
ATOM     12  N   UNL     1       0.788  -2.243  -1.395  0.00  0.00    -0.102 NA
BRANCH  12  13
ATOM     13  S   UNL     1      -0.031  -0.859  -1.791  0.00  0.00    +0.062 S 
ATOM     14  O   UNL     1      -1.138  -1.301  -2.564  0.00  0.00    -0.154 OA
ATOM     15  O   UNL     1       0.954  -0.005  -2.358  0.00  0.00    -0.154 OA
BRANCH  13  17
ATOM     16  C   UNL     1      -1.381   1.108  -0.453  0.00  0.00    +0.030 C 
ATOM     17  C   UNL     1      -0.603  -0.186  -0.207  0.00  0.00    +0.187 C 
ENDBRANCH  13  17
ENDBRANCH  12  13
ENDBRANCH   5  12
ENDBRANCH   1   8
BRANCH   2  18
ATOM     18  C   UNL     1       4.131  -5.606  -7.631  0.00  0.00    +0.114 C 
BRANCH  18  19
ATOM     19  C   UNL     1       4.645  -4.698  -8.750  0.00  0.00    +0.111 C 
BRANCH  19  20
ATOM     20  N   UNL     1       5.149  -5.520  -9.853  0.00  0.00    -0.343 N 
ATOM     21  H   UNL     1       5.120  -6.488  -9.790  0.00  0.00    +0.146 HD
BRANCH  20  22
ATOM     22  C   UNL     1       5.674  -4.910 -10.995  0.00  0.00    +0.028 A 
ATOM     23  C   UNL     1       5.723  -3.525 -11.085  0.00  0.00    +0.026 A 
ATOM     24  C   UNL     1       6.242  -2.925 -12.215  0.00  0.00    -0.048 A 
ATOM     25  C   UNL     1       6.713  -3.703 -13.258  0.00  0.00    +0.006 A 
ATOM     26  C   UNL     1       6.665  -5.082 -13.172  0.00  0.00    -0.048 A 
ATOM     27  C   UNL     1       6.153  -5.688 -12.042  0.00  0.00    +0.026 A 
ATOM     28  C   UNL     1       7.179  -5.925 -14.310  0.00  0.00    +0.044 C 
ATOM     29  C   UNL     1       6.295  -1.423 -12.313  0.00  0.00    +0.044 C 
ENDBRANCH  20  22
ENDBRANCH  19  20
ENDBRANCH  18  19
ENDBRANCH   2  18
TORSDOF 8
