REMARK  Name = ZINC08600234
REMARK  5 active torsions:
REMARK  status: ('A' for Active; 'I' for Inactive)
REMARK    1  A    between atoms: C_1  and  C_2
REMARK    2  A    between atoms: C_5  and  N_9
REMARK    3  A    between atoms: C_10  and  C_12
REMARK    4  A    between atoms: C_18  and  C_20
REMARK    5  A    between atoms: C_21  and  C_31
REMARK                            x       y       z     vdW  Elec       q    Type
REMARK                         _______ _______ _______ _____ _____    ______ ____
ROOT
ATOM      1  C   UNL     1      -1.309  -5.933   1.450  0.00  0.00    +0.078 C 
ATOM      2  C   UNL     1      -2.051  -6.959   0.590  0.00  0.00    +0.032 C 
ATOM      3  C   UNL     1      -1.236  -8.255   0.532  0.00  0.00    +0.109 C 
ATOM      4  N   UNL     1      -0.962  -8.703   1.904  0.00  0.00    -0.297 N 
ATOM      5  C   UNL     1      -0.333  -7.763   2.842  0.00  0.00    +0.109 C 
ATOM      6  C   UNL     1      -1.158  -6.473   2.874  0.00  0.00    +0.032 C 
ATOM      7  C   UNL     1      -1.282  -9.953   2.295  0.00  0.00    +0.254 C 
ATOM      8  O   UNL     1      -1.734 -10.745   1.489  0.00  0.00    -0.269 OA
ENDROOT
BRANCH   7   9
ATOM      9  C   UNL     1      -1.085 -10.357   3.690  0.00  0.00    +0.080 A 
ATOM     10  C   UNL     1      -1.809 -11.247   4.429  0.00  0.00    -0.017 A 
ATOM     11  C   UNL     1      -1.456 -11.498   5.757  0.00  0.00    +0.076 A 
ATOM     12  C   UNL     1      -2.087 -12.410   6.737  0.00  0.00    +0.260 A 
ATOM     13  O   UNL     1      -3.059 -13.079   6.432  0.00  0.00    -0.267 OA
ATOM     14  N   UNL     1      -1.560 -12.482   7.975  0.00  0.00    -0.313 N 
ATOM     15  H   UNL     1      -1.962 -13.075   8.629  0.00  0.00    +0.170 HD
ATOM     16  C   UNL     1      -0.479 -11.742   8.325  0.00  0.00    +0.200 A 
ATOM     17  N   UNL     1       0.101 -10.928   7.486  0.00  0.00    -0.230 NA
ATOM     18  C   UNL     1      -0.337 -10.782   6.242  0.00  0.00    +0.116 A 
ATOM     19  S   UNL     1       0.165  -9.813   4.842  0.00  0.00    -0.064 S 
ATOM     20  C   UNL     1      -2.987 -11.958   3.813  0.00  0.00    +0.046 C 
ENDBRANCH   7   9
BRANCH   1  22
ATOM     21  N   UNL     1      -2.350  -3.985   0.336  0.00  0.00    -0.285 N 
ATOM     22  C   UNL     1      -2.091  -4.645   1.482  0.00  0.00    +0.220 C 
ATOM     23  O   UNL     1      -2.489  -4.203   2.539  0.00  0.00    -0.275 OA
ATOM     24  H   UNL     1      -2.160  -4.404  -0.518  0.00  0.00    +0.155 HD
BRANCH  21  29
ATOM     25  C   UNL     1      -4.538   1.248   0.508  0.00  0.00    +0.047 C 
ATOM     26  C   UNL     1      -3.957  -0.142   0.462  0.00  0.00    -0.015 A 
ATOM     27  C   UNL     1      -2.932  -0.491   1.322  0.00  0.00    +0.008 A 
ATOM     28  C   UNL     1      -2.398  -1.764   1.282  0.00  0.00    +0.024 A 
ATOM     29  C   UNL     1      -2.890  -2.695   0.378  0.00  0.00    +0.036 A 
ATOM     30  C   UNL     1      -3.920  -2.344  -0.485  0.00  0.00    +0.062 A 
ATOM     31  C   UNL     1      -4.455  -1.070  -0.438  0.00  0.00    +0.128 A 
ATOM     32  F   UNL     1      -5.460  -0.728  -1.273  0.00  0.00    -0.205 F 
ENDBRANCH  21  29
ENDBRANCH   1  22
TORSDOF 3
