REMARK  Name = ZINC35000592
REMARK  16 active torsions:
REMARK  status: ('A' for Active; 'I' for Inactive)
REMARK    1  A    between atoms: C_1  and  C_2
REMARK    2  A    between atoms: C_2  and  O_3
REMARK    3  A    between atoms: O_3  and  C_4
REMARK    4  A    between atoms: C_4  and  C_6
REMARK    5  A    between atoms: C_6  and  N_7
REMARK    6  A    between atoms: N_10  and  C_11
REMARK    7  A    between atoms: N_10  and  C_24
REMARK    8  A    between atoms: C_11  and  C_12
REMARK    9  A    between atoms: C_12  and  C_13
REMARK   10  A    between atoms: C_13  and  C_14
REMARK   11  A    between atoms: C_14  and  C_15
REMARK   12  A    between atoms: C_15  and  C_16
REMARK   13  A    between atoms: C_16  and  N_17
REMARK   14  A    between atoms: C_24  and  C_25
REMARK   15  A    between atoms: C_30  and  O_31
REMARK   16  A    between atoms: O_31  and  C_32
REMARK                            x       y       z     vdW  Elec       q    Type
REMARK                         _______ _______ _______ _____ _____    ______ ____
ROOT
ATOM      1  N   UNL     1       1.450  -3.817  -2.491  0.00  0.00    -0.289 N 
ATOM      2  C   UNL     1       2.016  -4.538  -3.479  0.00  0.00    +0.303 C 
ATOM      3  O   UNL     1       2.541  -3.974  -4.420  0.00  0.00    -0.253 OA
ATOM      4  N   UNL     1       1.999  -5.885  -3.425  0.00  0.00    -0.281 N 
ATOM      5  H   UNL     1       1.031  -4.267  -1.741  0.00  0.00    +0.151 HD
ENDROOT
BRANCH   1   6
ATOM      6  C   UNL     1       1.468  -2.353  -2.550  0.00  0.00    +0.226 C 
BRANCH   6   7
ATOM      7  C   UNL     1       0.775  -1.794  -1.334  0.00  0.00    +0.324 C 
ATOM      8  O   UNL     1       0.314  -2.540  -0.504  0.00  0.00    -0.249 OA
BRANCH   7   9
ATOM      9  O   UNL     1       0.671  -0.465  -1.174  0.00  0.00    -0.464 OA
BRANCH   9  11
ATOM     10  C   UNL     1      -0.019   1.526   0.010  0.00  0.00    +0.048 C 
ATOM     11  C   UNL     1       0.002  -0.004   0.002  0.00  0.00    +0.229 C 
ENDBRANCH   9  11
ENDBRANCH   7   9
ENDBRANCH   6   7
ENDBRANCH   1   6
BRANCH   4  12
ATOM     12  C   UNL     1       2.614  -6.668  -4.500  0.00  0.00    +0.109 C 
BRANCH  12  13
ATOM     13  C   UNL     1       4.084  -6.928  -4.164  0.00  0.00    +0.019 C 
BRANCH  13  14
ATOM     14  C   UNL     1       4.726  -7.747  -5.286  0.00  0.00    +0.002 C 
BRANCH  14  15
ATOM     15  C   UNL     1       6.197  -8.006  -4.950  0.00  0.00    +0.002 C 
BRANCH  15  16
ATOM     16  C   UNL     1       6.839  -8.825  -6.072  0.00  0.00    +0.019 C 
BRANCH  16  17
ATOM     17  C   UNL     1       8.309  -9.085  -5.737  0.00  0.00    +0.103 C 
BRANCH  17  18
ATOM     18  N   UNL     1       8.924  -9.868  -6.811  0.00  0.00    -0.331 N 
ATOM     19  C   UNL     1      10.263 -10.229  -6.729  0.00  0.00    +0.096 A 
ATOM     20  C   UNL     1      11.013  -9.848  -5.621  0.00  0.00    +0.041 A 
ATOM     21  C   UNL     1      12.345 -10.213  -5.552  0.00  0.00    +0.005 A 
ATOM     22  C   UNL     1      12.885 -10.951  -6.597  0.00  0.00    +0.018 A 
ATOM     23  C   UNL     1      12.083 -11.296  -7.666  0.00  0.00    +0.084 A 
ATOM     24  N   UNL     1      10.813 -10.938  -7.703  0.00  0.00    -0.350 N 
ATOM     25  H   UNL     1       8.396 -10.136  -7.580  0.00  0.00    +0.147 HD
ATOM     26  H   UNL     1      10.271 -11.196  -8.464  0.00  0.00    +0.166 HD
ENDBRANCH  17  18
ENDBRANCH  16  17
ENDBRANCH  15  16
ENDBRANCH  14  15
ENDBRANCH  13  14
ENDBRANCH  12  13
ENDBRANCH   4  12
BRANCH   4  27
ATOM     27  C   UNL     1       1.367  -6.565  -2.292  0.00  0.00    +0.148 C 
BRANCH  27  28
ATOM     28  C   UNL     1      -0.087  -6.811  -2.603  0.00  0.00    +0.012 A 
ATOM     29  C   UNL     1      -1.056  -5.967  -2.093  0.00  0.00    +0.009 A 
ATOM     30  C   UNL     1      -2.390  -6.193  -2.377  0.00  0.00    +0.001 A 
ATOM     31  C   UNL     1      -2.759  -7.262  -3.172  0.00  0.00    +0.004 A 
ATOM     32  C   UNL     1      -1.795  -8.108  -3.684  0.00  0.00    +0.046 A 
ATOM     33  C   UNL     1      -0.455  -7.881  -3.405  0.00  0.00    +0.125 A 
BRANCH  33  34
ATOM     34  O   UNL     1       0.496  -8.709  -3.913  0.00  0.00    -0.495 OA
ATOM     35  C   UNL     1       0.045  -9.790  -4.731  0.00  0.00    +0.277 C 
ENDBRANCH  33  34
ENDBRANCH  27  28
ENDBRANCH   4  27
TORSDOF 14
