REMARK  Name = ZINC00674185
REMARK  5 active torsions:
REMARK  status: ('A' for Active; 'I' for Inactive)
REMARK    1  A    between atoms: C_1  and  C_2
REMARK    2  A    between atoms: C_9  and  C_21
REMARK    3  A    between atoms: C_15  and  C_19
REMARK    4  A    between atoms: C_15  and  C_20
REMARK    5  A    between atoms: C_24  and  N_27
REMARK                            x       y       z     vdW  Elec       q    Type
REMARK                         _______ _______ _______ _____ _____    ______ ____
ROOT
ATOM      1  C   UNL     1       3.002   2.575  -0.244  0.00  0.00    +0.044 C 
ATOM      2  C   UNL     1       1.808   1.655  -0.254  0.00  0.00    -0.049 A 
ATOM      3  C   UNL     1       0.535   2.184  -0.360  0.00  0.00    +0.005 A 
ATOM      4  C   UNL     1      -0.570   1.350  -0.350  0.00  0.00    +0.025 A 
ATOM      5  C   UNL     1      -0.387  -0.018  -0.248  0.00  0.00    +0.052 A 
ATOM      6  C   UNL     1       0.890  -0.552  -0.172  0.00  0.00    +0.050 A 
ATOM      7  C   UNL     1       1.993   0.287  -0.155  0.00  0.00    +0.028 A 
ATOM      8  N   UNL     1       1.033  -1.937  -0.150  0.00  0.00    -0.331 N 
ATOM      9  C   UNL     1       0.652  -2.746  -1.288  0.00  0.00    +0.136 C 
ATOM     10  C   UNL     1      -0.824  -2.718  -1.607  0.00  0.00    +0.036 C 
ATOM     11  C   UNL     1      -1.726  -1.869  -1.088  0.00  0.00    +0.017 C 
ATOM     12  N   UNL     1      -1.453  -0.907  -0.171  0.00  0.00    -0.316 N 
ATOM     13  C   UNL     1      -3.179  -1.930  -1.531  0.00  0.00    +0.058 C 
ATOM     14  C   UNL     1      -3.566  -3.374  -1.846  0.00  0.00    -0.023 C 
ATOM     15  C   UNL     1      -2.651  -3.866  -2.974  0.00  0.00    +0.086 C 
ATOM     16  C   UNL     1      -1.226  -3.703  -2.540  0.00  0.00    +0.163 C 
ATOM     17  O   UNL     1      -0.383  -4.444  -3.007  0.00  0.00    -0.292 OA
ATOM     18  C   UNL     1      -3.372  -4.245  -0.603  0.00  0.00    +0.011 C 
ATOM     19  C   UNL     1      -5.026  -3.433  -2.300  0.00  0.00    +0.011 C 
ATOM     20  H   UNL     1       1.394  -2.367   0.641  0.00  0.00    +0.147 HD
ATOM     21  H   UNL     1      -2.045  -0.835   0.595  0.00  0.00    +0.152 HD
ENDROOT
BRANCH   9  22
ATOM     22  C   UNL     1       1.411  -2.260  -2.496  0.00  0.00    -0.023 A 
ATOM     23  C   UNL     1       1.237  -0.965  -2.946  0.00  0.00    +0.008 A 
ATOM     24  C   UNL     1       1.938  -0.517  -4.051  0.00  0.00    +0.033 A 
ATOM     25  C   UNL     1       2.804  -1.368  -4.712  0.00  0.00    +0.126 A 
ATOM     26  C   UNL     1       2.974  -2.665  -4.264  0.00  0.00    +0.033 A 
ATOM     27  C   UNL     1       2.278  -3.111  -3.156  0.00  0.00    +0.008 A 
BRANCH  25  28
ATOM     28  N   UNL     1       3.549  -0.891  -5.898  0.00  0.00    +0.056 N 
ATOM     29  O   UNL     1       4.312  -1.641  -6.481  0.00  0.00    -0.126 OA
ATOM     30  O   UNL     1       3.399   0.252  -6.292  0.00  0.00    -0.126 OA
ENDBRANCH  25  28
ENDBRANCH   9  22
TORSDOF 2
