REMARK  Name = ZINC16556889
REMARK  11 active torsions:
REMARK  status: ('A' for Active; 'I' for Inactive)
REMARK    1  A    between atoms: C_1  and  C_2
REMARK    2  A    between atoms: C_2  and  N_3
REMARK    3  A    between atoms: N_3  and  C_4
REMARK    4  A    between atoms: N_3  and  C_18
REMARK    5  A    between atoms: C_4  and  C_5
REMARK    6  A    between atoms: N_7  and  C_8
REMARK    7  A    between atoms: C_11  and  N_14
REMARK    8  A    between atoms: C_15  and  C_17
REMARK    9  A    between atoms: C_18  and  C_20
REMARK   10  A    between atoms: C_18  and  C_21
REMARK   11  A    between atoms: N_23  and  C_24
REMARK                            x       y       z     vdW  Elec       q    Type
REMARK                         _______ _______ _______ _____ _____    ______ ____
ROOT
ATOM      1  N   UNL     1      -0.683  -0.538   0.238  0.00  0.00    +0.393 N 
ATOM      2  H   UNL     1      -1.284   0.053   0.794  0.00  0.00    -0.080 HD
ENDROOT
BRANCH   1   4
ATOM      3  C   UNL     1       0.768   1.416  -0.030  0.00  0.00    -0.017 C 
ATOM      4  C   UNL     1       0.704  -0.066   0.345  0.00  0.00    -0.081 C 
ENDBRANCH   1   4
BRANCH   1   5
ATOM      5  C   UNL     1      -1.111  -0.487  -1.166  0.00  0.00    +0.017 C 
ATOM      6  C   UNL     1      -2.554  -0.985  -1.278  0.00  0.00    -0.004 C 
BRANCH   5   7
ATOM      7  C   UNL     1      -0.211  -1.364  -1.998  0.00  0.00    +0.203 C 
ATOM      8  O   UNL     1       0.627  -2.055  -1.460  0.00  0.00    -0.277 OA
ATOM      9  N   UNL     1      -0.338  -1.379  -3.340  0.00  0.00    -0.287 N 
ATOM     10  H   UNL     1      -0.962  -0.778  -3.775  0.00  0.00    +0.155 HD
BRANCH   9  11
ATOM     11  C   UNL     1       0.430  -2.263  -4.104  0.00  0.00    +0.034 A 
ATOM     12  C   UNL     1       1.738  -2.566  -3.707  0.00  0.00    +0.024 A 
ATOM     13  C   UNL     1       2.508  -3.421  -4.431  0.00  0.00    +0.010 A 
ATOM     14  C   UNL     1       1.990  -4.015  -5.596  0.00  0.00    -0.018 A 
ATOM     15  C   UNL     1       2.762  -4.904  -6.364  0.00  0.00    +0.008 A 
ATOM     16  C   UNL     1       2.232  -5.462  -7.486  0.00  0.00    +0.001 A 
ATOM     17  C   UNL     1       0.930  -5.166  -7.888  0.00  0.00    +0.001 A 
ATOM     18  C   UNL     1       0.153  -4.310  -7.170  0.00  0.00    +0.008 A 
ATOM     19  C   UNL     1       0.667  -3.714  -6.005  0.00  0.00    -0.016 A 
ATOM     20  C   UNL     1      -0.109  -2.831  -5.237  0.00  0.00    +0.031 A 
ENDBRANCH   9  11
ENDBRANCH   5   7
ENDBRANCH   1   5
BRANCH   1  21
ATOM     21  C   UNL     1      -0.769  -1.921   0.726  0.00  0.00    +0.020 C 
BRANCH  21  22
ATOM     22  C   UNL     1      -0.504  -1.948   2.209  0.00  0.00    +0.201 C 
ATOM     23  O   UNL     1      -0.267  -0.916   2.802  0.00  0.00    -0.278 OA
ATOM     24  N   UNL     1      -0.530  -3.118   2.877  0.00  0.00    -0.287 N 
ATOM     25  H   UNL     1      -0.648  -3.950   2.393  0.00  0.00    +0.155 HD
BRANCH  24  26
ATOM     26  C   UNL     1      -0.386  -3.132   4.271  0.00  0.00    +0.033 A 
ATOM     27  C   UNL     1      -0.912  -2.098   5.034  0.00  0.00    +0.025 A 
ATOM     28  C   UNL     1      -0.770  -2.112   6.407  0.00  0.00    +0.025 A 
ATOM     29  C   UNL     1      -0.102  -3.160   7.025  0.00  0.00    +0.033 A 
ATOM     30  C   UNL     1       0.423  -4.195   6.262  0.00  0.00    +0.025 A 
ATOM     31  C   UNL     1       0.277  -4.184   4.890  0.00  0.00    +0.025 A 
BRANCH  29  32
ATOM     32  N   UNL     1       0.042  -3.175   8.418  0.00  0.00    -0.286 N 
ATOM     33  C   UNL     1       1.157  -3.686   8.975  0.00  0.00    +0.214 C 
ATOM     34  O   UNL     1       2.074  -4.053   8.271  0.00  0.00    -0.276 OA
ATOM     35  C   UNL     1       1.266  -3.804  10.474  0.00  0.00    +0.109 C 
ATOM     36  H   UNL     1      -0.661  -2.816   8.982  0.00  0.00    +0.155 HD
ENDBRANCH  29  32
ENDBRANCH  24  26
ENDBRANCH  21  22
ENDBRANCH   1  21
TORSDOF 8
