REMARK  Name = ZINC58427957
REMARK  10 active torsions:
REMARK  status: ('A' for Active; 'I' for Inactive)
REMARK    1  A    between atoms: C_1  and  C_2
REMARK    2  A    between atoms: C_3  and  C_11
REMARK    3  A    between atoms: C_4  and  N_8
REMARK    4  A    between atoms: N_5  and  C_7
REMARK    5  A    between atoms: N_8  and  C_9
REMARK    6  A    between atoms: N_8  and  C_10
REMARK    7  A    between atoms: C_11  and  N_12
REMARK    8  A    between atoms: N_12  and  C_13
REMARK    9  A    between atoms: C_13  and  C_14
REMARK   10  A    between atoms: C_19  and  N_20
REMARK                            x       y       z     vdW  Elec       q    Type
REMARK                         _______ _______ _______ _____ _____    ______ ____
ROOT
ATOM      1  N   UNL     1       3.225  -0.749  -2.112  0.00  0.00    -0.308 NA
ATOM      2  H   UNL     1       3.607  -0.555  -1.198  0.00  0.00    +0.123 HD
ENDROOT
BRANCH   1   3
ATOM      3  C   UNL     1       1.817  -0.340  -2.191  0.00  0.00    +0.122 C 
BRANCH   3   6
ATOM      4  C   UNL     1       1.222   1.101   0.567  0.00  0.00    +0.065 C 
ATOM      5  C   UNL     1       0.794  -0.293   0.188  0.00  0.00    +0.037 A 
ATOM      6  C   UNL     1       1.057  -0.927  -1.030  0.00  0.00    +0.026 A 
ATOM      7  C   UNL     1       0.504  -2.171  -0.979  0.00  0.00    +0.121 A 
ATOM      8  N   UNL     1      -0.084  -2.307   0.231  0.00  0.00    -0.276 N 
ATOM      9  N   UNL     1       0.117  -1.119   0.944  0.00  0.00    -0.300 N 
ATOM     10  C   UNL     1      -0.801  -3.491   0.712  0.00  0.00    +0.172 C 
ATOM     11  H   UNL     1      -0.195  -0.937   1.844  0.00  0.00    +0.187 HD
BRANCH   7  12
ATOM     12  N   UNL     1       0.538  -3.127  -1.990  0.00  0.00    -0.321 N 
ATOM     13  C   UNL     1       1.159  -2.810  -3.279  0.00  0.00    +0.130 C 
ATOM     14  C   UNL     1      -0.046  -4.452  -1.765  0.00  0.00    +0.130 C 
ENDBRANCH   7  12
ENDBRANCH   3   6
ENDBRANCH   1   3
BRANCH   1  15
ATOM     15  C   UNL     1       4.021  -0.102  -3.163  0.00  0.00    +0.120 C 
BRANCH  15  16
ATOM     16  C   UNL     1       5.427  -0.643  -3.134  0.00  0.00    +0.004 A 
ATOM     17  C   UNL     1       5.813  -1.641  -4.012  0.00  0.00    +0.009 A 
ATOM     18  C   UNL     1       7.118  -2.110  -3.950  0.00  0.00    +0.018 A 
ATOM     19  C   UNL     1       7.986  -1.572  -3.021  0.00  0.00    +0.084 A 
ATOM     20  N   UNL     1       7.591  -0.622  -2.195  0.00  0.00    -0.349 N 
ATOM     21  C   UNL     1       6.356  -0.143  -2.228  0.00  0.00    +0.103 A 
ATOM     22  H   UNL     1       8.221  -0.262  -1.552  0.00  0.00    +0.167 HD
BRANCH  21  23
ATOM     23  N   UNL     1       5.984   0.863  -1.344  0.00  0.00    -0.316 N 
ATOM     24  C   UNL     1       5.552   0.537   0.022  0.00  0.00    +0.106 C 
ATOM     25  C   UNL     1       6.394   1.348   1.012  0.00  0.00    +0.019 C 
ATOM     26  C   UNL     1       6.296   2.834   0.660  0.00  0.00    +0.003 C 
ATOM     27  C   UNL     1       6.851   3.064  -0.748  0.00  0.00    +0.019 C 
ATOM     28  C   UNL     1       6.021   2.272  -1.756  0.00  0.00    +0.106 C 
ENDBRANCH  21  23
ENDBRANCH  15  16
ENDBRANCH   1  15
TORSDOF 6
