REMARK  Name = ZINC09882440
REMARK  7 active torsions:
REMARK  status: ('A' for Active; 'I' for Inactive)
REMARK    1  A    between atoms: C_3  and  N_11
REMARK    2  A    between atoms: C_5  and  S_7
REMARK    3  A    between atoms: S_7  and  N_10
REMARK    4  A    between atoms: C_12  and  C_14
REMARK    5  A    between atoms: C_14  and  N_50
REMARK    6  A    between atoms: N_17  and  C_20
REMARK    7  A    between atoms: C_23  and  N_26
REMARK                            x       y       z     vdW  Elec       q    Type
REMARK                         _______ _______ _______ _____ _____    ______ ____
ROOT
ATOM      1  C   UNL     1       2.901  -0.487   2.355  0.00  0.00    +0.019 C 
ENDROOT
BRANCH   1   7
ATOM      2  C   UNL     1       0.675  -0.288   1.424  0.00  0.00    -0.059 C 
ATOM      3  C   UNL     1      -0.116   0.202   0.209  0.00  0.00    +0.086 C 
ATOM      4  N   UNL     1       0.078   1.650   0.053  0.00  0.00    -0.333 N 
ATOM      5  C   UNL     1       1.500   1.972  -0.129  0.00  0.00    +0.086 C 
ATOM      6  C   UNL     1       2.291   1.483   1.086  0.00  0.00    -0.059 C 
ATOM      7  N   UNL     1       2.105   0.022   1.218  0.00  0.00    +0.387 N 
ATOM      8  H   UNL     1       2.425  -0.434   0.356  0.00  0.00    -0.081 HD
BRANCH   4   9
ATOM      9  C   UNL     1      -0.687   2.146  -1.006  0.00  0.00    +0.030 A 
ATOM     10  C   UNL     1      -1.486   1.288  -1.750  0.00  0.00    +0.025 A 
ATOM     11  C   UNL     1      -2.245   1.782  -2.792  0.00  0.00    +0.034 A 
ATOM     12  C   UNL     1      -2.202   3.129  -3.102  0.00  0.00    +0.126 A 
ATOM     13  C   UNL     1      -1.403   3.986  -2.367  0.00  0.00    +0.034 A 
ATOM     14  C   UNL     1      -0.646   3.499  -1.320  0.00  0.00    +0.025 A 
BRANCH  12  15
ATOM     15  N   UNL     1      -3.013   3.655  -4.223  0.00  0.00    +0.056 N 
ATOM     16  O   UNL     1      -2.976   4.841  -4.497  0.00  0.00    -0.126 OA
ATOM     17  O   UNL     1      -3.717   2.901  -4.871  0.00  0.00    -0.126 OA
ENDBRANCH  12  15
ENDBRANCH   4   9
ENDBRANCH   1   7
BRANCH   1  19
ATOM     18  N   UNL     1       3.447  -2.695   3.329  0.00  0.00    -0.287 N 
ATOM     19  C   UNL     1       2.883  -1.994   2.326  0.00  0.00    +0.201 C 
ATOM     20  O   UNL     1       2.360  -2.576   1.399  0.00  0.00    -0.278 OA
ATOM     21  H   UNL     1       3.806  -2.232   4.102  0.00  0.00    +0.155 HD
BRANCH  18  24
ATOM     22  C   UNL     1       2.555  -6.185   2.590  0.00  0.00    +0.004 A 
ATOM     23  C   UNL     1       2.483  -4.807   2.665  0.00  0.00    +0.023 A 
ATOM     24  C   UNL     1       3.515  -4.091   3.256  0.00  0.00    +0.035 A 
ATOM     25  C   UNL     1       4.612  -4.762   3.779  0.00  0.00    +0.051 A 
ATOM     26  C   UNL     1       4.676  -6.140   3.705  0.00  0.00    +0.107 A 
ATOM     27  C   UNL     1       3.650  -6.850   3.111  0.00  0.00    +0.028 A 
BRANCH  26  28
ATOM     28  S   UNL     1       6.068  -6.993   4.369  0.00  0.00    +0.056 S 
ATOM     29  O   UNL     1       6.144  -8.238   3.688  0.00  0.00    -0.153 OA
ATOM     30  O   UNL     1       7.144  -6.065   4.383  0.00  0.00    -0.153 OA
BRANCH  28  31
ATOM     31  N   UNL     1       5.721  -7.339   5.951  0.00  0.00    -0.204 NA
ATOM     32  H   UNL     1       6.099  -8.129   6.369  0.00  0.00    +0.144 HD
ATOM     33  H   UNL     1       5.139  -6.753   6.459  0.00  0.00    +0.144 HD
ENDBRANCH  28  31
ENDBRANCH  26  28
ENDBRANCH  18  24
ENDBRANCH   1  19
TORSDOF 7
