REMARK  Name = ZINC36276398
REMARK  8 active torsions:
REMARK  status: ('A' for Active; 'I' for Inactive)
REMARK    1  A    between atoms: C_1  and  C_2
REMARK    2  A    between atoms: C_5  and  N_9
REMARK    3  A    between atoms: C_7  and  C_8
REMARK    4  A    between atoms: C_10  and  C_12
REMARK    5  A    between atoms: C_12  and  O_13
REMARK    6  A    between atoms: O_13  and  C_14
REMARK    7  A    between atoms: C_21  and  C_23
REMARK    8  A    between atoms: C_26  and  N_29
REMARK                            x       y       z     vdW  Elec       q    Type
REMARK                         _______ _______ _______ _____ _____    ______ ____
ROOT
ATOM      1  C   UNL     1      -0.322  -8.158  -2.711  0.00  0.00    +0.162 A 
ATOM      2  C   UNL     1      -0.327  -8.998  -1.635  0.00  0.00    +0.051 A 
ATOM      3  C   UNL     1      -0.423 -10.384  -1.837  0.00  0.00    +0.022 A 
ATOM      4  C   UNL     1      -0.510 -10.887  -3.086  0.00  0.00    +0.093 A 
ATOM      5  N   UNL     1      -0.506 -10.060  -4.174  0.00  0.00    -0.305 N 
ATOM      6  C   UNL     1      -0.420  -8.702  -4.013  0.00  0.00    +0.159 A 
ATOM      7  N   UNL     1      -0.444  -8.138  -5.211  0.00  0.00    -0.337 N 
ATOM      8  C   UNL     1      -0.549  -9.096  -6.145  0.00  0.00    +0.065 A 
ATOM      9  C   UNL     1      -0.580 -10.304  -5.516  0.00  0.00    +0.119 A 
ATOM     10  H   UNL     1      -0.393  -7.185  -5.386  0.00  0.00    +0.167 HD
ENDROOT
BRANCH   8  11
ATOM     11  C   UNL     1      -0.609  -8.877  -7.612  0.00  0.00    -0.000 A 
ATOM     12  C   UNL     1      -0.548  -7.583  -8.128  0.00  0.00    +0.012 A 
ATOM     13  C   UNL     1      -0.603  -7.382  -9.491  0.00  0.00    +0.023 A 
ATOM     14  C   UNL     1      -0.718  -8.469 -10.350  0.00  0.00    +0.025 A 
ATOM     15  C   UNL     1      -0.778  -9.759  -9.838  0.00  0.00    +0.023 A 
ATOM     16  C   UNL     1      -0.719  -9.965  -8.476  0.00  0.00    +0.012 A 
BRANCH  14  17
ATOM     17  N   UNL     1      -0.774  -8.263 -11.730  0.00  0.00    -0.358 N 
ATOM     18  H   UNL     1      -0.733  -7.362 -12.088  0.00  0.00    +0.142 HD
ATOM     19  H   UNL     1      -0.854  -9.020 -12.331  0.00  0.00    +0.142 HD
ENDBRANCH  14  17
ENDBRANCH   8  11
BRANCH   1  20
ATOM     20  O   UNL     1      -0.230  -6.814  -2.533  0.00  0.00    -0.479 OA
BRANCH  20  21
ATOM     21  C   UNL     1      -0.134  -6.343  -1.187  0.00  0.00    +0.325 C 
BRANCH  21  23
ATOM     22  N   UNL     1       0.059  -4.170  -0.021  0.00  0.00    -0.283 N 
ATOM     23  C   UNL     1      -0.040  -4.839  -1.187  0.00  0.00    +0.255 C 
ATOM     24  O   UNL     1      -0.054  -4.230  -2.236  0.00  0.00    -0.272 OA
ATOM     25  H   UNL     1       0.147  -4.658   0.812  0.00  0.00    +0.155 HD
BRANCH  22  30
ATOM     26  C   UNL     1      -0.041   1.502   0.014  0.00  0.00    +0.044 C 
ATOM     27  C   UNL     1      -0.015  -0.004   0.004  0.00  0.00    -0.047 A 
ATOM     28  C   UNL     1      -0.752  -0.702  -0.935  0.00  0.00    +0.005 A 
ATOM     29  C   UNL     1      -0.730  -2.082  -0.946  0.00  0.00    +0.023 A 
ATOM     30  C   UNL     1       0.034  -2.771  -0.013  0.00  0.00    +0.034 A 
ATOM     31  C   UNL     1       0.773  -2.068   0.929  0.00  0.00    +0.027 A 
ATOM     32  C   UNL     1       0.751  -0.686   0.932  0.00  0.00    -0.046 A 
ATOM     33  C   UNL     1       1.557   0.078   1.950  0.00  0.00    +0.044 C 
ENDBRANCH  22  30
ENDBRANCH  21  23
ENDBRANCH  20  21
ENDBRANCH   1  20
TORSDOF 6
