REMARK  Name = ZINC40795092
REMARK  7 active torsions:
REMARK  status: ('A' for Active; 'I' for Inactive)
REMARK    1  A    between atoms: C_4  and  C_7
REMARK    2  A    between atoms: C_7  and  C_8
REMARK    3  A    between atoms: N_10  and  N_11
REMARK    4  A    between atoms: C_13  and  N_30
REMARK    5  A    between atoms: C_14  and  N_18
REMARK    6  A    between atoms: N_18  and  C_19
REMARK    7  A    between atoms: C_23  and  C_25
REMARK                            x       y       z     vdW  Elec       q    Type
REMARK                         _______ _______ _______ _____ _____    ______ ____
ROOT
ATOM      1  N   UNL     1       5.997  -1.469   2.910  0.00  0.00    -0.247 N 
ATOM      2  C   UNL     1       7.069  -2.319   3.155  0.00  0.00    +0.161 A 
ATOM      3  C   UNL     1       7.498  -2.562   4.461  0.00  0.00    +0.107 A 
ATOM      4  C   UNL     1       8.579  -3.424   4.651  0.00  0.00    +0.149 A 
ATOM      5  N   UNL     1       9.155  -3.979   3.587  0.00  0.00    -0.219 NA
ATOM      6  C   UNL     1       8.719  -3.724   2.370  0.00  0.00    +0.225 A 
ATOM      7  N   UNL     1       7.699  -2.920   2.148  0.00  0.00    -0.217 NA
ATOM      8  H   UNL     1       5.544  -1.036   3.650  0.00  0.00    +0.172 HD
ENDROOT
BRANCH   1  11
ATOM      9  C   UNL     1       4.533  -0.414   1.358  0.00  0.00    +0.233 C 
ATOM     10  O   UNL     1       3.966   0.128   2.283  0.00  0.00    -0.274 OA
ATOM     11  N   UNL     1       5.572  -1.238   1.595  0.00  0.00    -0.235 N 
ATOM     12  H   UNL     1       6.026  -1.672   0.856  0.00  0.00    +0.173 HD
BRANCH   9  13
ATOM     13  C   UNL     1       4.076  -0.166  -0.056  0.00  0.00    +0.132 C 
BRANCH  13  17
ATOM     14  C   UNL     1       0.763   2.531  -0.031  0.00  0.00    +0.000 A 
ATOM     15  C   UNL     1       2.052   3.021  -0.115  0.00  0.00    +0.000 A 
ATOM     16  C   UNL     1       3.124   2.149  -0.123  0.00  0.00    +0.004 A 
ATOM     17  C   UNL     1       2.907   0.786  -0.046  0.00  0.00    -0.039 A 
ATOM     18  C   UNL     1       1.617   0.295   0.038  0.00  0.00    +0.004 A 
ATOM     19  C   UNL     1       0.545   1.168   0.045  0.00  0.00    +0.000 A 
ENDBRANCH  13  17
ENDBRANCH   9  13
ENDBRANCH   1  11
BRANCH   3  20
ATOM     20  N   UNL     1       6.860  -1.954   5.555  0.00  0.00    -0.353 N 
ATOM     21  H   UNL     1       6.110  -1.356   5.408  0.00  0.00    +0.143 HD
ATOM     22  H   UNL     1       7.169  -2.131   6.457  0.00  0.00    +0.143 HD
ENDBRANCH   3  20
BRANCH   4  23
ATOM     23  N   UNL     1       9.047  -3.699   5.931  0.00  0.00    -0.298 N 
ATOM     24  H   UNL     1       8.571  -3.359   6.705  0.00  0.00    +0.154 HD
BRANCH  23  25
ATOM     25  C   UNL     1      10.203  -4.467   6.103  0.00  0.00    +0.033 A 
ATOM     26  C   UNL     1      11.248  -4.364   5.194  0.00  0.00    +0.025 A 
ATOM     27  C   UNL     1      12.388  -5.123   5.366  0.00  0.00    +0.022 A 
ATOM     28  C   UNL     1      12.490  -5.987   6.443  0.00  0.00    +0.053 A 
ATOM     29  C   UNL     1      11.451  -6.091   7.350  0.00  0.00    +0.075 A 
ATOM     30  C   UNL     1      10.310  -5.329   7.186  0.00  0.00    +0.037 A 
ATOM     31 CL   UNL     1      13.925  -6.940   6.657  0.00  0.00    -0.083 Cl
BRANCH  29  32
ATOM     32  C   UNL     1      11.565  -7.032   8.522  0.00  0.00    +0.419 C 
ATOM     33  F   UNL     1      10.399  -6.964   9.291  0.00  0.00    -0.166 F 
ATOM     34  F   UNL     1      11.739  -8.339   8.054  0.00  0.00    -0.166 F 
ATOM     35  F   UNL     1      12.664  -6.668   9.307  0.00  0.00    -0.166 F 
ENDBRANCH  29  32
ENDBRANCH  23  25
ENDBRANCH   4  23
TORSDOF 7
