REMARK  Name = ZINC26799184
REMARK  9 active torsions:
REMARK  status: ('A' for Active; 'I' for Inactive)
REMARK    1  A    between atoms: C_1  and  C_2
REMARK    2  A    between atoms: C_2  and  C_4
REMARK    3  A    between atoms: C_2  and  N_26
REMARK    4  A    between atoms: N_6  and  C_7
REMARK    5  A    between atoms: C_10  and  O_24
REMARK    6  A    between atoms: C_11  and  S_13
REMARK    7  A    between atoms: S_13  and  N_16
REMARK    8  A    between atoms: N_16  and  C_17
REMARK    9  A    between atoms: O_24  and  C_25
REMARK                            x       y       z     vdW  Elec       q    Type
REMARK                         _______ _______ _______ _____ _____    ______ ____
ROOT
ATOM      1  C   UNL     1       1.904   1.607  -0.001  0.00  0.00    +0.036 A 
ATOM      2  C   UNL     1       0.625   2.144  -0.069  0.00  0.00    +0.027 A 
ATOM      3  C   UNL     1      -0.472   1.308  -0.121  0.00  0.00    +0.049 A 
ATOM      4  C   UNL     1      -0.297  -0.068  -0.107  0.00  0.00    +0.147 A 
ATOM      5  C   UNL     1       0.980  -0.605  -0.041  0.00  0.00    +0.152 A 
ATOM      6  C   UNL     1       2.079   0.230   0.013  0.00  0.00    +0.055 A 
ENDROOT
BRANCH   1   9
ATOM      7  C   UNL     1       3.013   3.620  -0.625  0.00  0.00    +0.237 C 
ATOM      8  O   UNL     1       2.012   3.975  -1.211  0.00  0.00    -0.273 OA
ATOM      9  N   UNL     1       3.019   2.455   0.053  0.00  0.00    -0.284 N 
ATOM     10  H   UNL     1       3.898   2.171   0.650  0.00  0.00    +0.155 HD
BRANCH   7  12
ATOM     11  C   UNL     1       5.403   3.693  -1.283  0.00  0.00    +0.038 C 
ATOM     12  C   UNL     1       4.250   4.480  -0.656  0.00  0.00    +0.158 C 
BRANCH  12  13
ATOM     13  N   UNL     1       3.989   5.681  -1.453  0.00  0.00    -0.289 N 
ATOM     14  C   UNL     1       4.703   6.803  -1.234  0.00  0.00    +0.298 C 
ATOM     15  O   UNL     1       5.564   6.818  -0.375  0.00  0.00    -0.253 OA
ATOM     16  N   UNL     1       4.463   7.909  -1.967  0.00  0.00    -0.313 N 
ATOM     17  H   UNL     1       3.211   5.668  -2.230  0.00  0.00    +0.151 HD
ATOM     18  H   UNL     1       5.046   8.824  -1.788  0.00  0.00    +0.146 HD
ATOM     19  H   UNL     1       3.685   7.895  -2.744  0.00  0.00    +0.146 HD
ENDBRANCH  12  13
ENDBRANCH   7  12
ENDBRANCH   1   9
BRANCH   5  20
ATOM     20  S   UNL     1       1.201  -2.353  -0.023  0.00  0.00    +0.076 S 
ATOM     21  O   UNL     1       0.427  -2.870  -1.097  0.00  0.00    -0.150 OA
ATOM     22  O   UNL     1       2.598  -2.585   0.090  0.00  0.00    -0.150 OA
BRANCH  20  23
ATOM     23  N   UNL     1       0.512  -2.920   1.372  0.00  0.00    -0.216 N 
ATOM     24  H   UNL     1      -0.327  -3.629   1.322  0.00  0.00    +0.174 HD
BRANCH  23  25
ATOM     25  C   UNL     1       0.996  -2.496   2.612  0.00  0.00    +0.048 A 
ATOM     26  C   UNL     1       2.363  -2.476   2.855  0.00  0.00    +0.026 A 
ATOM     27  C   UNL     1       2.839  -2.052   4.080  0.00  0.00    +0.022 A 
ATOM     28  C   UNL     1       1.955  -1.658   5.069  0.00  0.00    +0.041 A 
ATOM     29  C   UNL     1       0.592  -1.682   4.832  0.00  0.00    +0.022 A 
ATOM     30  C   UNL     1       0.111  -2.100   3.606  0.00  0.00    +0.026 A 
ATOM     31 CL   UNL     1       2.557  -1.132   6.610  0.00  0.00    -0.084 Cl
ENDBRANCH  23  25
ENDBRANCH  20  23
ENDBRANCH   5  20
BRANCH   4  32
ATOM     32  O   UNL     1      -1.379  -0.891  -0.160  0.00  0.00    -0.493 OA
ATOM     33  C   UNL     1      -2.666  -0.273  -0.112  0.00  0.00    +0.277 C 
ENDBRANCH   4  32
TORSDOF 7
