REMARK  Name = ZINC63362167
REMARK  11 active torsions:
REMARK  status: ('A' for Active; 'I' for Inactive)
REMARK    1  A    between atoms: C_1  and  C_2
REMARK    2  A    between atoms: C_2  and  C_4
REMARK    3  A    between atoms: C_2  and  N_10
REMARK    4  A    between atoms: C_4  and  C_5
REMARK    5  A    between atoms: C_5  and  C_6
REMARK    6  A    between atoms: C_6  and  C_7
REMARK    7  A    between atoms: C_7  and  C_8
REMARK    8  A    between atoms: C_7  and  C_9
REMARK    9  A    between atoms: C_11  and  C_13
REMARK   10  A    between atoms: C_17  and  N_19
REMARK   11  A    between atoms: C_22  and  C_38
REMARK                            x       y       z     vdW  Elec       q    Type
REMARK                         _______ _______ _______ _____ _____    ______ ____
ROOT
ATOM      1  N   UNL     1      -6.150  -1.923  -3.513  0.00  0.00    -0.192 N 
ATOM      2  C   UNL     1      -5.686  -1.538  -4.720  0.00  0.00    +0.253 C 
ATOM      3  O   UNL     1      -4.632  -0.987  -4.958  0.00  0.00    -0.272 OA
ATOM      4  C   UNL     1      -6.755  -1.935  -5.714  0.00  0.00    +0.137 C 
ATOM      5  C   UNL     1      -7.269  -0.711  -6.471  0.00  0.00    +0.139 C 
ATOM      6  C   UNL     1      -8.698  -0.461  -6.013  0.00  0.00    -0.034 C 
ATOM      7  C   UNL     1      -8.732   0.793  -5.570  0.00  0.00    -0.001 A 
ATOM      8  C   UNL     1      -9.840   1.620  -5.066  0.00  0.00    +0.010 A 
ATOM      9  C   UNL     1      -9.516   2.883  -4.679  0.00  0.00    +0.001 A 
ATOM     10  C   UNL     1      -8.217   3.397  -4.743  0.00  0.00    +0.002 A 
ATOM     11  C   UNL     1      -7.140   2.709  -5.197  0.00  0.00    +0.026 A 
ATOM     12  C   UNL     1      -7.356   1.370  -5.637  0.00  0.00    +0.043 A 
ATOM     13  N   UNL     1      -6.511   0.496  -6.137  0.00  0.00    -0.375 N 
ATOM     14  C   UNL     1      -9.777  -1.516  -6.028  0.00  0.00    +0.052 C 
ATOM     15  C   UNL     1      -9.205  -2.756  -5.312  0.00  0.00    +0.115 C 
ATOM     16  N   UNL     1      -7.851  -2.428  -4.855  0.00  0.00    -0.268 N 
ATOM     17  C   UNL     1      -7.371  -2.468  -3.604  0.00  0.00    +0.316 C 
ATOM     18  O   UNL     1      -7.974  -2.941  -2.661  0.00  0.00    -0.252 OA
ATOM     19  C   UNL     1      -6.255  -3.026  -6.663  0.00  0.00    +0.044 C 
ATOM     20  H   UNL     1      -5.556   0.620  -6.261  0.00  0.00    +0.160 HD
ENDROOT
BRANCH   1  25
ATOM     21  C   UNL     1      -3.430  -1.177  -1.136  0.00  0.00    +0.038 A 
ATOM     22  C   UNL     1      -4.049  -1.496   0.074  0.00  0.00    +0.013 A 
ATOM     23  C   UNL     1      -5.352  -1.951   0.082  0.00  0.00    +0.003 A 
ATOM     24  C   UNL     1      -6.048  -2.093  -1.104  0.00  0.00    +0.024 A 
ATOM     25  C   UNL     1      -5.440  -1.778  -2.313  0.00  0.00    +0.046 A 
ATOM     26  C   UNL     1      -4.134  -1.314  -2.332  0.00  0.00    +0.037 A 
BRANCH  21  28
ATOM     27  N   UNL     1      -1.356  -0.558   0.008  0.00  0.00    -0.309 N 
ATOM     28  C   UNL     1      -2.034  -0.689  -1.149  0.00  0.00    +0.244 C 
ATOM     29  O   UNL     1      -1.498  -0.407  -2.203  0.00  0.00    -0.270 OA
ATOM     30  H   UNL     1      -1.783  -0.783   0.849  0.00  0.00    +0.149 HD
BRANCH  27  32
ATOM     31  C   UNL     1       0.033   1.455  -0.011  0.00  0.00    +0.028 C 
ATOM     32  C   UNL     1       0.027  -0.075  -0.004  0.00  0.00    +0.070 C 
BRANCH  32  33
ATOM     33  C   UNL     1       0.756  -0.581   1.242  0.00  0.00    +0.022 C 
BRANCH  33  34
ATOM     34  C   UNL     1       0.860  -2.107   1.187  0.00  0.00    +0.002 C 
BRANCH  34  35
ATOM     35  C   UNL     1       1.588  -2.614   2.433  0.00  0.00    +0.003 C 
BRANCH  35  36
ATOM     36  C   UNL     1       1.692  -4.139   2.378  0.00  0.00    -0.017 C 
ATOM     37  C   UNL     1       2.528  -4.636   3.559  0.00  0.00    +0.007 C 
ATOM     38  C   UNL     1       0.290  -4.749   2.453  0.00  0.00    +0.007 C 
ENDBRANCH  35  36
ENDBRANCH  34  35
ENDBRANCH  33  34
ENDBRANCH  32  33
ENDBRANCH  27  32
ENDBRANCH  21  28
ENDBRANCH   1  25
TORSDOF 7
