REMARK  Name = ZINC38552805
REMARK  4 active torsions:
REMARK  status: ('A' for Active; 'I' for Inactive)
REMARK    1  A    between atoms: C_1  and  C_2
REMARK    2  A    between atoms: C_5  and  C_9
REMARK    3  A    between atoms: C_7  and  C_8
REMARK    4  A    between atoms: C_20  and  C_23
REMARK                            x       y       z     vdW  Elec       q    Type
REMARK                         _______ _______ _______ _____ _____    ______ ____
ROOT
ATOM      1  C   UNL     1       0.074  -4.444   0.088  0.00  0.00    +0.247 C 
ATOM      2  O   UNL     1       0.381  -5.037   1.105  0.00  0.00    -0.270 OA
ATOM      3  N   UNL     1      -0.025  -5.113  -1.078  0.00  0.00    -0.295 N 
ATOM      4  C   UNL     1      -0.271  -4.393  -2.335  0.00  0.00    +0.127 C 
ATOM      5  C   UNL     1       0.836  -4.756  -3.333  0.00  0.00    +0.126 C 
ATOM      6  N   UNL     1       0.973  -6.219  -3.370  0.00  0.00    -0.307 N 
ATOM      7  C   UNL     1       1.220  -6.939  -2.113  0.00  0.00    +0.126 C 
ATOM      8  C   UNL     1       0.118  -6.576  -1.115  0.00  0.00    +0.127 C 
ATOM      9  C   UNL     1       0.873  -6.900  -4.557  0.00  0.00    +0.151 C 
ATOM     10  N   UNL     1       0.965  -6.269  -5.710  0.00  0.00    -0.258 N 
ATOM     11  N   UNL     1       0.877  -6.816  -6.850  0.00  0.00    -0.176 NA
ATOM     12  C   UNL     1       0.368  -7.955  -7.173  0.00  0.00    +0.079 C 
ATOM     13  C   UNL     1      -0.280  -8.867  -6.156  0.00  0.00    +0.134 C 
ATOM     14  S   UNL     1       0.623  -8.653  -4.583  0.00  0.00    -0.085 S 
ATOM     15  H   UNL     1       1.111  -5.310  -5.684  0.00  0.00    +0.191 HD
ENDROOT
BRANCH   1  20
ATOM     16  C   UNL     1      -0.961   1.214   0.256  0.00  0.00    +0.044 C 
ATOM     17  C   UNL     1      -0.690  -0.268   0.212  0.00  0.00    -0.047 A 
ATOM     18  C   UNL     1      -1.391  -1.070  -0.671  0.00  0.00    +0.004 A 
ATOM     19  C   UNL     1      -1.147  -2.427  -0.716  0.00  0.00    +0.013 A 
ATOM     20  C   UNL     1      -0.192  -2.991   0.131  0.00  0.00    +0.037 A 
ATOM     21  C   UNL     1       0.511  -2.176   1.020  0.00  0.00    +0.016 A 
ATOM     22  C   UNL     1       0.262  -0.819   1.051  0.00  0.00    -0.047 A 
ATOM     23  C   UNL     1       1.025   0.063   2.006  0.00  0.00    +0.044 C 
ENDBRANCH   1  20
BRANCH  12  24
ATOM     24  C   UNL     1       0.420  -8.383  -8.580  0.00  0.00    -0.001 A 
ATOM     25  C   UNL     1      -0.128  -9.612  -8.961  0.00  0.00    +0.011 A 
ATOM     26  C   UNL     1      -0.076 -10.006 -10.281  0.00  0.00    +0.020 A 
ATOM     27  C   UNL     1       0.517  -9.189 -11.228  0.00  0.00    +0.041 A 
ATOM     28  C   UNL     1       1.063  -7.971 -10.858  0.00  0.00    +0.020 A 
ATOM     29  C   UNL     1       1.014  -7.561  -9.543  0.00  0.00    +0.011 A 
ATOM     30 CL   UNL     1       0.579  -9.694 -12.888  0.00  0.00    -0.084 Cl
ENDBRANCH  12  24
TORSDOF 2
