REMARK  Name = ZINC24918332
REMARK  8 active torsions:
REMARK  status: ('A' for Active; 'I' for Inactive)
REMARK    1  A    between atoms: C_1  and  C_2
REMARK    2  A    between atoms: C_3  and  C_27
REMARK    3  A    between atoms: N_9  and  C_26
REMARK    4  A    between atoms: C_10  and  S_12
REMARK    5  A    between atoms: S_12  and  C_13
REMARK    6  A    between atoms: C_13  and  C_15
REMARK    7  A    between atoms: C_13  and  C_16
REMARK    8  A    between atoms: N_18  and  C_19
REMARK                            x       y       z     vdW  Elec       q    Type
REMARK                         _______ _______ _______ _____ _____    ______ ____
ROOT
ATOM      1  S   UNL     1      -1.871  -3.456   0.025  0.00  0.00    -0.075 S 
ENDROOT
BRANCH   1  11
ATOM      2  C   UNL     1       3.771   0.622   0.048  0.00  0.00    +0.045 C 
ATOM      3  C   UNL     1       2.277   0.816   0.054  0.00  0.00    -0.026 A 
ATOM      4  C   UNL     1       1.753   2.050   0.065  0.00  0.00    -0.008 A 
ATOM      5  S   UNL     1      -0.005   1.755   0.066  0.00  0.00    -0.073 S 
ATOM      6  C   UNL     1       0.014  -0.019   0.052  0.00  0.00    +0.117 A 
ATOM      7  C   UNL     1       1.387  -0.332   0.046  0.00  0.00    +0.075 A 
ATOM      8  C   UNL     1       1.707  -1.726   0.033  0.00  0.00    +0.263 A 
ATOM      9  O   UNL     1       2.870  -2.093   0.027  0.00  0.00    -0.267 OA
ATOM     10  N   UNL     1       0.708  -2.628   0.028  0.00  0.00    -0.290 N 
ATOM     11  C   UNL     1      -0.599  -2.237   0.034  0.00  0.00    +0.173 A 
ATOM     12  N   UNL     1      -0.923  -0.960   0.045  0.00  0.00    -0.216 NA
ATOM     13  C   UNL     1       1.031  -4.057   0.014  0.00  0.00    +0.154 C 
ATOM     14  C   UNL     1       2.478   3.372   0.074  0.00  0.00    +0.052 C 
ENDBRANCH   1  11
BRANCH   1  15
ATOM     15  C   UNL     1      -3.332  -2.386   0.037  0.00  0.00    +0.137 C 
ATOM     16  C   UNL     1      -3.385  -1.582  -1.263  0.00  0.00    +0.029 C 
BRANCH  15  17
ATOM     17  C   UNL     1      -4.573  -3.233   0.155  0.00  0.00    +0.230 C 
ATOM     18  O   UNL     1      -4.535  -4.410  -0.135  0.00  0.00    -0.274 OA
ATOM     19  N   UNL     1      -5.726  -2.681   0.583  0.00  0.00    -0.282 N 
ATOM     20  H   UNL     1      -5.744  -1.633   0.916  0.00  0.00    +0.155 HD
BRANCH  19  21
ATOM     21  C   UNL     1      -6.901  -3.443   0.605  0.00  0.00    +0.069 A 
ATOM     22  C   UNL     1      -6.846  -4.798   0.899  0.00  0.00    +0.026 A 
ATOM     23  C   UNL     1      -8.007  -5.546   0.925  0.00  0.00    +0.002 A 
ATOM     24  C   UNL     1      -9.223  -4.950   0.647  0.00  0.00    +0.003 A 
ATOM     25  C   UNL     1      -9.282  -3.601   0.348  0.00  0.00    +0.040 A 
ATOM     26  C   UNL     1      -8.125  -2.845   0.326  0.00  0.00    +0.144 A 
ATOM     27  F   UNL     1      -8.182  -1.527   0.033  0.00  0.00    -0.204 F 
ENDBRANCH  19  21
ENDBRANCH  15  17
ENDBRANCH   1  15
TORSDOF 4
