REMARK  Name = ZINC36642671
REMARK  10 active torsions:
REMARK  status: ('A' for Active; 'I' for Inactive)
REMARK    1  A    between atoms: C_1  and  C_2
REMARK    2  A    between atoms: C_2  and  N_3
REMARK    3  A    between atoms: N_3  and  C_4
REMARK    4  A    between atoms: N_3  and  C_6
REMARK    5  A    between atoms: C_4  and  C_5
REMARK    6  A    between atoms: C_6  and  C_7
REMARK    7  A    between atoms: C_7  and  N_8
REMARK    8  A    between atoms: C_20  and  C_22
REMARK    9  A    between atoms: C_25  and  N_31
REMARK   10  A    between atoms: C_26  and  N_28
REMARK                            x       y       z     vdW  Elec       q    Type
REMARK                         _______ _______ _______ _____ _____    ______ ____
ROOT
ATOM      1  N   UNL     1       2.309  -3.352  -0.519  0.00  0.00    -0.248 N 
ATOM      2  C   UNL     1       1.427  -4.016  -1.356  0.00  0.00    +0.168 A 
ATOM      3  N   UNL     1       0.585  -3.514  -2.228  0.00  0.00    -0.221 NA
ATOM      4  C   UNL     1      -0.223  -4.288  -2.986  0.00  0.00    +0.116 A 
ATOM      5  C   UNL     1      -1.170  -3.877  -3.956  0.00  0.00    +0.152 A 
ATOM      6  C   UNL     1      -1.917  -4.801  -4.642  0.00  0.00    +0.079 A 
ATOM      7  C   UNL     1      -1.774  -6.164  -4.412  0.00  0.00    +0.127 A 
ATOM      8  C   UNL     1      -0.857  -6.600  -3.471  0.00  0.00    +0.055 A 
ATOM      9  C   UNL     1      -0.105  -5.681  -2.780  0.00  0.00    +0.046 A 
ATOM     10  S   UNL     1       1.153  -5.773  -1.529  0.00  0.00    -0.052 S 
ATOM     11  F   UNL     1      -2.522  -7.054  -5.100  0.00  0.00    -0.205 F 
ATOM     12  F   UNL     1      -1.339  -2.561  -4.207  0.00  0.00    -0.203 F 
ATOM     13  C   UNL     1       3.107  -4.053   0.311  0.00  0.00    +0.252 C 
ATOM     14  O   UNL     1       3.102  -5.269   0.277  0.00  0.00    -0.270 OA
ENDROOT
BRANCH  13  15
ATOM     15  C   UNL     1       3.985  -3.346   1.261  0.00  0.00    +0.040 A 
ATOM     16  C   UNL     1       3.464  -2.340   2.082  0.00  0.00    +0.015 A 
ATOM     17  C   UNL     1       4.286  -1.683   2.968  0.00  0.00    +0.026 A 
ATOM     18  C   UNL     1       5.635  -2.017   3.047  0.00  0.00    +0.060 A 
ATOM     19  C   UNL     1       6.157  -3.017   2.232  0.00  0.00    +0.148 A 
ATOM     20  C   UNL     1       5.339  -3.683   1.348  0.00  0.00    +0.047 A 
BRANCH  18  21
ATOM     21  N   UNL     1       6.464  -1.349   3.943  0.00  0.00    -0.324 N 
ATOM     22  C   UNL     1       7.175  -0.123   3.548  0.00  0.00    +0.133 C 
ATOM     23  C   UNL     1       6.910   0.952   4.608  0.00  0.00    +0.178 C 
ATOM     24  O   UNL     1       7.222   0.426   5.900  0.00  0.00    -0.377 OA
ATOM     25  C   UNL     1       6.415  -0.689   6.288  0.00  0.00    +0.178 C 
ATOM     26  C   UNL     1       6.650  -1.845   5.316  0.00  0.00    +0.133 C 
ENDBRANCH  18  21
BRANCH  19  27
ATOM     27  N   UNL     1       7.592  -3.369   2.320  0.00  0.00    +0.058 N 
ATOM     28  O   UNL     1       8.046  -4.238   1.612  0.00  0.00    -0.126 OA
ATOM     29  O   UNL     1       8.310  -2.788   3.099  0.00  0.00    -0.126 OA
ENDBRANCH  19  27
ENDBRANCH  13  15
BRANCH   1  30
ATOM     30  C   UNL     1       2.376  -1.889  -0.537  0.00  0.00    +0.097 C 
BRANCH  30  31
ATOM     31  C   UNL     1       1.169  -1.315   0.207  0.00  0.00    -0.059 C 
BRANCH  31  32
ATOM     32  N   UNL     1       1.303   0.145   0.307  0.00  0.00    +0.380 N 
ATOM     33  H   UNL     1       2.187   0.372   0.737  0.00  0.00    -0.082 HD
BRANCH  32  35
ATOM     34  C   UNL     1       1.528   2.236  -0.948  0.00  0.00    -0.017 C 
ATOM     35  C   UNL     1       1.247   0.734  -1.038  0.00  0.00    -0.082 C 
ENDBRANCH  32  35
BRANCH  32  36
ATOM     36  C   UNL     1       0.208   0.683   1.123  0.00  0.00    -0.082 C 
ATOM     37  C   UNL     1       0.348   0.179   2.561  0.00  0.00    -0.017 C 
ENDBRANCH  32  36
ENDBRANCH  31  32
ENDBRANCH  30  31
ENDBRANCH   1  30
TORSDOF 8
