REMARK  Name = ZINC12351352
REMARK  11 active torsions:
REMARK  status: ('A' for Active; 'I' for Inactive)
REMARK    1  A    between atoms: C_4  and  C_7
REMARK    2  A    between atoms: C_7  and  O_8
REMARK    3  A    between atoms: O_8  and  P_9
REMARK    4  A    between atoms: P_9  and  O_11
REMARK    5  A    between atoms: O_11  and  C_12
REMARK    6  A    between atoms: C_12  and  C_13
REMARK    7  A    between atoms: C_13  and  C_15
REMARK    8  A    between atoms: C_13  and  N_17
REMARK    9  A    between atoms: C_18  and  O_20
REMARK   10  A    between atoms: O_20  and  C_21
REMARK   11  A    between atoms: C_21  and  C_22
REMARK                            x       y       z     vdW  Elec       q    Type
REMARK                         _______ _______ _______ _____ _____    ______ ____
ROOT
ATOM      1  N   UNK A   1      -3.849   6.505  -2.143  0.00  0.00    -0.266 N 
ATOM      2  C   UNK A   0      -2.501   6.498  -2.159  0.00  0.00    +0.401 C 
ATOM      3  O   UNK A   0      -1.902   6.982  -3.099  0.00  0.00    -0.226 OA
ATOM      4  H   UNK A   1      -4.327   6.118  -1.392  0.00  0.00    +0.153 HD
ENDROOT
BRANCH   1   5
ATOM      5  C   UNK A   1      -4.592   7.097  -3.258  0.00  0.00    +0.215 C 
BRANCH   5   6
ATOM      6  C   UNK A   1      -4.725   8.582  -3.041  0.00  0.00    +0.378 C 
ATOM      7  O   UNK A   1      -4.249   9.094  -2.055  0.00  0.00    -0.244 OA
ATOM      8  O   UNK A   1      -5.374   9.336  -3.942  0.00  0.00    -0.244 OA
ENDBRANCH   5   6
BRANCH   5   9
ATOM      9  C   UNK A   1      -5.983   6.465  -3.336  0.00  0.00    +0.206 C 
BRANCH   9  10
ATOM     10  O   UNK A   1      -6.727   6.805  -2.164  0.00  0.00    -0.283 OA
BRANCH  10  11
ATOM     11  P   UNK A   1      -8.237   6.309  -1.909  0.00  0.00    +0.505 P 
ATOM     12  O   UNK A   1      -8.296   4.834  -2.009  0.00  0.00    -0.225 OA
ATOM     13  O   UNK A   1      -9.210   6.961  -3.014  0.00  0.00    -0.116 OA
BRANCH  11  14
ATOM     14  O   UNK A   1      -8.712   6.767  -0.440  0.00  0.00    -0.280 OA
BRANCH  14  15
ATOM     15  C   UNK A   1      -9.969   6.388   0.125  0.00  0.00    +0.207 C 
BRANCH  15  19
ATOM     16  C   UNK A   1     -10.336   8.069   4.035  0.00  0.00    +0.000 A 
ATOM     17  C   UNK A   1     -10.782   8.776   2.934  0.00  0.00    +0.000 A 
ATOM     18  C   UNK A   1     -10.663   8.232   1.669  0.00  0.00    +0.006 A 
ATOM     19  C   UNK A   1     -10.098   6.981   1.504  0.00  0.00    -0.021 A 
ATOM     20  C   UNK A   1      -9.658   6.272   2.606  0.00  0.00    +0.006 A 
ATOM     21  C   UNK A   1      -9.772   6.818   3.870  0.00  0.00    +0.000 A 
ENDBRANCH  15  19
ENDBRANCH  14  15
ENDBRANCH  11  14
ENDBRANCH  10  11
ENDBRANCH   9  10
ENDBRANCH   5   9
ENDBRANCH   1   5
BRANCH   2  22
ATOM     22  O   UNK A   0      -1.818   5.954  -1.134  0.00  0.00    -0.449 OA
BRANCH  22  23
ATOM     23  C   UNK A   0      -0.369   5.982  -1.218  0.00  0.00    +0.246 C 
BRANCH  23  24
ATOM     24  C   UNK A   0       0.227   5.323   0.027  0.00  0.00    +0.088 C 
ATOM     25  C   UNK A   0      -0.064   3.843   0.022  0.00  0.00    -0.029 A 
ATOM     26  C   UNK A   0      -1.245   3.132   0.029  0.00  0.00    +0.005 A 
ATOM     27  C   UNK A   0      -1.221   1.748   0.017  0.00  0.00    +0.000 A 
ATOM     28  C   UNK A   0      -0.013   1.076   0.008  0.00  0.00    +0.001 A 
ATOM     29  C   UNK A   0       1.174   1.779   0.000  0.00  0.00    +0.009 A 
ATOM     30  C   UNK A   0       1.157   3.175   0.008  0.00  0.00    -0.014 A 
ATOM     31  C   UNK A   0       2.262   4.166   0.002  0.00  0.00    -0.014 A 
ATOM     32  C   UNK A   0       1.731   5.452   0.014  0.00  0.00    -0.029 A 
ATOM     33  C   UNK A   0       2.566   6.550   0.011  0.00  0.00    +0.005 A 
ATOM     34  C   UNK A   0       3.938   6.376  -0.003  0.00  0.00    +0.000 A 
ATOM     35  C   UNK A   0       4.476   5.101  -0.015  0.00  0.00    +0.001 A 
ATOM     36  C   UNK A   0       3.648   3.998  -0.012  0.00  0.00    +0.009 A 
ENDBRANCH  23  24
ENDBRANCH  22  23
ENDBRANCH   2  22
TORSDOF 11
