REMARK  Name = ZINC32931791
REMARK  5 active torsions:
REMARK  status: ('A' for Active; 'I' for Inactive)
REMARK    1  A    between atoms: C_1  and  C_2
REMARK    2  A    between atoms: C_13  and  C_15
REMARK    3  A    between atoms: C_15  and  C_16
REMARK    4  A    between atoms: N_18  and  C_19
REMARK    5  A    between atoms: C_22  and  N_26
REMARK                            x       y       z     vdW  Elec       q    Type
REMARK                         _______ _______ _______ _____ _____    ______ ____
ROOT
ATOM      1  C   UNL     1      -1.060   4.535   2.633  0.00  0.00    +0.219 C 
ATOM      2  O   UNL     1      -1.651   3.942   1.755  0.00  0.00    -0.275 OA
ATOM      3  N   UNL     1      -0.955   5.878   2.588  0.00  0.00    -0.285 N 
ATOM      4  H   UNL     1      -0.486   6.421   3.421  0.00  0.00    +0.155 HD
ENDROOT
BRANCH   3   5
ATOM      5  C   UNL     1      -1.444   6.581   1.479  0.00  0.00    +0.035 A 
ATOM      6  C   UNL     1      -2.588   6.141   0.827  0.00  0.00    +0.025 A 
ATOM      7  C   UNL     1      -3.071   6.834  -0.265  0.00  0.00    +0.027 A 
ATOM      8  C   UNL     1      -2.411   7.971  -0.712  0.00  0.00    +0.063 A 
ATOM      9  C   UNL     1      -1.266   8.412  -0.060  0.00  0.00    +0.065 A 
ATOM     10  C   UNL     1      -0.787   7.721   1.036  0.00  0.00    +0.045 A 
ATOM     11 CL   UNL     1      -0.442   9.834  -0.619  0.00  0.00    -0.082 Cl
BRANCH   8  12
ATOM     12  N   UNL     1      -2.902   8.676  -1.822  0.00  0.00    -0.201 N 
ATOM     13  C   UNL     1      -2.541   8.437  -3.096  0.00  0.00    +0.258 C 
ATOM     14  O   UNL     1      -1.752   7.590  -3.462  0.00  0.00    -0.269 OA
ATOM     15  C   UNL     1      -3.269   9.375  -3.975  0.00  0.00    +0.050 A 
ATOM     16  C   UNL     1      -3.302   9.591  -5.344  0.00  0.00    +0.014 A 
ATOM     17  C   UNL     1      -4.114  10.588  -5.863  0.00  0.00    +0.001 A 
ATOM     18  C   UNL     1      -4.890  11.367  -5.025  0.00  0.00    +0.001 A 
ATOM     19  C   UNL     1      -4.867  11.162  -3.654  0.00  0.00    +0.014 A 
ATOM     20  C   UNL     1      -4.061  10.170  -3.121  0.00  0.00    +0.050 A 
ATOM     21  C   UNL     1      -3.791   9.683  -1.752  0.00  0.00    +0.258 C 
ATOM     22  O   UNL     1      -4.289  10.120  -0.734  0.00  0.00    -0.269 OA
ENDBRANCH   8  12
ENDBRANCH   3   5
BRANCH   1  23
ATOM     23  C   UNL     1      -0.442   3.769   3.775  0.00  0.00    +0.123 C 
BRANCH  23  36
ATOM     24  C   UNL     1       0.014   1.087   0.015  0.00  0.00    +0.109 C 
ATOM     25  C   UNL     1      -0.702   1.572   1.250  0.00  0.00    +0.217 C 
ATOM     26  O   UNL     1      -1.900   1.756   1.223  0.00  0.00    -0.276 OA
ATOM     27  N   UNL     1      -0.009   1.801   2.383  0.00  0.00    -0.270 N 
ATOM     28  C   UNL     1       1.363   1.585   2.417  0.00  0.00    +0.079 C 
ATOM     29  C   UNL     1       1.945   1.192   3.553  0.00  0.00    +0.023 C 
ATOM     30  C   UNL     1       1.118   1.013   4.762  0.00  0.00    -0.019 A 
ATOM     31  C   UNL     1       1.616   0.331   5.872  0.00  0.00    +0.008 A 
ATOM     32  C   UNL     1       0.809   0.142   6.976  0.00  0.00    +0.001 A 
ATOM     33  C   UNL     1      -0.486   0.628   6.983  0.00  0.00    +0.000 A 
ATOM     34  C   UNL     1      -0.983   1.314   5.888  0.00  0.00    +0.006 A 
ATOM     35  C   UNL     1      -0.186   1.514   4.782  0.00  0.00    -0.019 A 
ATOM     36  C   UNL     1      -0.704   2.273   3.586  0.00  0.00    +0.120 C 
ENDBRANCH  23  36
ENDBRANCH   1  23
TORSDOF 4
