REMARK  Name = ZINC22716133
REMARK  3 active torsions:
REMARK  status: ('A' for Active; 'I' for Inactive)
REMARK    1  A    between atoms: C_1  and  C_2
REMARK    2  A    between atoms: C_33  and  N_37
REMARK    3  A    between atoms: C_34  and  C_35
REMARK                            x       y       z     vdW  Elec       q    Type
REMARK                         _______ _______ _______ _____ _____    ______ ____
ROOT
ATOM      1  C   UNL     1      -0.019   1.525   0.010  0.00  0.00    +0.012 C 
ATOM      2  C   UNL     1       0.002  -0.004   0.002  0.00  0.00    +0.020 C 
ATOM      3  C   UNL     1      -1.437  -0.527   0.022  0.00  0.00    +0.034 C 
ATOM      4  C   UNL     1      -1.479  -2.070   0.015  0.00  0.00    +0.043 C 
ATOM      5  C   UNL     1      -2.945  -2.470   0.033  0.00  0.00    +0.026 C 
ATOM      6  C   UNL     1      -3.221  -3.917  -0.334  0.00  0.00    +0.002 C 
ATOM      7  C   UNL     1      -2.492  -4.306  -1.621  0.00  0.00    +0.000 C 
ATOM      8  C   UNL     1      -0.993  -4.061  -1.432  0.00  0.00    +0.002 C 
ATOM      9  C   UNL     1      -0.765  -2.561  -1.241  0.00  0.00    +0.026 C 
ATOM     10  N   UNL     1      -0.750  -2.528   1.209  0.00  0.00    -0.263 N 
ATOM     11  C   UNL     1       0.280  -1.739   1.734  0.00  0.00    +0.045 A 
ATOM     12  C   UNL     1       0.715  -0.514   1.220  0.00  0.00    -0.023 A 
ATOM     13  C   UNL     1       1.751   0.108   1.873  0.00  0.00    +0.006 A 
ATOM     14  C   UNL     1       2.322  -0.456   3.005  0.00  0.00    +0.001 A 
ATOM     15  C   UNL     1       1.891  -1.674   3.522  0.00  0.00    +0.007 A 
ATOM     16  C   UNL     1       0.863  -2.308   2.857  0.00  0.00    -0.001 A 
ATOM     17  C   UNL     1       0.148  -3.603   3.060  0.00  0.00    +0.148 C 
ATOM     18  C   UNL     1      -0.882  -3.644   1.939  0.00  0.00    +0.241 C 
ATOM     19  O   UNL     1      -1.658  -4.560   1.774  0.00  0.00    -0.273 OA
ATOM     20  C   UNL     1       1.093  -4.763   2.913  0.00  0.00    +0.104 A 
ATOM     21  C   UNL     1       1.396  -5.551   3.984  0.00  0.00    +0.152 A 
ATOM     22  C   UNL     1       2.312  -6.683   3.771  0.00  0.00    +0.060 A 
ATOM     23  C   UNL     1       2.665  -7.528   4.826  0.00  0.00    +0.015 A 
ATOM     24  C   UNL     1       3.520  -8.583   4.596  0.00  0.00    +0.001 A 
ATOM     25  C   UNL     1       4.030  -8.805   3.325  0.00  0.00    +0.004 A 
ATOM     26  C   UNL     1       3.693  -7.975   2.277  0.00  0.00    +0.047 A 
ATOM     27  C   UNL     1       2.831  -6.905   2.487  0.00  0.00    +0.143 A 
ATOM     28  O   UNL     1       2.494  -6.086   1.470  0.00  0.00    -0.422 OA
ATOM     29  C   UNL     1       1.683  -5.039   1.668  0.00  0.00    +0.346 A 
ATOM     30  O   UNL     1       1.459  -4.296   0.729  0.00  0.00    -0.245 OA
ATOM     31  O   UNL     1       0.889  -5.315   5.207  0.00  0.00    -0.440 OA
ATOM     32  C   UNL     1      -0.147  -4.476   5.372  0.00  0.00    +0.199 C 
ATOM     33  C   UNL     1      -0.550  -3.636   4.387  0.00  0.00    +0.110 C 
ENDROOT
BRANCH  32  34
ATOM     34  N   UNL     1      -0.815  -4.466   6.572  0.00  0.00    -0.328 N 
ATOM     35  H   UNL     1      -0.537  -5.060   7.287  0.00  0.00    +0.145 HD
ATOM     36  H   UNL     1      -1.565  -3.865   6.704  0.00  0.00    +0.145 HD
ENDBRANCH  32  34
BRANCH  33  37
ATOM     37  C   UNL     1      -1.665  -2.768   4.625  0.00  0.00    +0.102 C 
ATOM     38  N   UNL     1      -2.549  -2.079   4.813  0.00  0.00    -0.191 NA
ENDBRANCH  33  37
TORSDOF 2
