REMARK  Name = ZINC19958433
REMARK  4 active torsions:
REMARK  status: ('A' for Active; 'I' for Inactive)
REMARK    1  A    between atoms: C_4  and  N_7
REMARK    2  A    between atoms: N_10  and  C_13
REMARK    3  A    between atoms: N_18  and  C_20
REMARK    4  A    between atoms: N_23  and  C_26
REMARK                            x       y       z     vdW  Elec       q    Type
REMARK                         _______ _______ _______ _____ _____    ______ ____
ROOT
ATOM      1  C   UNL     1      -0.434  -6.210  -1.694  0.00  0.00    +0.040 C 
ATOM      2  C   UNL     1       0.945  -6.865  -1.577  0.00  0.00    +0.015 C 
ATOM      3  C   UNL     1       1.736  -6.174  -0.462  0.00  0.00    -0.017 C 
ATOM      4  C   UNL     1       1.845  -4.679  -0.772  0.00  0.00    -0.078 C 
ATOM      5  N   UNL     1       0.499  -4.100  -0.873  0.00  0.00    +0.383 N 
ATOM      6  C   UNL     1      -0.262  -4.715  -1.968  0.00  0.00    -0.059 C 
ATOM      7  H   UNL     1      -0.030  -4.316   0.067  0.00  0.00    -0.081 HD
ENDROOT
BRANCH   1  11
ATOM      8  N   UNL     1      -3.364  -8.221  -3.978  0.00  0.00    -0.327 N 
ATOM      9  C   UNL     1      -2.071  -8.889  -3.776  0.00  0.00    +0.120 C 
ATOM     10  C   UNL     1      -1.363  -8.269  -2.569  0.00  0.00    +0.103 C 
ATOM     11  N   UNL     1      -1.179  -6.829  -2.799  0.00  0.00    -0.298 NA
ATOM     12  C   UNL     1      -2.472  -6.161  -3.001  0.00  0.00    +0.103 C 
ATOM     13  C   UNL     1      -3.180  -6.781  -4.208  0.00  0.00    +0.120 C 
BRANCH   8  17
ATOM     14  C   UNL     1      -5.475  -9.973  -7.111  0.00  0.00    +0.000 A 
ATOM     15  C   UNL     1      -6.022  -8.906  -6.422  0.00  0.00    +0.002 A 
ATOM     16  C   UNL     1      -5.325  -8.322  -5.383  0.00  0.00    +0.023 A 
ATOM     17  C   UNL     1      -4.072  -8.809  -5.029  0.00  0.00    +0.030 A 
ATOM     18  C   UNL     1      -3.523  -9.877  -5.726  0.00  0.00    +0.023 A 
ATOM     19  C   UNL     1      -4.228 -10.460  -6.761  0.00  0.00    +0.002 A 
ENDBRANCH   8  17
ENDBRANCH   1  11
BRANCH   5  20
ATOM     20  C   UNL     1       0.565  -2.641  -1.032  0.00  0.00    -0.066 C 
ATOM     21  C   UNL     1       1.365  -2.036   0.125  0.00  0.00    +0.004 C 
ATOM     22  C   UNL     1       1.380  -0.512  -0.014  0.00  0.00    +0.103 C 
ATOM     23  N   UNL     1       0.002  -0.004   0.002  0.00  0.00    -0.330 N 
ATOM     24  C   UNL     1      -0.772  -0.535  -1.127  0.00  0.00    +0.103 C 
ATOM     25  C   UNL     1      -0.851  -2.059  -1.022  0.00  0.00    +0.004 C 
BRANCH  23  26
ATOM     26  C   UNL     1      -0.017   1.395   0.010  0.00  0.00    +0.033 A 
ATOM     27  C   UNL     1       1.176   2.106   0.002  0.00  0.00    +0.027 A 
ATOM     28  C   UNL     1       1.159   3.488   0.010  0.00  0.00    +0.051 A 
ATOM     29  C   UNL     1      -0.048   4.168   0.025  0.00  0.00    +0.166 A 
ATOM     30  C   UNL     1      -1.246   3.458   0.032  0.00  0.00    +0.168 A 
ATOM     31  C   UNL     1      -1.228   2.073   0.019  0.00  0.00    +0.072 A 
ATOM     32  O   UNL     1      -2.281   4.348   0.046  0.00  0.00    -0.453 OA
ATOM     33  C   UNL     1      -1.713   5.605  -0.365  0.00  0.00    +0.466 C 
ATOM     34  O   UNL     1      -0.333   5.504   0.034  0.00  0.00    -0.453 OA
ENDBRANCH  23  26
ENDBRANCH   5  20
TORSDOF 4
