REMARK  Name = ZINC09047138
REMARK  5 active torsions:
REMARK  status: ('A' for Active; 'I' for Inactive)
REMARK    1  A    between atoms: C_1  and  C_2
REMARK    2  A    between atoms: C_7  and  C_8
REMARK    3  A    between atoms: C_17  and  O_28
REMARK    4  A    between atoms: C_22  and  C_27
REMARK    5  A    between atoms: C_24  and  C_26
REMARK                            x       y       z     vdW  Elec       q    Type
REMARK                         _______ _______ _______ _____ _____    ______ ____
ROOT
ATOM      1  C   UNL     1       0.243   0.049   2.492  0.00  0.00    +0.031 C 
ATOM      2  C   UNL     1       1.616  -0.209   3.108  0.00  0.00    +0.045 C 
ATOM      3  C   UNL     1       1.722   0.397   4.477  0.00  0.00    -0.019 A 
ATOM      4  C   UNL     1       0.598   0.685   5.245  0.00  0.00    +0.040 A 
ATOM      5  C   UNL     1       0.740   1.250   6.531  0.00  0.00    +0.125 A 
ATOM      6  N   UNL     1       1.908   1.525   7.044  0.00  0.00    -0.233 NA
ATOM      7  C   UNL     1       3.047   1.283   6.369  0.00  0.00    +0.186 A 
ATOM      8  C   UNL     1       2.979   0.691   5.021  0.00  0.00    +0.086 A 
ATOM      9  C   UNL     1       4.295   0.559   4.581  0.00  0.00    +0.228 A 
ATOM     10  N   UNL     1       5.096   1.022   5.558  0.00  0.00    -0.162 N 
ATOM     11  N   UNL     1       4.324   1.460   6.640  0.00  0.00    -0.140 NA
ATOM     12  C   UNL     1       6.487   1.061   5.501  0.00  0.00    +0.255 A 
ATOM     13  N   UNL     1       7.102   0.620   4.415  0.00  0.00    -0.216 NA
ATOM     14  C   UNL     1       8.421   0.642   4.328  0.00  0.00    +0.044 A 
ATOM     15  C   UNL     1       9.161   1.135   5.392  0.00  0.00    +0.046 A 
ATOM     16  C   UNL     1       8.484   1.589   6.514  0.00  0.00    +0.044 A 
ATOM     17  N   UNL     1       7.163   1.543   6.533  0.00  0.00    -0.216 NA
ATOM     18  C   UNL     1       9.246   2.133   7.695  0.00  0.00    +0.066 C 
ATOM     19  C   UNL     1       9.112   0.138   3.087  0.00  0.00    +0.066 C 
ATOM     20  C   UNL     1      -0.744   0.406   4.715  0.00  0.00    +0.165 C 
ATOM     21  O   UNL     1      -1.737   0.836   5.263  0.00  0.00    -0.292 OA
ATOM     22  C   UNL     1      -0.846  -0.435   3.459  0.00  0.00    +0.088 C 
ENDROOT
BRANCH   1  29
ATOM     23  C   UNL     1      -0.469   1.460   0.074  0.00  0.00    +0.044 C 
ATOM     24  C   UNL     1      -0.214  -0.025   0.032  0.00  0.00    -0.047 A 
ATOM     25  C   UNL     1      -0.315  -0.710  -1.164  0.00  0.00    +0.003 A 
ATOM     26  C   UNL     1      -0.080  -2.072  -1.202  0.00  0.00    +0.000 A 
ATOM     27  C   UNL     1       0.256  -2.748  -0.044  0.00  0.00    +0.000 A 
ATOM     28  C   UNL     1       0.357  -2.062   1.152  0.00  0.00    +0.004 A 
ATOM     29  C   UNL     1       0.127  -0.700   1.189  0.00  0.00    -0.041 A 
ENDBRANCH   1  29
BRANCH   9  30
ATOM     30  O   UNL     1       4.695   0.055   3.390  0.00  0.00    -0.492 OA
ATOM     31  H   UNL     1       4.774   0.717   2.690  0.00  0.00    +0.294 HD
ENDBRANCH   9  30
TORSDOF 2
