REMARK  Name = ZINC39916672
REMARK  3 active torsions:
REMARK  status: ('A' for Active; 'I' for Inactive)
REMARK    1  A    between atoms: C_4  and  N_7
REMARK    2  A    between atoms: N_13  and  N_14
REMARK    3  A    between atoms: C_16  and  C_25
REMARK                            x       y       z     vdW  Elec       q    Type
REMARK                         _______ _______ _______ _____ _____    ______ ____
ROOT
ATOM      1  N   UNL     1       2.489  -4.244   0.246  0.00  0.00    -0.244 N 
ATOM      2  C   UNL     1       1.381  -4.950   0.232  0.00  0.00    +0.223 A 
ATOM      3  C   UNL     1       0.062  -4.292   0.174  0.00  0.00    +0.044 A 
ATOM      4  C   UNL     1      -0.971  -5.002  -0.385  0.00  0.00    +0.025 A 
ATOM      5  C   UNL     1      -0.678  -6.354  -0.878  0.00  0.00    +0.018 A 
ATOM      6  C   UNL     1      -1.591  -7.032  -1.691  0.00  0.00    +0.011 A 
ATOM      7  C   UNL     1      -1.292  -8.300  -2.143  0.00  0.00    +0.001 A 
ATOM      8  C   UNL     1      -0.094  -8.902  -1.794  0.00  0.00    +0.004 A 
ATOM      9  C   UNL     1       0.817  -8.243  -0.990  0.00  0.00    +0.047 A 
ATOM     10  C   UNL     1       0.535  -6.970  -0.526  0.00  0.00    +0.137 A 
ATOM     11  O   UNL     1       1.416  -6.312   0.265  0.00  0.00    -0.437 OA
ATOM     12  H   UNL     1       3.342  -4.684   0.383  0.00  0.00    +0.192 HD
ENDROOT
BRANCH   1  19
ATOM     13  N   UNL     1       3.320  -0.699   0.738  0.00  0.00    -0.217 N 
ATOM     14  C   UNL     1       4.037  -0.011   1.609  0.00  0.00    +0.236 C 
ATOM     15  O   UNL     1       4.200   1.187   1.506  0.00  0.00    -0.274 OA
ATOM     16  C   UNL     1       4.646  -0.813   2.748  0.00  0.00    +0.173 C 
ATOM     17  S   UNL     1       4.038  -2.498   2.328  0.00  0.00    -0.079 S 
ATOM     18  C   UNL     1       3.126  -2.065   0.854  0.00  0.00    +0.187 C 
ATOM     19  N   UNL     1       2.437  -2.856   0.065  0.00  0.00    -0.148 NA
BRANCH  13  23
ATOM     20  C   UNL     1       1.564   1.317  -2.459  0.00  0.00    +0.000 A 
ATOM     21  C   UNL     1       1.222   1.651  -1.162  0.00  0.00    +0.002 A 
ATOM     22  C   UNL     1       1.802   0.985  -0.100  0.00  0.00    +0.024 A 
ATOM     23  C   UNL     1       2.729  -0.021  -0.337  0.00  0.00    +0.043 A 
ATOM     24  C   UNL     1       3.070  -0.354  -1.641  0.00  0.00    +0.024 A 
ATOM     25  C   UNL     1       2.487   0.316  -2.699  0.00  0.00    +0.002 A 
ENDBRANCH  13  23
ENDBRANCH   1  19
BRANCH   3  26
ATOM     26  C   UNL     1      -0.140  -2.922   0.699  0.00  0.00    -0.013 A 
ATOM     27  C   UNL     1      -0.580  -1.905  -0.149  0.00  0.00    +0.010 A 
ATOM     28  C   UNL     1      -0.766  -0.631   0.345  0.00  0.00    +0.020 A 
ATOM     29  C   UNL     1      -0.517  -0.360   1.680  0.00  0.00    +0.041 A 
ATOM     30  C   UNL     1      -0.079  -1.365   2.526  0.00  0.00    +0.020 A 
ATOM     31  C   UNL     1       0.105  -2.644   2.044  0.00  0.00    +0.010 A 
ATOM     32 CL   UNL     1      -0.753   1.247   2.295  0.00  0.00    -0.084 Cl
ENDBRANCH   3  26
TORSDOF 3
