REMARK  Name = ZINC22920399
REMARK  4 active torsions:
REMARK  status: ('A' for Active; 'I' for Inactive)
REMARK    1  A    between atoms: C_6  and  N_7
REMARK    2  A    between atoms: C_11  and  N_15
REMARK    3  A    between atoms: N_19  and  C_22
REMARK    4  A    between atoms: N_27  and  C_30
REMARK                            x       y       z     vdW  Elec       q    Type
REMARK                         _______ _______ _______ _____ _____    ______ ____
ROOT
ATOM      1  N   UNL     1      -2.252  -3.700  -1.470  0.00  0.00    +0.389 N 
ATOM      2  C   UNL     1      -1.792  -5.056  -1.649  0.00  0.00    -0.076 C 
ATOM      3  C   UNL     1      -1.630  -5.416  -3.139  0.00  0.00    -0.003 C 
ATOM      4  C   UNL     1      -2.782  -4.860  -3.999  0.00  0.00    +0.083 C 
ATOM      5  N   UNL     1      -4.074  -5.005  -3.372  0.00  0.00    -0.293 NA
ATOM      6  C   UNL     1      -4.420  -3.780  -2.609  0.00  0.00    +0.066 C 
ATOM      7  C   UNL     1      -3.720  -3.728  -1.327  0.00  0.00    -0.062 C 
ATOM      8  H   UNL     1      -1.999  -3.144  -2.274  0.00  0.00    -0.081 HD
ENDROOT
BRANCH   1  13
ATOM      9  N   UNL     1       0.156  -1.657  -0.332  0.00  0.00    -0.212 N 
ATOM     10  C   UNL     1      -0.890  -0.853  -0.104  0.00  0.00    +0.225 C 
ATOM     11  O   UNL     1      -0.836   0.351   0.025  0.00  0.00    -0.275 OA
ATOM     12  C   UNL     1      -2.151  -1.687  -0.032  0.00  0.00    +0.090 C 
ATOM     13  C   UNL     1      -1.647  -3.126  -0.261  0.00  0.00    +0.029 C 
ATOM     14  C   UNL     1      -0.154  -2.954  -0.444  0.00  0.00    +0.213 C 
ATOM     15  O   UNL     1       0.635  -3.849  -0.655  0.00  0.00    -0.277 OA
BRANCH   9  21
ATOM     16  C   UNL     1       2.126  -1.245  -1.673  0.00  0.00    +0.027 A 
ATOM     17  C   UNL     1       3.418  -0.772  -1.788  0.00  0.00    +0.040 A 
ATOM     18  C   UNL     1       4.060  -0.232  -0.686  0.00  0.00    +0.124 A 
ATOM     19  C   UNL     1       3.407  -0.164   0.533  0.00  0.00    +0.040 A 
ATOM     20  C   UNL     1       2.114  -0.636   0.652  0.00  0.00    +0.027 A 
ATOM     21  C   UNL     1       1.469  -1.178  -0.451  0.00  0.00    +0.044 A 
ATOM     22  F   UNL     1       5.324   0.230  -0.801  0.00  0.00    -0.205 F 
ENDBRANCH   9  21
ENDBRANCH   1  13
BRANCH   5  23
ATOM     23  C   UNL     1      -5.109  -5.316  -4.367  0.00  0.00    +0.153 C 
ATOM     24  C   UNL     1      -4.833  -6.680  -5.030  0.00  0.00    +0.125 C 
ATOM     25  C   UNL     1      -4.644  -6.332  -6.491  0.00  0.00    +0.228 C 
ATOM     26  O   UNL     1      -4.404  -7.125  -7.376  0.00  0.00    -0.275 OA
ATOM     27  N   UNL     1      -4.784  -5.011  -6.651  0.00  0.00    -0.209 N 
ATOM     28  C   UNL     1      -5.051  -4.338  -5.520  0.00  0.00    +0.244 C 
ATOM     29  O   UNL     1      -5.217  -3.140  -5.434  0.00  0.00    -0.273 OA
BRANCH  27  30
ATOM     30  C   UNL     1      -4.665  -4.380  -7.898  0.00  0.00    +0.044 A 
ATOM     31  C   UNL     1      -3.438  -4.347  -8.545  0.00  0.00    +0.027 A 
ATOM     32  C   UNL     1      -3.322  -3.725  -9.773  0.00  0.00    +0.040 A 
ATOM     33  C   UNL     1      -4.430  -3.135 -10.358  0.00  0.00    +0.124 A 
ATOM     34  C   UNL     1      -5.655  -3.167  -9.714  0.00  0.00    +0.040 A 
ATOM     35  C   UNL     1      -5.776  -3.793  -8.489  0.00  0.00    +0.027 A 
ATOM     36  F   UNL     1      -4.315  -2.527 -11.559  0.00  0.00    -0.205 F 
ENDBRANCH  27  30
ENDBRANCH   5  23
TORSDOF 4
