REMARK  Name = ZINC44585564
REMARK  8 active torsions:
REMARK  status: ('A' for Active; 'I' for Inactive)
REMARK    1  A    between atoms: C_1  and  C_2
REMARK    2  A    between atoms: C_5  and  S_7
REMARK    3  A    between atoms: S_7  and  C_8
REMARK    4  A    between atoms: C_8  and  C_9
REMARK    5  A    between atoms: C_21  and  O_26
REMARK    6  A    between atoms: C_22  and  O_24
REMARK    7  A    between atoms: O_24  and  C_25
REMARK    8  A    between atoms: O_26  and  C_27
REMARK                            x       y       z     vdW  Elec       q    Type
REMARK                         _______ _______ _______ _____ _____    ______ ____
ROOT
ATOM      1  C   UNL     1       0.098  -5.829   2.776  0.00  0.00    +0.229 C 
ATOM      2  O   UNL     1       0.099  -5.508   3.945  0.00  0.00    -0.275 OA
ATOM      3  N   UNL     1       0.115  -7.133   2.435  0.00  0.00    -0.264 N 
ATOM      4  C   UNL     1       0.134  -8.109   3.424  0.00  0.00    +0.165 A 
ATOM      5  N   UNL     1       0.132  -7.971   4.731  0.00  0.00    -0.224 NA
ATOM      6  C   UNL     1       0.152  -9.025   5.571  0.00  0.00    +0.084 A 
ATOM      7  C   UNL     1       0.175 -10.263   4.994  0.00  0.00    +0.023 A 
ATOM      8  S   UNL     1       0.158  -9.889   3.258  0.00  0.00    -0.056 S 
ATOM      9  C   UNL     1       0.195 -11.319   6.049  0.00  0.00    +0.080 C 
ATOM     10  C   UNL     1       0.182 -10.576   7.363  0.00  0.00    -0.030 A 
ATOM     11  C   UNL     1       0.157  -9.220   7.058  0.00  0.00    +0.008 A 
ATOM     12  C   UNL     1       0.141  -8.281   8.091  0.00  0.00    +0.059 A 
ATOM     13  C   UNL     1       0.150  -8.707   9.407  0.00  0.00    +0.162 A 
ATOM     14  C   UNL     1       0.175 -10.067   9.702  0.00  0.00    +0.162 A 
ATOM     15  C   UNL     1       0.192 -10.999   8.674  0.00  0.00    +0.054 A 
ATOM     16  H   UNL     1       0.114  -7.390   1.500  0.00  0.00    +0.157 HD
ENDROOT
BRANCH  14  17
ATOM     17  O   UNL     1       0.184 -10.482  10.997  0.00  0.00    -0.491 OA
ATOM     18  C   UNL     1       0.210 -11.893  11.226  0.00  0.00    +0.277 C 
ENDBRANCH  14  17
BRANCH  13  19
ATOM     19  O   UNL     1       0.134  -7.794  10.415  0.00  0.00    -0.491 OA
ATOM     20  C   UNL     1       0.109  -6.415  10.042  0.00  0.00    +0.277 C 
ENDBRANCH  13  19
BRANCH   1  21
ATOM     21  C   UNL     1       0.078  -4.771   1.703  0.00  0.00    +0.172 C 
BRANCH  21  22
ATOM     22  S   UNL     1       0.058  -3.129   2.474  0.00  0.00    -0.089 S 
BRANCH  22  27
ATOM     23  C   UNL     1      -0.018   1.503   0.010  0.00  0.00    +0.066 C 
ATOM     24  C   UNL     1       0.002  -0.004   0.002  0.00  0.00    +0.047 A 
ATOM     25  C   UNL     1       0.006  -0.705  -1.157  0.00  0.00    +0.070 A 
ATOM     26  S   UNL     1       0.032  -2.378  -0.535  0.00  0.00    -0.069 S 
ATOM     27  C   UNL     1       0.036  -2.016   1.108  0.00  0.00    +0.135 A 
ATOM     28  N   UNL     1       0.023  -0.700   1.125  0.00  0.00    -0.238 NA
ENDBRANCH  22  27
ENDBRANCH  21  22
ENDBRANCH   1  21
TORSDOF 5
