REMARK  Name = ZINC12659663
REMARK  4 active torsions:
REMARK  status: ('A' for Active; 'I' for Inactive)
REMARK    1  A    between atoms: C_17  and  C_19
REMARK    2  A    between atoms: C_19  and  C_20
REMARK    3  A    between atoms: C_20  and  N_21
REMARK    4  A    between atoms: C_25  and  C_26
REMARK                            x       y       z     vdW  Elec       q    Type
REMARK                         _______ _______ _______ _____ _____    ______ ____
ROOT
ATOM      1  C   UNL     1       5.403   5.075  -0.283  0.00  0.00    +0.124 C 
ENDROOT
BRANCH   1   2
ATOM      2  N   UNL     1       5.113   3.639  -0.262  0.00  0.00    -0.255 N 
ATOM      3  C   UNL     1       3.860   3.235  -0.142  0.00  0.00    +0.258 C 
ATOM      4  O   UNL     1       2.939   4.025  -0.048  0.00  0.00    -0.269 OA
ATOM      5  C   UNL     1       3.634   1.776  -0.126  0.00  0.00    +0.077 C 
ATOM      6  C   UNL     1       2.473   1.081  -0.016  0.00  0.00    +0.028 C 
ATOM      7  S   UNL     1       5.311   1.176  -0.284  0.00  0.00    -0.061 S 
ATOM      8  C   UNL     1       6.130   2.760  -0.365  0.00  0.00    +0.121 C 
ATOM      9  S   UNL     1       7.804   3.084  -0.525  0.00  0.00    -0.027 S 
BRANCH   6  10
ATOM     10  C   UNL     1       1.187   1.787  -0.072  0.00  0.00    -0.020 A 
ATOM     11  C   UNL     1       1.008   2.851  -0.964  0.00  0.00    +0.012 A 
ATOM     12  C   UNL     1      -0.200   3.511  -1.015  0.00  0.00    +0.050 A 
ATOM     13  C   UNL     1      -1.244   3.124  -0.184  0.00  0.00    +0.166 A 
ATOM     14  C   UNL     1      -1.075   2.061   0.704  0.00  0.00    +0.167 A 
ATOM     15  C   UNL     1       0.135   1.397   0.765  0.00  0.00    +0.057 A 
ATOM     16  O   UNL     1      -2.236   1.887   1.402  0.00  0.00    -0.453 OA
ATOM     17  C   UNL     1      -2.981   3.105   1.219  0.00  0.00    +0.466 C 
ATOM     18  O   UNL     1      -2.512   3.608  -0.046  0.00  0.00    -0.453 OA
ENDBRANCH   6  10
ENDBRANCH   1   2
BRANCH   1  19
ATOM     19  C   UNL     1       5.644   5.568   1.145  0.00  0.00    +0.115 C 
BRANCH  19  34
ATOM     20  C   UNL     1       9.957   4.876   2.638  0.00  0.00    +0.007 A 
ATOM     21  C   UNL     1       8.994   5.435   3.485  0.00  0.00    +0.022 A 
ATOM     22  C   UNL     1       8.620   6.735   3.343  0.00  0.00    +0.027 A 
ATOM     23  N   UNL     1       9.218   7.523   2.420  0.00  0.00    -0.312 N 
ATOM     24  C   UNL     1      10.085   6.983   1.528  0.00  0.00    +0.251 A 
ATOM     25  O   UNL     1      10.512   7.665   0.611  0.00  0.00    -0.268 OA
ATOM     26  C   UNL     1      10.495   5.648   1.650  0.00  0.00    +0.070 A 
ATOM     27  C   UNL     1       8.996   8.978   2.342  0.00  0.00    +0.130 C 
ATOM     28  C   UNL     1       7.743   9.421   3.075  0.00  0.00    +0.027 C 
ATOM     29  C   UNL     1       7.681   8.755   4.450  0.00  0.00    +0.018 C 
ATOM     30  C   UNL     1       7.524   7.246   4.248  0.00  0.00    +0.054 C 
ATOM     31  C   UNL     1       6.164   6.990   3.564  0.00  0.00    +0.117 C 
ATOM     32  N   UNL     1       6.188   7.700   2.275  0.00  0.00    -0.300 N 
ATOM     33  C   UNL     1       6.480   9.138   2.273  0.00  0.00    +0.113 C 
ATOM     34  C   UNL     1       5.942   7.045   1.123  0.00  0.00    +0.217 C 
ATOM     35  O   UNL     1       5.960   7.645   0.069  0.00  0.00    -0.276 OA
ENDBRANCH  19  34
ENDBRANCH   1  19
TORSDOF 4
