REMARK  Name = ZINC09476852
REMARK  6 active torsions:
REMARK  status: ('A' for Active; 'I' for Inactive)
REMARK    1  A    between atoms: C_3  and  S_6
REMARK    2  A    between atoms: S_6  and  N_9
REMARK    3  A    between atoms: C_14  and  C_15
REMARK    4  A    between atoms: C_14  and  N_51
REMARK    5  A    between atoms: N_17  and  C_18
REMARK    6  A    between atoms: C_19  and  C_26
REMARK                            x       y       z     vdW  Elec       q    Type
REMARK                         _______ _______ _______ _____ _____    ______ ____
ROOT
ATOM      1  C   UNL     1      -0.647   3.947  -6.364  0.00  0.00    +0.201 C 
ATOM      2  O   UNL     1      -0.541   4.988  -5.750  0.00  0.00    -0.278 OA
ATOM      3  N   UNL     1      -0.257   3.881  -7.652  0.00  0.00    -0.281 N 
ATOM      4  H   UNL     1      -0.342   3.048  -8.142  0.00  0.00    +0.155 HD
ENDROOT
BRANCH   3   5
ATOM      5  C   UNL     1       0.267   5.003  -8.276  0.00  0.00    +0.084 A 
ATOM      6  C   UNL     1       0.723   5.129  -9.577  0.00  0.00    +0.068 A 
ATOM      7  C   UNL     1       1.229   6.437  -9.993  0.00  0.00    -0.023 A 
ATOM      8  C   UNL     1       1.202   7.388  -9.043  0.00  0.00    -0.004 A 
ATOM      9  S   UNL     1       0.515   6.583  -7.616  0.00  0.00    -0.077 S 
ATOM     10  C   UNL     1       1.738   8.702  -9.544  0.00  0.00    +0.043 C 
ATOM     11  C   UNL     1       1.713   8.570 -11.083  0.00  0.00    +0.010 C 
ATOM     12  C   UNL     1       1.812   7.043 -11.270  0.00  0.00    +0.037 C 
BRANCH   6  13
ATOM     13  C   UNL     1       0.698   3.994 -10.505  0.00  0.00    +0.244 C 
ATOM     14  O   UNL     1      -0.281   3.801 -11.203  0.00  0.00    -0.270 OA
ATOM     15  N   UNL     1       1.757   3.165 -10.585  0.00  0.00    -0.325 N 
ATOM     16  H   UNL     1       2.537   3.319 -10.028  0.00  0.00    +0.145 HD
ATOM     17  H   UNL     1       1.740   2.414 -11.198  0.00  0.00    +0.145 HD
ENDBRANCH   6  13
ENDBRANCH   3   5
BRANCH   1  18
ATOM     18  C   UNL     1      -1.216   2.728  -5.685  0.00  0.00    +0.019 C 
BRANCH  18  24
ATOM     19  N   UNL     1      -2.210   4.627  -2.077  0.00  0.00    -0.180 NA
ATOM     20  C   UNL     1      -3.315   4.345  -3.006  0.00  0.00    +0.091 C 
ATOM     21  C   UNL     1      -2.722   4.129  -4.408  0.00  0.00    -0.061 C 
ATOM     22  C   UNL     1      -0.567   3.508  -3.487  0.00  0.00    -0.061 C 
ATOM     23  C   UNL     1      -1.068   3.701  -2.052  0.00  0.00    +0.091 C 
ATOM     24  N   UNL     1      -1.698   3.064  -4.330  0.00  0.00    +0.387 N 
ATOM     25  H   UNL     1      -2.119   2.228  -3.908  0.00  0.00    -0.081 HD
BRANCH  19  26
ATOM     26  S   UNL     1      -2.255   5.949  -1.081  0.00  0.00    +0.067 S 
ATOM     27  O   UNL     1      -1.411   5.654   0.024  0.00  0.00    -0.152 OA
ATOM     28  O   UNL     1      -3.625   6.292  -0.922  0.00  0.00    -0.152 OA
BRANCH  26  31
ATOM     29  C   UNL     1      -1.270   9.161  -3.359  0.00  0.00    +0.010 A 
ATOM     30  C   UNL     1      -2.068   8.195  -2.775  0.00  0.00    +0.036 A 
ATOM     31  C   UNL     1      -1.499   7.283  -1.950  0.00  0.00    +0.143 A 
ATOM     32  S   UNL     1       0.216   7.778  -1.979  0.00  0.00    -0.077 S 
ATOM     33  C   UNL     1       0.058   9.167  -3.089  0.00  0.00    +0.047 A 
ENDBRANCH  26  31
ENDBRANCH  19  26
ENDBRANCH  18  24
ENDBRANCH   1  18
TORSDOF 6
