REMARK  Name = ZINC29050374
REMARK  12 active torsions:
REMARK  status: ('A' for Active; 'I' for Inactive)
REMARK    1  A    between atoms: C_1  and  N_2
REMARK    2  A    between atoms: N_2  and  C_3
REMARK    3  A    between atoms: N_2  and  C_4
REMARK    4  A    between atoms: C_4  and  C_6
REMARK    5  A    between atoms: C_4  and  C_24
REMARK    6  A    between atoms: C_6  and  N_7
REMARK    7  A    between atoms: C_8  and  C_10
REMARK    8  A    between atoms: C_12  and  O_22
REMARK    9  A    between atoms: C_13  and  O_17
REMARK   10  A    between atoms: O_17  and  C_18
REMARK   11  A    between atoms: C_18  and  C_19
REMARK   12  A    between atoms: O_22  and  C_23
REMARK                            x       y       z     vdW  Elec       q    Type
REMARK                         _______ _______ _______ _____ _____    ______ ____
ROOT
ATOM      1  N   UNL     1       1.839   2.580   2.797  0.00  0.00    -0.313 N 
ATOM      2  C   UNL     1       3.149   2.886   2.867  0.00  0.00    +0.244 C 
ATOM      3  O   UNL     1       3.975   2.003   2.994  0.00  0.00    -0.270 OA
ATOM      4  H   UNL     1       1.092   3.379   2.682  0.00  0.00    +0.149 HD
ENDROOT
BRANCH   2   5
ATOM      5  C   UNL     1       3.582   4.295   2.789  0.00  0.00    +0.042 A 
ATOM      6  C   UNL     1       4.941   4.615   2.861  0.00  0.00    +0.062 A 
ATOM      7  C   UNL     1       5.342   5.935   2.787  0.00  0.00    +0.164 A 
ATOM      8  C   UNL     1       4.392   6.945   2.641  0.00  0.00    +0.181 A 
ATOM      9  C   UNL     1       3.042   6.628   2.570  0.00  0.00    +0.087 A 
ATOM     10  C   UNL     1       2.636   5.311   2.637  0.00  0.00    +0.037 A 
ATOM     11 CL   UNL     1       1.864   7.890   2.388  0.00  0.00    -0.080 Cl
BRANCH   7  12
ATOM     12  O   UNL     1       6.663   6.249   2.857  0.00  0.00    -0.491 OA
ATOM     13  C   UNL     1       7.581   5.164   3.006  0.00  0.00    +0.277 C 
ENDBRANCH   7  12
BRANCH   8  14
ATOM     14  O   UNL     1       4.788   8.242   2.569  0.00  0.00    -0.478 OA
BRANCH  14  15
ATOM     15  C   UNL     1       5.068   8.764   1.269  0.00  0.00    +0.324 C 
BRANCH  15  16
ATOM     16  C   UNL     1       5.489  10.206   1.386  0.00  0.00    +0.248 C 
ATOM     17  O   UNL     1       5.545  10.735   2.476  0.00  0.00    -0.272 OA
ATOM     18  N   UNL     1       5.805  10.908   0.280  0.00  0.00    -0.327 N 
ATOM     19  H   UNL     1       6.112  11.961   0.365  0.00  0.00    +0.145 HD
ATOM     20  H   UNL     1       5.755  10.429  -0.709  0.00  0.00    +0.145 HD
ENDBRANCH  15  16
ENDBRANCH  14  15
ENDBRANCH   8  14
ENDBRANCH   2   5
BRANCH   1  21
ATOM     21  C   UNL     1       1.409   1.181   2.875  0.00  0.00    +0.094 C 
BRANCH  21  22
ATOM     22  C   UNL     1      -0.093   1.093   2.597  0.00  0.00    -0.020 C 
BRANCH  22  23
ATOM     23  C   UNL     1      -0.558  -0.327   2.791  0.00  0.00    -0.041 A 
ATOM     24  C   UNL     1      -0.806  -1.129   1.692  0.00  0.00    +0.003 A 
ATOM     25  C   UNL     1      -1.232  -2.432   1.870  0.00  0.00    +0.000 A 
ATOM     26  C   UNL     1      -1.410  -2.934   3.146  0.00  0.00    +0.001 A 
ATOM     27  C   UNL     1      -1.162  -2.133   4.245  0.00  0.00    +0.020 A 
ATOM     28  C   UNL     1      -0.730  -0.831   4.067  0.00  0.00    +0.043 A 
ATOM     29 CL   UNL     1      -0.411   0.174   5.447  0.00  0.00    -0.083 Cl
ENDBRANCH  22  23
BRANCH  22  31
ATOM     30  C   UNL     1       0.682   1.018   0.304  0.00  0.00    -0.096 C 
ATOM     31  N   UNL     1      -0.360   1.512   1.214  0.00  0.00    +0.382 N 
ATOM     32  C   UNL     1      -0.491   2.972   1.122  0.00  0.00    -0.096 C 
ATOM     33  H   UNL     1      -1.318   1.066   0.905  0.00  0.00    -0.082 HD
ENDBRANCH  22  31
ENDBRANCH  21  22
ENDBRANCH   1  21
TORSDOF 9
