REMARK  Name = ZINC22310320
REMARK  5 active torsions:
REMARK  status: ('A' for Active; 'I' for Inactive)
REMARK    1  A    between atoms: C_1  and  C_2
REMARK    2  A    between atoms: C_4  and  O_5
REMARK    3  A    between atoms: C_14  and  C_16
REMARK    4  A    between atoms: C_18  and  C_26
REMARK    5  A    between atoms: C_22  and  C_25
REMARK                            x       y       z     vdW  Elec       q    Type
REMARK                         _______ _______ _______ _____ _____    ______ ____
ROOT
ATOM      1  C   UNL     1      10.797   7.448   0.727  0.00  0.00    +0.045 C 
ATOM      2  C   UNL     1       9.544   8.112   1.237  0.00  0.00    -0.033 A 
ATOM      3  C   UNL     1       9.585   9.358   1.777  0.00  0.00    +0.091 A 
ATOM      4  C   UNL     1       8.399   9.958   2.246  0.00  0.00    +0.285 A 
ATOM      5  O   UNL     1       7.215   9.330   2.176  0.00  0.00    -0.425 OA
ATOM      6  C   UNL     1       7.105   8.091   1.651  0.00  0.00    +0.141 A 
ATOM      7  C   UNL     1       8.249   7.432   1.163  0.00  0.00    +0.021 A 
ATOM      8  C   UNL     1       8.140   6.148   0.617  0.00  0.00    +0.013 A 
ATOM      9  C   UNL     1       6.923   5.534   0.565  0.00  0.00    +0.024 A 
ATOM     10  C   UNL     1       5.784   6.183   1.042  0.00  0.00    +0.037 A 
ATOM     11  C   UNL     1       5.874   7.456   1.586  0.00  0.00    +0.070 A 
ATOM     12  N   UNL     1       4.546   5.545   0.977  0.00  0.00    -0.281 N 
ATOM     13  C   UNL     1       3.444   6.245   0.641  0.00  0.00    +0.249 C 
ATOM     14  O   UNL     1       3.525   7.438   0.422  0.00  0.00    -0.270 OA
ATOM     15  H   UNL     1       4.468   4.471   1.200  0.00  0.00    +0.155 HD
ENDROOT
BRANCH  13  16
ATOM     16  C   UNL     1       2.136   5.561   0.537  0.00  0.00    +0.053 A 
ATOM     17  C   UNL     1       2.040   4.176   0.645  0.00  0.00    +0.042 A 
ATOM     18  C   UNL     1       0.785   3.572   0.536  0.00  0.00    +0.078 A 
ATOM     19  N   UNL     1      -0.312   4.288   0.342  0.00  0.00    -0.210 NA
ATOM     20  C   UNL     1      -0.277   5.607   0.238  0.00  0.00    +0.260 A 
ATOM     21  C   UNL     1       0.948   6.291   0.331  0.00  0.00    +0.076 A 
ATOM     22  C   UNL     1       0.646   7.713   0.177  0.00  0.00    +0.091 A 
ATOM     23  N   UNL     1      -0.638   7.820   0.011  0.00  0.00    -0.080 NA
ATOM     24  O   UNL     1      -1.232   6.539   0.044  0.00  0.00    -0.334 OA
ATOM     25  C   UNL     1       1.640   8.845   0.205  0.00  0.00    +0.070 C 
BRANCH  18  26
ATOM     26  C   UNL     1       0.678   2.098   0.645  0.00  0.00    +0.036 A 
ATOM     27  C   UNL     1       1.828   1.321   0.785  0.00  0.00    +0.013 A 
ATOM     28  C   UNL     1       1.722  -0.051   0.887  0.00  0.00    +0.001 A 
ATOM     29  C   UNL     1       0.479  -0.658   0.851  0.00  0.00    +0.003 A 
ATOM     30  C   UNL     1      -0.665   0.105   0.712  0.00  0.00    +0.039 A 
ATOM     31  C   UNL     1      -0.574   1.480   0.608  0.00  0.00    +0.133 A 
ATOM     32  F   UNL     1      -1.692   2.226   0.471  0.00  0.00    -0.205 F 
ENDBRANCH  18  26
ENDBRANCH  13  16
BRANCH   4  33
ATOM     33  O   UNL     1       8.450  11.076   2.728  0.00  0.00    -0.480 OA
ATOM     34  H   UNL     1       7.533  11.557   3.099  0.00  0.00    +0.295 HD
ENDBRANCH   4  33
TORSDOF 3
