REMARK  Name = ZINC35226607
REMARK  10 active torsions:
REMARK  status: ('A' for Active; 'I' for Inactive)
REMARK    1  A    between atoms: C_1  and  C_2
REMARK    2  A    between atoms: C_7  and  C_8
REMARK    3  A    between atoms: C_8  and  N_9
REMARK    4  A    between atoms: N_9  and  C_10
REMARK    5  A    between atoms: N_9  and  C_32
REMARK    6  A    between atoms: C_10  and  C_11
REMARK    7  A    between atoms: C_14  and  C_16
REMARK    8  A    between atoms: N_21  and  C_24
REMARK    9  A    between atoms: C_29  and  O_30
REMARK   10  A    between atoms: O_30  and  C_31
REMARK                            x       y       z     vdW  Elec       q    Type
REMARK                         _______ _______ _______ _____ _____    ______ ____
ROOT
ATOM      1  C   UNL     1      -1.591   1.930   4.086  0.00  0.00    +0.090 A 
ATOM      2  C   UNL     1      -2.518   1.412   4.922  0.00  0.00    +0.043 A 
ATOM      3  C   UNL     1      -3.533   2.372   5.058  0.00  0.00    +0.055 A 
ATOM      4  C   UNL     1      -3.169   3.440   4.289  0.00  0.00    +0.190 A 
ATOM      5  O   UNL     1      -1.985   3.154   3.710  0.00  0.00    -0.457 OA
ENDROOT
BRANCH   4   6
ATOM      6  C   UNL     1      -3.931   4.683   4.124  0.00  0.00    +0.282 C 
ATOM      7  O   UNL     1      -4.919   4.885   4.804  0.00  0.00    -0.267 OA
ATOM      8  N   UNL     1      -3.536   5.600   3.219  0.00  0.00    -0.292 N 
ATOM      9  C   UNL     1      -2.433   5.309   2.292  0.00  0.00    +0.127 C 
ATOM     10  C   UNL     1      -2.931   5.522   0.857  0.00  0.00    +0.124 C 
ATOM     11  N   UNL     1      -3.595   6.830   0.779  0.00  0.00    -0.324 N 
ATOM     12  C   UNL     1      -4.698   7.121   1.706  0.00  0.00    +0.124 C 
ATOM     13  C   UNL     1      -4.205   6.906   3.137  0.00  0.00    +0.127 C 
BRANCH  11  14
ATOM     14  C   UNL     1      -3.186   7.783  -0.161  0.00  0.00    +0.072 A 
ATOM     15  C   UNL     1      -3.769   7.815  -1.419  0.00  0.00    +0.027 A 
ATOM     16  C   UNL     1      -3.363   8.757  -2.345  0.00  0.00    +0.002 A 
ATOM     17  C   UNL     1      -2.375   9.668  -2.022  0.00  0.00    +0.004 A 
ATOM     18  C   UNL     1      -1.789   9.643  -0.769  0.00  0.00    +0.047 A 
ATOM     19  C   UNL     1      -2.194   8.705   0.166  0.00  0.00    +0.141 A 
BRANCH  19  20
ATOM     20  O   UNL     1      -1.622   8.682   1.400  0.00  0.00    -0.493 OA
ATOM     21  C   UNL     1      -0.612   9.658   1.665  0.00  0.00    +0.277 C 
ENDBRANCH  19  20
ENDBRANCH  11  14
ENDBRANCH   4   6
BRANCH   1  22
ATOM     22  C   UNL     1      -0.321   1.245   3.652  0.00  0.00    -0.002 C 
BRANCH  22  23
ATOM     23  N   UNL     1      -0.553   0.539   2.385  0.00  0.00    +0.389 N 
ATOM     24  H   UNL     1      -1.345  -0.079   2.484  0.00  0.00    -0.080 HD
BRANCH  23  25
ATOM     25  C   UNL     1      -0.825   1.516   1.322  0.00  0.00    -0.068 C 
ATOM     26  C   UNL     1      -1.222   0.780   0.041  0.00  0.00    -0.015 C 
ATOM     27  C   UNL     1      -1.505   1.798  -1.065  0.00  0.00    -0.002 C 
ATOM     28  C   UNL     1      -0.249   2.632  -1.325  0.00  0.00    -0.000 C 
ATOM     29  C   UNL     1       0.148   3.368  -0.044  0.00  0.00    -0.002 C 
ATOM     30  C   UNL     1       0.432   2.350   1.062  0.00  0.00    -0.015 C 
ENDBRANCH  23  25
BRANCH  23  31
ATOM     31  C   UNL     1       0.639  -0.245   2.035  0.00  0.00    -0.042 C 
BRANCH  31  38
ATOM     32  C   UNL     1      -0.922  -2.668   1.840  0.00  0.00    +0.044 C 
ATOM     33  C   UNL     1       0.083  -2.507   2.952  0.00  0.00    -0.049 A 
ATOM     34  C   UNL     1       0.261  -3.520   3.875  0.00  0.00    +0.003 A 
ATOM     35  C   UNL     1       1.182  -3.372   4.895  0.00  0.00    +0.000 A 
ATOM     36  C   UNL     1       1.925  -2.210   4.992  0.00  0.00    +0.000 A 
ATOM     37  C   UNL     1       1.748  -1.197   4.068  0.00  0.00    +0.002 A 
ATOM     38  C   UNL     1       0.829  -1.347   3.045  0.00  0.00    -0.061 A 
ENDBRANCH  31  38
ENDBRANCH  23  31
ENDBRANCH  22  23
ENDBRANCH   1  22
TORSDOF 8
