REMARK  Name = ZINC01636610
REMARK  2 active torsions:
REMARK  status: ('A' for Active; 'I' for Inactive)
REMARK    1  A    between atoms: C_10  and  N_11
REMARK    2  A    between atoms: C_15  and  C_16
REMARK                            x       y       z     vdW  Elec       q    Type
REMARK                         _______ _______ _______ _____ _____    ______ ____
ROOT
ATOM      1  N   UNL     1       3.167   3.587   1.236  0.00  0.00    -0.230 N 
ATOM      2  C   UNL     1       3.308   4.866   1.543  0.00  0.00    +0.262 C 
ATOM      3  O   UNL     1       2.467   5.466   2.185  0.00  0.00    -0.269 OA
ATOM      4  C   UNL     1       4.538   5.529   1.067  0.00  0.00    +0.077 C 
ATOM      5  C   UNL     1       4.947   6.813   1.230  0.00  0.00    +0.028 C 
ATOM      6  S   UNL     1       5.341   4.175   0.220  0.00  0.00    -0.061 S 
ATOM      7  C   UNL     1       4.105   2.925   0.528  0.00  0.00    +0.125 C 
ATOM      8  S   UNL     1       4.107   1.284   0.042  0.00  0.00    -0.027 S 
ENDROOT
BRANCH   1  18
ATOM      9  C   UNL     1      -1.887   3.308   6.308  0.00  0.00    +0.001 A 
ATOM     10  C   UNL     1      -1.119   4.248   6.976  0.00  0.00    +0.004 A 
ATOM     11  C   UNL     1       0.136   4.586   6.516  0.00  0.00    +0.047 A 
ATOM     12  C   UNL     1       0.649   3.984   5.370  0.00  0.00    +0.143 A 
ATOM     13  C   UNL     1      -0.126   3.026   4.704  0.00  0.00    +0.065 A 
ATOM     14  C   UNL     1      -1.397   2.695   5.175  0.00  0.00    +0.015 A 
ATOM     15  C   UNL     1       0.413   2.361   3.492  0.00  0.00    +0.205 C 
ATOM     16  O   UNL     1      -0.136   1.413   2.962  0.00  0.00    -0.286 OA
ATOM     17  C   UNL     1       1.684   2.946   2.979  0.00  0.00    +0.121 C 
ATOM     18  C   UNL     1       2.049   2.922   1.649  0.00  0.00    +0.103 C 
ATOM     19  C   UNL     1       2.519   3.559   4.045  0.00  0.00    +0.349 C 
ATOM     20  O   UNL     1       3.717   3.359   4.115  0.00  0.00    -0.244 OA
ATOM     21  O   UNL     1       1.877   4.351   4.933  0.00  0.00    -0.422 OA
ENDBRANCH   1  18
BRANCH   5  22
ATOM     22  C   UNL     1       6.303   7.208   0.828  0.00  0.00    -0.020 A 
ATOM     23  C   UNL     1       7.300   6.237   0.668  0.00  0.00    +0.012 A 
ATOM     24  C   UNL     1       8.569   6.610   0.286  0.00  0.00    +0.050 A 
ATOM     25  C   UNL     1       8.869   7.949   0.069  0.00  0.00    +0.166 A 
ATOM     26  C   UNL     1       7.883   8.923   0.231  0.00  0.00    +0.167 A 
ATOM     27  C   UNL     1       6.606   8.557   0.609  0.00  0.00    +0.057 A 
ATOM     28  O   UNL     1       8.430  10.145  -0.040  0.00  0.00    -0.453 OA
ATOM     29  C   UNL     1       9.855   9.952   0.030  0.00  0.00    +0.466 C 
ATOM     30  O   UNL     1      10.029   8.562  -0.304  0.00  0.00    -0.453 OA
ENDBRANCH   5  22
TORSDOF 2
