REMARK  Name = ZINC39871787
REMARK  3 active torsions:
REMARK  status: ('A' for Active; 'I' for Inactive)
REMARK    1  A    between atoms: N_14  and  C_26
REMARK    2  A    between atoms: C_15  and  C_17
REMARK    3  A    between atoms: C_20  and  N_23
REMARK                            x       y       z     vdW  Elec       q    Type
REMARK                         _______ _______ _______ _____ _____    ______ ____
ROOT
ATOM      1  C   UNL     1      -0.017   1.363   0.009  0.00  0.00    +0.001 A 
ATOM      2  C   UNL     1       1.173   2.078   0.002  0.00  0.00    +0.004 A 
ATOM      3  C   UNL     1       2.387   1.428  -0.017  0.00  0.00    +0.047 A 
ATOM      4  C   UNL     1       2.432   0.034  -0.027  0.00  0.00    +0.139 A 
ATOM      5  C   UNL     1       1.222  -0.679  -0.013  0.00  0.00    +0.064 A 
ATOM      6  C   UNL     1       0.002  -0.004   0.002  0.00  0.00    +0.015 A 
ATOM      7  C   UNL     1       1.261  -2.163  -0.008  0.00  0.00    +0.199 A 
ATOM      8  O   UNL     1       0.272  -2.857  -0.165  0.00  0.00    -0.287 OA
ATOM      9  C   UNL     1       2.603  -2.715   0.203  0.00  0.00    +0.072 A 
ATOM     10  C   UNL     1       3.708  -1.911   0.175  0.00  0.00    +0.199 A 
ATOM     11  O   UNL     1       3.635  -0.584  -0.053  0.00  0.00    -0.450 OA
ATOM     12  C   UNL     1       4.894  -2.746   0.426  0.00  0.00    +0.287 C 
ATOM     13  O   UNL     1       6.037  -2.336   0.471  0.00  0.00    -0.266 OA
ATOM     14  N   UNL     1       4.528  -4.032   0.600  0.00  0.00    -0.253 N 
ATOM     15  C   UNL     1       3.063  -4.110   0.471  0.00  0.00    +0.150 C 
ENDROOT
BRANCH  14  16
ATOM     16  C   UNL     1       5.388  -5.104   0.858  0.00  0.00    +0.038 A 
ATOM     17  C   UNL     1       4.876  -6.386   1.010  0.00  0.00    +0.024 A 
ATOM     18  C   UNL     1       5.728  -7.442   1.264  0.00  0.00    +0.017 A 
ATOM     19  C   UNL     1       7.090  -7.225   1.368  0.00  0.00    +0.018 A 
ATOM     20  C   UNL     1       7.603  -5.949   1.217  0.00  0.00    +0.017 A 
ATOM     21  C   UNL     1       6.757  -4.889   0.956  0.00  0.00    +0.024 A 
ATOM     22 BR   UNL     1       8.254  -8.674   1.716  0.00  0.00    -0.050 Br
ENDBRANCH  14  16
BRANCH  15  23
ATOM     23  C   UNL     1       2.455  -4.621   1.752  0.00  0.00    -0.022 A 
ATOM     24  C   UNL     1       2.976  -4.226   2.970  0.00  0.00    +0.008 A 
ATOM     25  C   UNL     1       2.418  -4.695   4.144  0.00  0.00    +0.033 A 
ATOM     26  C   UNL     1       1.339  -5.558   4.101  0.00  0.00    +0.126 A 
ATOM     27  C   UNL     1       0.818  -5.952   2.883  0.00  0.00    +0.033 A 
ATOM     28  C   UNL     1       1.373  -5.480   1.708  0.00  0.00    +0.008 A 
BRANCH  26  29
ATOM     29  N   UNL     1       0.742  -6.061   5.359  0.00  0.00    +0.056 N 
ATOM     30  O   UNL     1       1.198  -5.716   6.424  0.00  0.00    -0.126 OA
ATOM     31  O   UNL     1      -0.202  -6.816   5.321  0.00  0.00    -0.126 OA
ENDBRANCH  26  29
ENDBRANCH  15  23
TORSDOF 3
