REMARK  Name = ZINC26948764
REMARK  10 active torsions:
REMARK  status: ('A' for Active; 'I' for Inactive)
REMARK    1  A    between atoms: C_1  and  C_2
REMARK    2  A    between atoms: C_2  and  C_3
REMARK    3  A    between atoms: C_3  and  C_5
REMARK    4  A    between atoms: C_3  and  N_6
REMARK    5  A    between atoms: C_11  and  O_13
REMARK    6  A    between atoms: O_13  and  C_14
REMARK    7  A    between atoms: N_15  and  N_16
REMARK    8  A    between atoms: N_19  and  S_20
REMARK    9  A    between atoms: S_20  and  C_23
REMARK   10  A    between atoms: C_26  and  C_29
REMARK                            x       y       z     vdW  Elec       q    Type
REMARK                         _______ _______ _______ _____ _____    ______ ____
ROOT
ATOM      1  N   UNL     1      -0.964  -5.895  -7.784  0.00  0.00    -0.311 N 
ATOM      2  C   UNL     1       0.114  -5.196  -7.280  0.00  0.00    +0.223 A 
ATOM      3  N   UNL     1       0.123  -4.814  -6.007  0.00  0.00    -0.180 NA
ATOM      4  C   UNL     1       1.159  -4.136  -5.524  0.00  0.00    +0.239 A 
ATOM      5  N   UNL     1       2.191  -3.850  -6.313  0.00  0.00    -0.160 NA
ATOM      6  C   UNL     1       2.184  -4.237  -7.582  0.00  0.00    +0.324 A 
ATOM      7  N   UNL     1       1.147  -4.909  -8.067  0.00  0.00    -0.161 NA
ATOM      8  N   UNL     1       1.167  -3.735  -4.204  0.00  0.00    -0.233 N 
ATOM      9  H   UNL     1      -1.818  -6.132  -7.133  0.00  0.00    +0.149 HD
ATOM     10  H   UNL     1       0.313  -3.971  -3.552  0.00  0.00    +0.173 HD
ENDROOT
BRANCH   8  11
ATOM     11  N   UNL     1       2.262  -3.025  -3.694  0.00  0.00    -0.241 N 
ATOM     12  C   UNL     1       2.269  -2.633  -2.405  0.00  0.00    +0.202 C 
ATOM     13  S   UNL     1       3.608  -1.766  -1.781  0.00  0.00    -0.011 SA
ATOM     14  N   UNL     1       1.223  -2.923  -1.606  0.00  0.00    -0.104 NA
ATOM     15  H   UNL     1       3.116  -2.788  -4.346  0.00  0.00    +0.172 HD
BRANCH  14  16
ATOM     16  S   UNL     1       1.232  -2.441  -0.022  0.00  0.00    +0.101 S 
ATOM     17  O   UNL     1       2.489  -2.832   0.515  0.00  0.00    -0.146 OA
ATOM     18  O   UNL     1      -0.002  -2.866   0.539  0.00  0.00    -0.146 OA
BRANCH  16  19
ATOM     19  C   UNL     1       1.208  -0.679  -0.013  0.00  0.00    +0.113 A 
ATOM     20  C   UNL     1       0.002  -0.004   0.002  0.00  0.00    +0.029 A 
ATOM     21  C   UNL     1      -0.017   1.378   0.010  0.00  0.00    +0.005 A 
ATOM     22  C   UNL     1       1.171   2.086   0.002  0.00  0.00    -0.050 A 
ATOM     23  C   UNL     1       2.377   1.411  -0.015  0.00  0.00    +0.005 A 
ATOM     24  C   UNL     1       2.396   0.029  -0.021  0.00  0.00    +0.029 A 
ATOM     25  C   UNL     1       1.151   3.592   0.010  0.00  0.00    +0.044 C 
ENDBRANCH  16  19
ENDBRANCH  14  16
ENDBRANCH   8  11
BRANCH   1  26
ATOM     26  C   UNL     1      -0.970  -6.321  -9.185  0.00  0.00    +0.070 C 
ATOM     27  C   UNL     1      -0.232  -7.654  -9.317  0.00  0.00    +0.028 C 
BRANCH  26  29
ATOM     28  C   UNL     1      -3.118  -5.130  -9.647  0.00  0.00    +0.005 C 
ATOM     29  C   UNL     1      -2.415  -6.489  -9.661  0.00  0.00    +0.018 C 
ENDBRANCH  26  29
ENDBRANCH   1  26
BRANCH   6  30
ATOM     30  O   UNL     1       3.235  -3.945  -8.384  0.00  0.00    -0.466 OA
ATOM     31  C   UNL     1       4.317  -3.219  -7.797  0.00  0.00    +0.280 C 
ENDBRANCH   6  30
TORSDOF 6
