REMARK  Name = ZINC34750266
REMARK  3 active torsions:
REMARK  status: ('A' for Active; 'I' for Inactive)
REMARK    1  A    between atoms: C_6  and  N_7
REMARK    2  A    between atoms: C_8  and  C_10
REMARK    3  A    between atoms: C_10  and  N_11
REMARK                            x       y       z     vdW  Elec       q    Type
REMARK                         _______ _______ _______ _____ _____    ______ ____
ROOT
ATOM      1  N   UNL     1      -2.039  -4.240  -0.396  0.00  0.00    +0.387 N 
ATOM      2  C   UNL     1      -1.194  -4.643  -1.527  0.00  0.00    -0.059 C 
ATOM      3  C   UNL     1      -0.971  -6.158  -1.481  0.00  0.00    +0.088 C 
ATOM      4  N   UNL     1      -2.283  -6.822  -1.437  0.00  0.00    -0.318 N 
ATOM      5  C   UNL     1      -3.257  -6.365  -0.433  0.00  0.00    +0.088 C 
ATOM      6  C   UNL     1      -3.372  -4.840  -0.528  0.00  0.00    -0.059 C 
ATOM      7  C   UNL     1      -2.591  -7.847  -2.312  0.00  0.00    +0.133 A 
ATOM      8  C   UNL     1      -2.204  -9.185  -2.021  0.00  0.00    +0.051 A 
ATOM      9  C   UNL     1      -1.475  -9.696  -0.860  0.00  0.00    -0.025 A 
ATOM     10  C   UNL     1      -1.231 -11.022  -0.825  0.00  0.00    -0.004 A 
ATOM     11  S   UNL     1      -1.948 -11.663  -2.315  0.00  0.00    -0.073 S 
ATOM     12  C   UNL     1      -2.574 -10.145  -2.985  0.00  0.00    +0.114 A 
ATOM     13  N   UNL     1      -3.232  -9.807  -4.077  0.00  0.00    -0.228 NA
ATOM     14  C   UNL     1      -3.563  -8.549  -4.293  0.00  0.00    +0.224 A 
ATOM     15  N   UNL     1      -3.256  -7.598  -3.429  0.00  0.00    -0.220 NA
ATOM     16  C   UNL     1      -0.510 -11.785   0.244  0.00  0.00    +0.043 C 
ATOM     17  C   UNL     1       0.246 -10.783   1.128  0.00  0.00    +0.005 C 
ATOM     18  C   UNL     1      -0.707  -9.644   1.503  0.00  0.00    +0.005 C 
ATOM     19  C   UNL     1      -1.002  -8.787   0.272  0.00  0.00    +0.037 C 
ATOM     20  H   UNL     1      -1.615  -4.552   0.465  0.00  0.00    -0.081 HD
ENDROOT
BRANCH   1  21
ATOM     21  C   UNL     1      -2.162  -2.776  -0.376  0.00  0.00    +0.019 C 
BRANCH  21  23
ATOM     22  N   UNL     1      -0.681  -0.821  -0.056  0.00  0.00    -0.287 N 
ATOM     23  C   UNL     1      -0.811  -2.161  -0.117  0.00  0.00    +0.201 C 
ATOM     24  O   UNL     1       0.160  -2.873   0.036  0.00  0.00    -0.278 OA
ATOM     25  H   UNL     1      -1.466  -0.255  -0.112  0.00  0.00    +0.155 HD
BRANCH  22  31
ATOM     26  C   UNL     1       0.882   0.956  -0.540  0.00  0.00    +0.024 A 
ATOM     27  C   UNL     1       2.134   1.521  -0.396  0.00  0.00    +0.017 A 
ATOM     28  C   UNL     1       3.095   0.888   0.372  0.00  0.00    +0.018 A 
ATOM     29  C   UNL     1       2.805  -0.311   0.998  0.00  0.00    +0.017 A 
ATOM     30  C   UNL     1       1.555  -0.880   0.857  0.00  0.00    +0.024 A 
ATOM     31  C   UNL     1       0.588  -0.247   0.087  0.00  0.00    +0.033 A 
ATOM     32 BR   UNL     1       4.809   1.664   0.566  0.00  0.00    -0.050 Br
ENDBRANCH  22  31
ENDBRANCH  21  23
ENDBRANCH   1  21
TORSDOF 3
