REMARK  Name = ZINC64959268
REMARK  3 active torsions:
REMARK  status: ('A' for Active; 'I' for Inactive)
REMARK    1  A    between atoms: C_5  and  N_7
REMARK    2  A    between atoms: C_8  and  C_10
REMARK    3  A    between atoms: C_19  and  C_24
REMARK                            x       y       z     vdW  Elec       q    Type
REMARK                         _______ _______ _______ _____ _____    ______ ____
ROOT
ATOM      1  C   UNL     1       0.117  -4.240   0.190  0.00  0.00    +0.102 A 
ATOM      2  C   UNL     1      -1.058  -4.980   0.194  0.00  0.00    +0.031 A 
ATOM      3  C   UNL     1      -0.978  -6.385   0.295  0.00  0.00    +0.038 A 
ATOM      4  C   UNL     1       0.250  -7.018   0.396  0.00  0.00    +0.030 A 
ATOM      5  N   UNL     1       1.392  -6.301   0.386  0.00  0.00    -0.325 N 
ATOM      6  H   UNL     1       2.240  -6.766   0.450  0.00  0.00    +0.169 HD
ATOM      7  C   UNL     1       1.389  -4.961   0.284  0.00  0.00    +0.261 A 
ATOM      8  O   UNL     1       2.441  -4.348   0.276  0.00  0.00    -0.267 OA
ATOM      9  C   UNL     1       0.353  -8.516   0.526  0.00  0.00    +0.065 C 
ATOM     10  C   UNL     1      -0.888  -9.208  -0.029  0.00  0.00    +0.068 C 
ATOM     11  C   UNL     1      -2.135  -8.638   0.659  0.00  0.00    +0.091 C 
ATOM     12  C   UNL     1      -2.223  -7.173   0.288  0.00  0.00    +0.166 C 
ATOM     13  O   UNL     1      -3.284  -6.664  -0.007  0.00  0.00    -0.292 OA
ENDROOT
BRANCH  10  14
ATOM     14  C   UNL     1      -0.799 -10.689   0.236  0.00  0.00    +0.109 A 
ATOM     15  C   UNL     1      -0.791 -11.656  -0.699  0.00  0.00    +0.045 A 
ATOM     16  C   UNL     1      -0.695 -12.889  -0.013  0.00  0.00    +0.041 A 
ATOM     17  C   UNL     1      -0.650 -12.601   1.301  0.00  0.00    +0.195 A 
ATOM     18  O   UNL     1      -0.707 -11.267   1.445  0.00  0.00    -0.468 OA
ENDBRANCH  10  14
BRANCH   1  20
ATOM     19  N   UNL     1       1.236  -2.081  -0.035  0.00  0.00    -0.280 N 
ATOM     20  C   UNL     1       0.086  -2.772   0.088  0.00  0.00    +0.254 C 
ATOM     21  O   UNL     1      -0.978  -2.183   0.114  0.00  0.00    -0.270 OA
ATOM     22  H   UNL     1       2.079  -2.553  -0.124  0.00  0.00    +0.155 HD
BRANCH  19  27
ATOM     23  C   UNL     1       0.075   1.378  -0.489  0.00  0.00    +0.002 A 
ATOM     24  C   UNL     1       1.173   2.085  -0.033  0.00  0.00    +0.002 A 
ATOM     25  C   UNL     1       2.292   1.413   0.422  0.00  0.00    +0.022 A 
ATOM     26  C   UNL     1       2.316   0.031   0.423  0.00  0.00    +0.062 A 
ATOM     27  C   UNL     1       1.215  -0.682  -0.034  0.00  0.00    +0.052 A 
ATOM     28  C   UNL     1       0.093  -0.003  -0.491  0.00  0.00    +0.025 A 
ATOM     29 CL   UNL     1       3.722  -0.813   0.995  0.00  0.00    -0.082 Cl
ENDBRANCH  19  27
ENDBRANCH   1  20
TORSDOF 3
