REMARK  Name = ZINC00717432
REMARK  4 active torsions:
REMARK  status: ('A' for Active; 'I' for Inactive)
REMARK    1  A    between atoms: C_6  and  C_7
REMARK    2  A    between atoms: C_14  and  N_30
REMARK    3  A    between atoms: C_15  and  C_28
REMARK    4  A    between atoms: C_16  and  C_18
REMARK                            x       y       z     vdW  Elec       q    Type
REMARK                         _______ _______ _______ _____ _____    ______ ____
ROOT
ATOM      1  C   UNL     1      -1.625  -1.141   0.190  0.00  0.00    +0.100 A 
ATOM      2  C   UNL     1      -1.672  -2.202  -0.719  0.00  0.00    +0.054 A 
ATOM      3  C   UNL     1      -2.909  -2.773  -0.637  0.00  0.00    +0.223 A 
ATOM      4  N   UNL     1      -3.613  -2.095   0.293  0.00  0.00    -0.246 N 
ATOM      5  H   UNL     1      -4.526  -2.280   0.564  0.00  0.00    +0.192 HD
ATOM      6  N   UNL     1      -2.791  -1.079   0.804  0.00  0.00    -0.171 NA
ATOM      7  O   UNL     1      -3.277  -3.834  -1.398  0.00  0.00    -0.423 OA
ATOM      8  C   UNL     1      -2.491  -4.154  -2.446  0.00  0.00    +0.200 C 
ATOM      9  C   UNL     1      -1.245  -3.664  -2.628  0.00  0.00    +0.098 C 
ATOM     10  C   UNL     1      -0.606  -2.700  -1.659  0.00  0.00    +0.103 C 
ENDROOT
BRANCH  10  11
ATOM     11  C   UNL     1       0.472  -3.406  -0.877  0.00  0.00    -0.017 A 
ATOM     12  C   UNL     1       0.137  -4.427  -0.007  0.00  0.00    +0.055 A 
ATOM     13  C   UNL     1       1.126  -5.076   0.713  0.00  0.00    +0.167 A 
ATOM     14  C   UNL     1       2.458  -4.699   0.558  0.00  0.00    +0.167 A 
ATOM     15  C   UNL     1       2.787  -3.676  -0.316  0.00  0.00    +0.065 A 
ATOM     16  C   UNL     1       1.795  -3.035  -1.036  0.00  0.00    +0.026 A 
ATOM     17 BR   UNL     1       2.248  -1.643  -2.234  0.00  0.00    -0.050 Br
ATOM     18  O   UNL     1       3.230  -5.481   1.367  0.00  0.00    -0.453 OA
ATOM     19  C   UNL     1       2.321  -6.062   2.321  0.00  0.00    +0.466 C 
ATOM     20  O   UNL     1       1.064  -6.095   1.620  0.00  0.00    -0.453 OA
ENDBRANCH  10  11
BRANCH   1  26
ATOM     21  C   UNL     1       0.280   0.263  -0.640  0.00  0.00    +0.030 A 
ATOM     22  C   UNL     1       1.350   1.092  -0.375  0.00  0.00    +0.111 A 
ATOM     23  N   UNL     1       1.673   1.405   0.866  0.00  0.00    -0.263 NA
ATOM     24  C   UNL     1       0.997   0.946   1.901  0.00  0.00    +0.111 A 
ATOM     25  C   UNL     1      -0.088   0.111   1.725  0.00  0.00    +0.030 A 
ATOM     26  C   UNL     1      -0.465  -0.246   0.428  0.00  0.00    +0.005 A 
ENDBRANCH   1  26
BRANCH   8  27
ATOM     27  N   UNL     1      -2.985  -5.029  -3.381  0.00  0.00    -0.328 N 
ATOM     28  H   UNL     1      -3.876  -5.398  -3.277  0.00  0.00    +0.145 HD
ATOM     29  H   UNL     1      -2.443  -5.279  -4.146  0.00  0.00    +0.145 HD
ENDBRANCH   8  27
BRANCH   9  30
ATOM     30  C   UNL     1      -0.504  -4.074  -3.783  0.00  0.00    +0.101 C 
ATOM     31  N   UNL     1       0.083  -4.400  -4.699  0.00  0.00    -0.191 NA
ENDBRANCH   9  30
TORSDOF 4
