REMARK  Name = ZINC12446808
REMARK  3 active torsions:
REMARK  status: ('A' for Active; 'I' for Inactive)
REMARK    1  A    between atoms: C_1  and  C_2
REMARK    2  A    between atoms: C_7  and  S_8
REMARK    3  A    between atoms: S_8  and  N_11
REMARK                            x       y       z     vdW  Elec       q    Type
REMARK                         _______ _______ _______ _____ _____    ______ ____
ROOT
ATOM      1  S   UNL     1      -0.044  -1.673  -2.146  0.00  0.00    +0.075 S 
ATOM      2  O   UNL     1       0.928  -2.235  -3.017  0.00  0.00    -0.150 OA
ATOM      3  O   UNL     1      -0.725  -2.443  -1.166  0.00  0.00    -0.150 OA
ENDROOT
BRANCH   1  10
ATOM      4  C   UNL     1      -2.457  -0.190  -1.099  0.00  0.00    +0.046 C 
ATOM      5  C   UNL     1      -2.353  -0.292  -2.599  0.00  0.00    -0.020 A 
ATOM      6  C   UNL     1      -3.326   0.281  -3.398  0.00  0.00    +0.052 A 
ATOM      7  C   UNL     1      -3.234   0.183  -4.774  0.00  0.00    +0.143 A 
ATOM      8  C   UNL     1      -2.158  -0.489  -5.352  0.00  0.00    +0.078 A 
ATOM      9  C   UNL     1      -1.183  -1.055  -4.548  0.00  0.00    +0.056 A 
ATOM     10  C   UNL     1      -1.282  -0.953  -3.172  0.00  0.00    +0.114 A 
ATOM     11  N   UNL     1      -2.077  -0.582  -6.749  0.00  0.00    -0.280 N 
ATOM     12  C   UNL     1      -2.848   0.230  -7.505  0.00  0.00    +0.255 C 
ATOM     13  O   UNL     1      -2.818   0.146  -8.714  0.00  0.00    -0.272 OA
ATOM     14  C   UNL     1      -3.746   1.242  -6.838  0.00  0.00    +0.325 C 
ATOM     15  O   UNL     1      -4.184   0.736  -5.575  0.00  0.00    -0.481 OA
ATOM     16  H   UNL     1      -1.478  -1.220  -7.166  0.00  0.00    +0.155 HD
ENDBRANCH   1  10
BRANCH   1  17
ATOM     17  N   UNL     1       0.704  -0.435  -1.339  0.00  0.00    -0.203 N 
ATOM     18  C   UNL     1       0.555  -0.294   0.116  0.00  0.00    +0.132 C 
ATOM     19  C   UNL     1       0.286   1.185   0.419  0.00  0.00    +0.025 C 
ATOM     20  C   UNL     1       1.502   2.006  -0.010  0.00  0.00    +0.038 C 
ATOM     21  C   UNL     1       1.885   1.679  -1.429  0.00  0.00    -0.024 A 
ATOM     22  C   UNL     1       1.488   0.495  -2.032  0.00  0.00    +0.054 A 
ATOM     23  C   UNL     1       1.867   0.219  -3.340  0.00  0.00    +0.026 A 
ATOM     24  C   UNL     1       2.637   1.125  -4.043  0.00  0.00    +0.017 A 
ATOM     25  C   UNL     1       3.029   2.308  -3.442  0.00  0.00    +0.018 A 
ATOM     26  C   UNL     1       2.654   2.584  -2.141  0.00  0.00    +0.020 A 
ATOM     27 BR   UNL     1       4.081   3.550  -4.405  0.00  0.00    -0.050 Br
ENDBRANCH   1  17
TORSDOF 2
