REMARK  Name = ZINC38577252
REMARK  10 active torsions:
REMARK  status: ('A' for Active; 'I' for Inactive)
REMARK    1  A    between atoms: C_1  and  C_2
REMARK    2  A    between atoms: C_5  and  C_9
REMARK    3  A    between atoms: C_6  and  O_8
REMARK    4  A    between atoms: C_11  and  C_15
REMARK    5  A    between atoms: N_17  and  C_18
REMARK    6  A    between atoms: C_21  and  S_24
REMARK    7  A    between atoms: S_24  and  N_27
REMARK    8  A    between atoms: N_27  and  C_28
REMARK    9  A    between atoms: C_30  and  C_36
REMARK   10  A    between atoms: C_32  and  C_35
REMARK                            x       y       z     vdW  Elec       q    Type
REMARK                         _______ _______ _______ _____ _____    ______ ____
ROOT
ATOM      1  C   UNL     1       0.651  -7.067   3.091  0.00  0.00    +0.248 C 
ATOM      2  O   UNL     1       0.979  -7.066   4.259  0.00  0.00    -0.273 OA
ATOM      3  N   UNL     1       1.407  -7.712   2.180  0.00  0.00    -0.283 N 
ATOM      4  H   UNL     1       1.111  -7.770   1.258  0.00  0.00    +0.155 HD
ENDROOT
BRANCH   3   5
ATOM      5  C   UNL     1       2.619  -8.297   2.564  0.00  0.00    +0.034 A 
ATOM      6  C   UNL     1       3.698  -8.298   1.690  0.00  0.00    +0.025 A 
ATOM      7  C   UNL     1       4.893  -8.876   2.072  0.00  0.00    +0.030 A 
ATOM      8  C   UNL     1       5.015  -9.454   3.323  0.00  0.00    +0.105 A 
ATOM      9  C   UNL     1       3.942  -9.454   4.195  0.00  0.00    +0.030 A 
ATOM     10  C   UNL     1       2.747  -8.872   3.821  0.00  0.00    +0.025 A 
BRANCH   8  11
ATOM     11  S   UNL     1       6.541 -10.190   3.806  0.00  0.00    +0.061 S 
ATOM     12  O   UNL     1       6.231 -11.142   4.814  0.00  0.00    -0.153 OA
ATOM     13  O   UNL     1       7.219 -10.543   2.608  0.00  0.00    -0.153 OA
BRANCH  11  14
ATOM     14  N   UNL     1       7.447  -9.009   4.533  0.00  0.00    -0.149 NA
ATOM     15  H   UNL     1       8.275  -8.714   4.125  0.00  0.00    +0.152 HD
BRANCH  14  16
ATOM     16  C   UNL     1       6.995  -8.411   5.792  0.00  0.00    +0.301 C 
ATOM     17  C   UNL     1       7.542  -6.971   5.949  0.00  0.00    +0.093 C 
ATOM     18  C   UNL     1       7.854  -6.899   7.431  0.00  0.00    +0.062 C 
ATOM     19  N   UNL     1       7.864  -8.086   7.900  0.00  0.00    -0.092 NA
ATOM     20  O   UNL     1       7.595  -9.073   6.924  0.00  0.00    -0.373 OA
ATOM     21  C   UNL     1       8.109  -5.639   8.218  0.00  0.00    +0.064 C 
ATOM     22  C   UNL     1       8.808  -6.776   5.112  0.00  0.00    +0.019 C 
ENDBRANCH  14  16
ENDBRANCH  11  14
ENDBRANCH   8  11
ENDBRANCH   3   5
BRANCH   1  25
ATOM     23  C   UNL     1      -2.664  -6.918   3.380  0.00  0.00    +0.095 C 
ATOM     24  C   UNL     1      -1.747  -7.328   2.481  0.00  0.00    +0.041 C 
ATOM     25  C   UNL     1      -0.601  -6.349   2.659  0.00  0.00    +0.239 C 
ATOM     26  N   UNL     1      -1.085  -5.455   3.724  0.00  0.00    -0.170 NA
ATOM     27  N   UNL     1      -2.212  -5.829   4.055  0.00  0.00    -0.153 NA
BRANCH  23  32
ATOM     28  C   UNL     1      -7.790  -9.412   4.223  0.00  0.00    +0.044 C 
ATOM     29  C   UNL     1      -6.448  -8.762   4.001  0.00  0.00    -0.047 A 
ATOM     30  C   UNL     1      -6.087  -7.654   4.747  0.00  0.00    +0.004 A 
ATOM     31  C   UNL     1      -4.861  -7.052   4.550  0.00  0.00    +0.014 A 
ATOM     32  C   UNL     1      -3.983  -7.561   3.596  0.00  0.00    +0.043 A 
ATOM     33  C   UNL     1      -4.350  -8.681   2.844  0.00  0.00    +0.126 A 
ATOM     34  C   UNL     1      -5.582  -9.278   3.056  0.00  0.00    +0.049 A 
BRANCH  33  35
ATOM     35  O   UNL     1      -3.500  -9.185   1.911  0.00  0.00    -0.506 OA
ATOM     36  H   UNL     1      -2.896  -9.859   2.253  0.00  0.00    +0.292 HD
ENDBRANCH  33  35
ENDBRANCH  23  32
ENDBRANCH   1  25
TORSDOF 7
