REMARK  Name = ZINC13543403
REMARK  8 active torsions:
REMARK  status: ('A' for Active; 'I' for Inactive)
REMARK    1  A    between atoms: C_1  and  C_2
REMARK    2  A    between atoms: C_5  and  N_9
REMARK    3  A    between atoms: C_6  and  C_8
REMARK    4  A    between atoms: N_11  and  C_12
REMARK    5  A    between atoms: C_12  and  C_13
REMARK    6  A    between atoms: N_17  and  C_19
REMARK    7  A    between atoms: C_22  and  O_25
REMARK    8  A    between atoms: O_25  and  C_26
REMARK                            x       y       z     vdW  Elec       q    Type
REMARK                         _______ _______ _______ _____ _____    ______ ____
ROOT
ATOM      1  N   UNL     1       0.059  -4.169  -0.021  0.00  0.00    -0.295 N 
ATOM      2  C   UNL     1      -0.041  -4.848  -1.204  0.00  0.00    +0.143 C 
ATOM      3  N   UNL     1      -0.125  -6.212  -1.205  0.00  0.00    -0.367 N 
ATOM      4  S   UNL     1      -0.059  -4.015  -2.640  0.00  0.00    -0.016 SA
ATOM      5  H   UNL     1      -0.514  -4.407   0.725  0.00  0.00    +0.154 HD
ATOM      6  H   UNL     1      -0.114  -6.699  -0.366  0.00  0.00    +0.161 HD
ENDROOT
BRANCH   1  11
ATOM      7  C   UNL     1       3.827   0.036   0.527  0.00  0.00    +0.044 C 
ATOM      8  C   UNL     1       2.826  -1.081   0.381  0.00  0.00    -0.050 A 
ATOM      9  C   UNL     1       2.835  -1.872  -0.753  0.00  0.00    +0.005 A 
ATOM     10  C   UNL     1       1.919  -2.897  -0.889  0.00  0.00    +0.024 A 
ATOM     11  C   UNL     1       0.989  -3.132   0.114  0.00  0.00    +0.036 A 
ATOM     12  C   UNL     1       0.982  -2.336   1.252  0.00  0.00    -0.029 A 
ATOM     13  C   UNL     1       1.904  -1.316   1.384  0.00  0.00    +0.008 A 
ATOM     14  C   UNL     1      -0.026  -2.588   2.343  0.00  0.00    +0.045 C 
ENDBRANCH   1  11
BRANCH   3  15
ATOM     15  C   UNL     1      -0.232  -6.939  -2.472  0.00  0.00    +0.119 C 
BRANCH  15  16
ATOM     16  C   UNL     1      -0.311  -8.442  -2.193  0.00  0.00    +0.027 C 
ATOM     17  C   UNL     1       1.043  -8.981  -1.662  0.00  0.00    +0.025 C 
ATOM     18  C   UNL     1       1.014 -10.465  -2.085  0.00  0.00    +0.105 C 
ATOM     19  N   UNL     1       0.067 -10.581  -3.203  0.00  0.00    -0.330 N 
ATOM     20  C   UNL     1      -0.471  -9.243  -3.509  0.00  0.00    +0.110 C 
BRANCH  19  21
ATOM     21  C   UNL     1      -0.268 -11.766  -3.868  0.00  0.00    +0.030 A 
ATOM     22  C   UNL     1      -1.176 -11.741  -4.918  0.00  0.00    +0.027 A 
ATOM     23  C   UNL     1      -1.505 -12.911  -5.575  0.00  0.00    +0.047 A 
ATOM     24  C   UNL     1      -0.929 -14.111  -5.185  0.00  0.00    +0.120 A 
ATOM     25  C   UNL     1      -0.022 -14.137  -4.136  0.00  0.00    +0.047 A 
ATOM     26  C   UNL     1       0.313 -12.967  -3.482  0.00  0.00    +0.027 A 
BRANCH  24  27
ATOM     27  O   UNL     1      -1.254 -15.262  -5.832  0.00  0.00    -0.495 OA
ATOM     28  C   UNL     1      -0.623 -16.461  -5.378  0.00  0.00    +0.277 C 
ENDBRANCH  24  27
ENDBRANCH  19  21
ENDBRANCH  15  16
ENDBRANCH   3  15
TORSDOF 5
