REMARK  Name = ZINC14809695
REMARK  9 active torsions:
REMARK  status: ('A' for Active; 'I' for Inactive)
REMARK    1  A    between atoms: C_1  and  C_2
REMARK    2  A    between atoms: C_4  and  C_8
REMARK    3  A    between atoms: C_5  and  C_7
REMARK    4  A    between atoms: C_10  and  C_20
REMARK    5  A    between atoms: N_14  and  C_17
REMARK    6  A    between atoms: C_17  and  C_18
REMARK    7  A    between atoms: C_17  and  C_19
REMARK    8  A    between atoms: N_22  and  C_23
REMARK    9  A    between atoms: C_32  and  C_35
REMARK                            x       y       z     vdW  Elec       q    Type
REMARK                         _______ _______ _______ _____ _____    ______ ____
ROOT
ATOM      1  C   UNL     1       1.128  -2.103  -0.040  0.00  0.00    +0.075 A 
ATOM      2  C   UNL     1       1.167  -0.704  -0.037  0.00  0.00    +0.042 A 
ATOM      3  C   UNL     1      -0.009   0.008   0.164  0.00  0.00    +0.051 A 
ATOM      4  C   UNL     1      -1.205  -0.725   0.346  0.00  0.00    +0.051 A 
ATOM      5  C   UNL     1      -2.550  -0.359   0.564  0.00  0.00    +0.145 A 
ATOM      6  N   UNL     1      -3.265  -1.443   0.667  0.00  0.00    -0.177 NA
ATOM      7  N   UNL     1      -2.443  -2.567   0.524  0.00  0.00    -0.244 N 
ATOM      8  C   UNL     1      -1.157  -2.133   0.324  0.00  0.00    +0.160 A 
ATOM      9  N   UNL     1      -0.006  -2.761   0.134  0.00  0.00    -0.227 NA
ENDROOT
BRANCH   1  13
ATOM     10  C   UNL     1       6.124  -2.513  -0.839  0.00  0.00    +0.051 C 
ATOM     11  C   UNL     1       4.702  -2.957  -0.618  0.00  0.00    -0.012 A 
ATOM     12  C   UNL     1       3.595  -2.202  -0.439  0.00  0.00    +0.021 A 
ATOM     13  C   UNL     1       2.383  -2.863  -0.247  0.00  0.00    +0.011 A 
ATOM     14  C   UNL     1       2.380  -4.228  -0.261  0.00  0.00    -0.004 A 
ATOM     15  S   UNL     1       4.048  -4.614  -0.531  0.00  0.00    -0.098 S 
ATOM     16  C   UNL     1       1.215  -5.167  -0.084  0.00  0.00    +0.052 C 
ENDBRANCH   1  13
BRANCH   3  17
ATOM     17  C   UNL     1      -0.012   1.486   0.179  0.00  0.00    +0.249 C 
ATOM     18  O   UNL     1      -1.053   2.091   0.346  0.00  0.00    -0.270 OA
ATOM     19  N   UNL     1       1.140   2.164   0.003  0.00  0.00    -0.281 N 
ATOM     20  H   UNL     1       1.981   1.684  -0.056  0.00  0.00    +0.155 HD
BRANCH  19  21
ATOM     21  C   UNL     1       1.122   3.560  -0.095  0.00  0.00    +0.036 A 
ATOM     22  C   UNL     1       2.185   4.304   0.400  0.00  0.00    +0.027 A 
ATOM     23  C   UNL     1       2.172   5.683   0.305  0.00  0.00    +0.049 A 
ATOM     24  C   UNL     1       1.098   6.326  -0.285  0.00  0.00    +0.143 A 
ATOM     25  C   UNL     1       0.029   5.582  -0.782  0.00  0.00    +0.077 A 
ATOM     26  C   UNL     1       0.044   4.200  -0.693  0.00  0.00    +0.050 A 
ATOM     27  N   UNL     1      -1.053   6.248  -1.376  0.00  0.00    -0.279 N 
ATOM     28  C   UNL     1      -0.906   7.541  -1.738  0.00  0.00    +0.258 C 
ATOM     29  O   UNL     1      -1.838   8.146  -2.226  0.00  0.00    -0.271 OA
ATOM     30  C   UNL     1       0.419   8.229  -1.534  0.00  0.00    +0.256 C 
ATOM     31  O   UNL     1       1.073   7.683  -0.386  0.00  0.00    -0.478 OA
ATOM     32  C   UNL     1       1.298   8.019  -2.769  0.00  0.00    +0.062 C 
ATOM     33  H   UNL     1      -1.893   5.787  -1.524  0.00  0.00    +0.155 HD
ENDBRANCH  19  21
ENDBRANCH   3  17
BRANCH   7  34
ATOM     34  C   UNL     1      -2.880  -3.964   0.578  0.00  0.00    +0.103 C 
ATOM     35  C   UNL     1      -3.514  -4.247   1.941  0.00  0.00    +0.032 C 
ATOM     36  C   UNL     1      -3.908  -4.220  -0.526  0.00  0.00    +0.032 C 
ENDBRANCH   7  34
TORSDOF 4
