REMARK  Name = ZINC10337029
REMARK  3 active torsions:
REMARK  status: ('A' for Active; 'I' for Inactive)
REMARK    1  A    between atoms: C_1  and  C_2
REMARK    2  A    between atoms: C_5  and  C_8
REMARK    3  A    between atoms: C_26  and  C_28
REMARK                            x       y       z     vdW  Elec       q    Type
REMARK                         _______ _______ _______ _____ _____    ______ ____
ROOT
ATOM      1  C   UNL     1       0.059  -4.275  -0.021  0.00  0.00    +0.234 C 
ATOM      2  C   UNL     1      -1.345  -4.790   0.097  0.00  0.00    +0.027 C 
ATOM      3  C   UNL     1      -1.889  -5.029   1.308  0.00  0.00    +0.083 C 
ATOM      4  C   UNL     1      -1.044  -4.774   2.502  0.00  0.00    +0.044 A 
ATOM      5  C   UNL     1      -1.594  -4.673   3.772  0.00  0.00    +0.033 A 
ATOM      6  C   UNL     1      -0.769  -4.432   4.856  0.00  0.00    +0.042 A 
ATOM      7  C   UNL     1       0.597  -4.293   4.674  0.00  0.00    +0.023 A 
ATOM      8  C   UNL     1       1.151  -4.393   3.411  0.00  0.00    +0.048 A 
ATOM      9  C   UNL     1       0.338  -4.634   2.318  0.00  0.00    +0.131 A 
ATOM     10  O   UNL     1       0.853  -4.744   1.071  0.00  0.00    -0.479 OA
ATOM     11 CL   UNL     1      -1.447  -4.305   6.448  0.00  0.00    -0.084 Cl
ATOM     12  N   UNL     1      -3.160  -5.488   1.437  0.00  0.00    -0.213 NA
ATOM     13  C   UNL     1      -3.954  -5.743   0.430  0.00  0.00    +0.232 C 
ATOM     14  N   UNL     1      -5.233  -6.202   0.346  0.00  0.00    -0.231 N 
ATOM     15  N   UNL     1      -5.582  -6.293  -0.888  0.00  0.00    -0.086 NA
ATOM     16  N   UNL     1      -4.629  -5.926  -1.675  0.00  0.00    -0.165 N 
ATOM     17  N   UNL     1      -3.546  -5.556  -0.877  0.00  0.00    -0.193 N 
ATOM     18  C   UNL     1      -2.190  -5.057  -1.130  0.00  0.00    +0.162 C 
ATOM     19  H   UNL     1      -4.659  -5.910  -2.644  0.00  0.00    +0.195 HD
ATOM     20  H   UNL     1      -5.796  -6.427   1.103  0.00  0.00    +0.193 HD
ENDROOT
BRANCH   1  25
ATOM     21  C   UNL     1      -0.018   1.503   0.010  0.00  0.00    +0.044 C 
ATOM     22  C   UNL     1       0.002  -0.004   0.002  0.00  0.00    -0.050 A 
ATOM     23  C   UNL     1       0.006  -0.689  -1.199  0.00  0.00    +0.004 A 
ATOM     24  C   UNL     1       0.025  -2.071  -1.206  0.00  0.00    +0.008 A 
ATOM     25  C   UNL     1       0.040  -2.768  -0.013  0.00  0.00    -0.003 A 
ATOM     26  C   UNL     1       0.037  -2.084   1.188  0.00  0.00    +0.008 A 
ATOM     27  C   UNL     1       0.023  -0.702   1.195  0.00  0.00    +0.004 A 
ENDBRANCH   1  25
BRANCH  18  28
ATOM     28  C   UNL     1      -1.470  -6.065  -1.988  0.00  0.00    -0.003 A 
ATOM     29  C   UNL     1      -0.736  -5.652  -3.090  0.00  0.00    +0.009 A 
ATOM     30  C   UNL     1      -0.090  -6.614  -3.850  0.00  0.00    +0.020 A 
ATOM     31  C   UNL     1      -0.197  -7.943  -3.487  0.00  0.00    +0.111 A 
ATOM     32  N   UNL     1      -0.904  -8.300  -2.433  0.00  0.00    -0.263 NA
ATOM     33  C   UNL     1      -1.527  -7.411  -1.683  0.00  0.00    +0.116 A 
ENDBRANCH  18  28
TORSDOF 2
