REMARK  Name = ZINC53123550
REMARK  15 active torsions:
REMARK  status: ('A' for Active; 'I' for Inactive)
REMARK    1  A    between atoms: C_1  and  C_2
REMARK    2  A    between atoms: C_4  and  S_22
REMARK    3  A    between atoms: C_6  and  N_9
REMARK    4  A    between atoms: C_7  and  C_8
REMARK    5  A    between atoms: C_10  and  C_12
REMARK    6  A    between atoms: C_12  and  N_13
REMARK    7  A    between atoms: N_13  and  C_14
REMARK    8  A    between atoms: C_14  and  C_15
REMARK    9  A    between atoms: C_14  and  C_16
REMARK   10  A    between atoms: C_14  and  C_17
REMARK   11  A    between atoms: C_17  and  C_18
REMARK   12  A    between atoms: C_18  and  C_19
REMARK   13  A    between atoms: C_18  and  C_20
REMARK   14  A    between atoms: C_18  and  C_21
REMARK   15  A    between atoms: S_22  and  N_25
REMARK                            x       y       z     vdW  Elec       q    Type
REMARK                         _______ _______ _______ _____ _____    ______ ____
ROOT
ATOM      1  N   UNL     1       0.910  -3.887   1.681  0.00  0.00    -0.287 N 
ATOM      2  C   UNL     1       0.562  -5.141   2.030  0.00  0.00    +0.200 C 
ATOM      3  O   UNL     1       0.157  -5.914   1.187  0.00  0.00    -0.278 OA
ATOM      4  H   UNL     1       1.314  -3.296   2.336  0.00  0.00    +0.155 HD
ENDROOT
BRANCH   1  10
ATOM      5  C   UNL     1       1.961  -0.737  -1.944  0.00  0.00    +0.044 C 
ATOM      6  C   UNL     1       1.185  -1.912  -1.408  0.00  0.00    -0.044 A 
ATOM      7  C   UNL     1       0.253  -2.547  -2.209  0.00  0.00    +0.032 A 
ATOM      8  C   UNL     1      -0.461  -3.626  -1.721  0.00  0.00    +0.107 A 
ATOM      9  C   UNL     1      -0.245  -4.072  -0.431  0.00  0.00    +0.052 A 
ATOM     10  C   UNL     1       0.690  -3.437   0.374  0.00  0.00    +0.038 A 
ATOM     11  C   UNL     1       1.409  -2.357  -0.120  0.00  0.00    -0.026 A 
ATOM     12  C   UNL     1       2.429  -1.668   0.749  0.00  0.00    +0.046 C 
BRANCH   8  13
ATOM     13  S   UNL     1      -1.648  -4.431  -2.744  0.00  0.00    +0.056 S 
ATOM     14  O   UNL     1      -2.571  -5.068  -1.871  0.00  0.00    -0.153 OA
ATOM     15  O   UNL     1      -2.054  -3.481  -3.720  0.00  0.00    -0.153 OA
BRANCH  13  16
ATOM     16  N   UNL     1      -0.856  -5.637  -3.557  0.00  0.00    -0.204 NA
ATOM     17  H   UNL     1       0.093  -5.777  -3.412  0.00  0.00    +0.144 HD
ATOM     18  H   UNL     1      -1.341  -6.202  -4.178  0.00  0.00    +0.144 HD
ENDBRANCH  13  16
ENDBRANCH   8  13
ENDBRANCH   1  10
BRANCH   2  19
ATOM     19  C   UNL     1       0.677  -5.584   3.466  0.00  0.00    +0.016 C 
BRANCH  19  20
ATOM     20  N   UNL     1       0.240  -6.981   3.584  0.00  0.00    +0.388 N 
ATOM     21  H   UNL     1      -0.720  -7.060   3.283  0.00  0.00    -0.084 HD
ATOM     22  H   UNL     1       0.823  -7.566   3.004  0.00  0.00    -0.084 HD
BRANCH  20  23
ATOM     23  C   UNL     1       0.352  -7.412   4.984  0.00  0.00    -0.073 C 
ATOM     24  C   UNL     1       1.765  -7.124   5.495  0.00  0.00    -0.010 C 
ATOM     25  C   UNL     1      -0.664  -6.649   5.835  0.00  0.00    -0.010 C 
BRANCH  23  26
ATOM     26  C   UNL     1       0.071  -8.913   5.079  0.00  0.00    -0.007 C 
BRANCH  26  27
ATOM     27  C   UNL     1      -1.133  -9.264   4.203  0.00  0.00    -0.039 C 
ATOM     28  C   UNL     1      -0.705  -9.291   2.735  0.00  0.00    +0.010 C 
ATOM     29  C   UNL     1      -1.672 -10.639   4.603  0.00  0.00    +0.010 C 
ATOM     30  C   UNL     1      -2.227  -8.211   4.396  0.00  0.00    +0.010 C 
ENDBRANCH  26  27
ENDBRANCH  23  26
ENDBRANCH  20  23
ENDBRANCH  19  20
ENDBRANCH   2  19
TORSDOF 8
