REMARK  Name = ZINC36648987
REMARK  10 active torsions:
REMARK  status: ('A' for Active; 'I' for Inactive)
REMARK    1  A    between atoms: C_1  and  C_2
REMARK    2  A    between atoms: C_2  and  N_3
REMARK    3  A    between atoms: N_3  and  C_4
REMARK    4  A    between atoms: N_3  and  C_6
REMARK    5  A    between atoms: C_4  and  C_5
REMARK    6  A    between atoms: C_6  and  C_7
REMARK    7  A    between atoms: C_7  and  N_8
REMARK    8  A    between atoms: N_17  and  C_18
REMARK    9  A    between atoms: C_18  and  C_20
REMARK   10  A    between atoms: C_27  and  C_29
REMARK                            x       y       z     vdW  Elec       q    Type
REMARK                         _______ _______ _______ _____ _____    ______ ____
ROOT
ATOM      1  N   UNL     1       2.363  -3.383  -0.473  0.00  0.00    -0.314 N 
ATOM      2  C   UNL     1       3.433  -4.042   0.122  0.00  0.00    +0.068 A 
ATOM      3  C   UNL     1       4.616  -3.600   0.699  0.00  0.00    +0.028 A 
ATOM      4  C   UNL     1       5.510  -4.514   1.221  0.00  0.00    +0.002 A 
ATOM      5  C   UNL     1       5.231  -5.870   1.171  0.00  0.00    +0.002 A 
ATOM      6  C   UNL     1       4.058  -6.319   0.600  0.00  0.00    +0.028 A 
ATOM      7  C   UNL     1       3.153  -5.409   0.073  0.00  0.00    +0.066 A 
ATOM      8  N   UNL     1       1.918  -5.552  -0.551  0.00  0.00    -0.326 N 
ATOM      9  C   UNL     1       1.455  -4.314  -0.868  0.00  0.00    +0.201 A 
ATOM     10  N   UNL     1       0.299  -4.054  -1.473  0.00  0.00    -0.146 NA
ATOM     11  H   UNL     1       1.463  -6.390  -0.727  0.00  0.00    +0.169 HD
ENDROOT
BRANCH  10  12
ATOM     12  C   UNL     1      -0.566  -5.038  -1.703  0.00  0.00    +0.244 C 
ATOM     13  O   UNL     1      -0.341  -6.156  -1.282  0.00  0.00    -0.273 OA
BRANCH  12  14
ATOM     14  C   UNL     1      -1.824  -4.766  -2.486  0.00  0.00    +0.094 C 
ATOM     15  C   UNL     1      -2.638  -6.057  -2.609  0.00  0.00    +0.016 C 
ATOM     16  C   UNL     1      -3.932  -5.775  -3.376  0.00  0.00    +0.020 C 
ATOM     17  C   UNL     1      -3.588  -5.284  -4.786  0.00  0.00    +0.108 C 
ATOM     18  N   UNL     1      -2.687  -4.128  -4.678  0.00  0.00    -0.297 N 
ATOM     19  C   UNL     1      -1.457  -4.263  -3.886  0.00  0.00    +0.121 C 
ATOM     20  C   UNL     1      -2.983  -2.967  -5.294  0.00  0.00    +0.247 C 
ATOM     21  O   UNL     1      -2.198  -2.040  -5.253  0.00  0.00    -0.270 OA
BRANCH  20  22
ATOM     22  C   UNL     1      -4.263  -2.820  -6.018  0.00  0.00    +0.037 A 
ATOM     23  C   UNL     1      -4.988  -1.630  -5.926  0.00  0.00    +0.014 A 
ATOM     24  C   UNL     1      -6.181  -1.498  -6.605  0.00  0.00    +0.021 A 
ATOM     25  C   UNL     1      -6.660  -2.544  -7.377  0.00  0.00    +0.041 A 
ATOM     26  C   UNL     1      -5.946  -3.726  -7.472  0.00  0.00    +0.021 A 
ATOM     27  C   UNL     1      -4.749  -3.868  -6.803  0.00  0.00    +0.014 A 
ATOM     28 CL   UNL     1      -8.164  -2.371  -8.227  0.00  0.00    -0.084 Cl
ENDBRANCH  20  22
ENDBRANCH  12  14
ENDBRANCH  10  12
BRANCH   1  29
ATOM     29  C   UNL     1       2.234  -1.933  -0.640  0.00  0.00    +0.106 C 
BRANCH  29  30
ATOM     30  C   UNL     1       1.537  -1.339   0.586  0.00  0.00    -0.057 C 
BRANCH  30  31
ATOM     31  N   UNL     1       1.407   0.115   0.418  0.00  0.00    +0.380 N 
ATOM     32  H   UNL     1       2.316   0.515   0.238  0.00  0.00    -0.082 HD
BRANCH  31  34
ATOM     33  C   UNL     1       0.460   1.910  -0.952  0.00  0.00    -0.017 C 
ATOM     34  C   UNL     1       0.514   0.400  -0.713  0.00  0.00    -0.082 C 
ENDBRANCH  31  34
BRANCH  31  35
ATOM     35  C   UNL     1       0.848   0.701   1.644  0.00  0.00    -0.082 C 
ATOM     36  C   UNL     1       1.828   0.496   2.800  0.00  0.00    -0.017 C 
ENDBRANCH  31  35
ENDBRANCH  30  31
ENDBRANCH  29  30
ENDBRANCH   1  29
TORSDOF 8
