REMARK  Name = ZINC45260746
REMARK  12 active torsions:
REMARK  status: ('A' for Active; 'I' for Inactive)
REMARK    1  A    between atoms: C_1  and  C_2
REMARK    2  A    between atoms: C_5  and  S_10
REMARK    3  A    between atoms: C_6  and  O_8
REMARK    4  A    between atoms: O_8  and  C_9
REMARK    5  A    between atoms: S_10  and  N_13
REMARK    6  A    between atoms: N_13  and  N_14
REMARK    7  A    between atoms: C_17  and  C_35
REMARK    8  A    between atoms: C_18  and  C_21
REMARK    9  A    between atoms: C_21  and  C_22
REMARK   10  A    between atoms: N_24  and  C_25
REMARK   11  A    between atoms: C_25  and  C_26
REMARK   12  A    between atoms: C_29  and  C_32
REMARK                            x       y       z     vdW  Elec       q    Type
REMARK                         _______ _______ _______ _____ _____    ______ ____
ROOT
ATOM      1  N   UNL     1       2.056  -4.367   2.178  0.00  0.00    -0.214 N 
ATOM      2  C   UNL     1       2.551  -2.998   2.313  0.00  0.00    +0.133 C 
ATOM      3  C   UNL     1       1.888  -2.312   3.505  0.00  0.00    +0.051 C 
ATOM      4  C   UNL     1       2.003  -3.181   4.729  0.00  0.00    -0.062 C 
ATOM      5  C   UNL     1       1.946  -4.506   4.609  0.00  0.00    +0.024 C 
ATOM      6  C   UNL     1       1.768  -5.099   3.273  0.00  0.00    +0.258 C 
ATOM      7  O   UNL     1       1.369  -6.242   3.158  0.00  0.00    -0.269 OA
ATOM      8  C   UNL     1       2.182  -2.554   6.088  0.00  0.00    +0.039 C 
ENDROOT
BRANCH   1   9
ATOM      9  N   UNL     1       1.875  -4.920   0.903  0.00  0.00    -0.105 NA
ATOM     10  H   UNL     1       2.561  -5.486   0.518  0.00  0.00    +0.172 HD
BRANCH   9  11
ATOM     11  S   UNL     1       0.488  -4.606   0.055  0.00  0.00    +0.077 S 
ATOM     12  O   UNL     1       0.543  -5.401  -1.122  0.00  0.00    -0.152 OA
ATOM     13  O   UNL     1       0.348  -3.193   0.013  0.00  0.00    -0.152 OA
BRANCH  11  18
ATOM     14  C   UNL     1      -4.129  -6.697   3.336  0.00  0.00    +0.044 C 
ATOM     15  C   UNL     1      -2.975  -6.178   2.517  0.00  0.00    -0.047 A 
ATOM     16  C   UNL     1      -2.840  -4.819   2.298  0.00  0.00    +0.005 A 
ATOM     17  C   UNL     1      -1.782  -4.340   1.547  0.00  0.00    +0.032 A 
ATOM     18  C   UNL     1      -0.859  -5.218   1.013  0.00  0.00    +0.148 A 
ATOM     19  C   UNL     1      -0.993  -6.581   1.231  0.00  0.00    +0.147 A 
ATOM     20  C   UNL     1      -2.051  -7.059   1.991  0.00  0.00    +0.051 A 
BRANCH  19  21
ATOM     21  O   UNL     1      -0.086  -7.447   0.707  0.00  0.00    -0.493 OA
ATOM     22  C   UNL     1      -0.342  -8.841   0.884  0.00  0.00    +0.277 C 
ENDBRANCH  19  21
ENDBRANCH  11  18
ENDBRANCH   9  11
ENDBRANCH   1   9
BRANCH   5  23
ATOM     23  C   UNL     1       2.057  -5.387   5.826  0.00  0.00    +0.136 C 
BRANCH  23  24
ATOM     24  C   UNL     1       3.488  -5.828   5.999  0.00  0.00    +0.218 C 
ATOM     25  O   UNL     1       4.334  -5.462   5.211  0.00  0.00    -0.275 OA
ATOM     26  N   UNL     1       3.827  -6.628   7.029  0.00  0.00    -0.311 N 
ATOM     27  H   UNL     1       3.150  -6.920   7.659  0.00  0.00    +0.149 HD
BRANCH  26  28
ATOM     28  C   UNL     1       5.218  -7.056   7.197  0.00  0.00    +0.139 C 
BRANCH  28  29
ATOM     29  C   UNL     1       5.329  -7.938   8.414  0.00  0.00    -0.030 A 
ATOM     30  C   UNL     1       5.589  -7.375   9.651  0.00  0.00    +0.006 A 
ATOM     31  C   UNL     1       5.693  -8.176  10.769  0.00  0.00    +0.011 A 
ATOM     32  C   UNL     1       5.533  -9.557  10.651  0.00  0.00    +0.012 A 
ATOM     33  C   UNL     1       5.270 -10.119   9.401  0.00  0.00    +0.011 A 
ATOM     34  C   UNL     1       5.164  -9.306   8.291  0.00  0.00    +0.006 A 
BRANCH  32  35
ATOM     35  C   UNL     1       5.643 -10.422  11.846  0.00  0.00    +0.094 C 
ATOM     36  N   UNL     1       5.491 -11.740  11.730  0.00  0.00    -0.387 N 
ATOM     37  N   UNL     1       5.895  -9.883  13.037  0.00  0.00    -0.345 N 
ATOM     38  H   UNL     1       5.307 -12.133  10.863  0.00  0.00    +0.157 HD
ATOM     39  H   UNL     1       6.006  -8.923  13.122  0.00  0.00    +0.144 HD
ATOM     40  H   UNL     1       5.967 -10.451  13.821  0.00  0.00    +0.144 HD
ATOM     41  H   UNL     1       5.563 -12.307  12.514  0.00  0.00    +0.157 HD
ENDBRANCH  32  35
ENDBRANCH  28  29
ENDBRANCH  26  28
ENDBRANCH  23  24
ENDBRANCH   5  23
TORSDOF 9
