REMARK  Name = ZINC36024323
REMARK  9 active torsions:
REMARK  status: ('A' for Active; 'I' for Inactive)
REMARK    1  A    between atoms: C_1  and  C_2
REMARK    2  A    between atoms: C_2  and  C_3
REMARK    3  A    between atoms: C_3  and  C_5
REMARK    4  A    between atoms: C_3  and  C_6
REMARK    5  A    between atoms: N_10  and  C_28
REMARK    6  A    between atoms: N_15  and  C_18
REMARK    7  A    between atoms: C_18  and  N_20
REMARK    8  A    between atoms: N_20  and  C_21
REMARK    9  A    between atoms: C_28  and  C_29
REMARK                            x       y       z     vdW  Elec       q    Type
REMARK                         _______ _______ _______ _____ _____    ______ ____
ROOT
ATOM      1  C   UNL     1       0.486  -2.155  -0.814  0.00  0.00    +0.022 C 
ATOM      2  C   UNL     1      -0.895  -2.771  -0.869  0.00  0.00    +0.201 C 
ATOM      3  O   UNL     1      -1.729  -2.723   0.011  0.00  0.00    -0.277 OA
ATOM      4  N   UNL     1      -1.043  -3.384  -2.062  0.00  0.00    -0.309 N 
ATOM      5  C   UNL     1       0.184  -3.227  -2.847  0.00  0.00    +0.006 C 
ATOM      6  N   UNL     1       0.945  -2.122  -2.223  0.00  0.00    +0.401 N 
ATOM      7  C   UNL     1      -0.155  -2.870  -4.293  0.00  0.00    +0.025 C 
ATOM      8  C   UNL     1      -0.973  -4.005  -4.919  0.00  0.00    +0.107 C 
ATOM      9  N   UNL     1      -0.234  -5.264  -4.756  0.00  0.00    -0.312 N 
ATOM     10  C   UNL     1       0.202  -5.660  -3.410  0.00  0.00    +0.107 C 
ATOM     11  C   UNL     1       1.011  -4.511  -2.798  0.00  0.00    +0.025 C 
ATOM     12  H   UNL     1       0.710  -1.240  -2.654  0.00  0.00    -0.082 HD
ATOM     13  H   UNL     1       1.937  -2.294  -2.279  0.00  0.00    -0.082 HD
ENDROOT
BRANCH   1  14
ATOM     14  C   UNL     1       0.413  -0.737  -0.243  0.00  0.00    -0.020 C 
ATOM     15  C   UNL     1       1.808  -0.107  -0.265  0.00  0.00    +0.006 C 
BRANCH  14  17
ATOM     16  C   UNL     1      -0.290   0.632   1.725  0.00  0.00    +0.004 C 
ATOM     17  C   UNL     1      -0.099  -0.792   1.197  0.00  0.00    -0.001 C 
ENDBRANCH  14  17
ENDBRANCH   1  14
BRANCH   9  18
ATOM     18  C   UNL     1       0.037  -6.043  -5.822  0.00  0.00    +0.137 C 
ATOM     19  S   UNL     1      -0.362  -5.507  -7.398  0.00  0.00    -0.018 S 
BRANCH  18  20
ATOM     20  N   UNL     1       0.623  -7.244  -5.648  0.00  0.00    -0.297 N 
ATOM     21  H   UNL     1       1.573  -7.349  -5.812  0.00  0.00    +0.154 HD
BRANCH  20  22
ATOM     22  C   UNL     1      -0.141  -8.341  -5.229  0.00  0.00    +0.033 A 
ATOM     23  C   UNL     1      -1.479  -8.172  -4.900  0.00  0.00    +0.026 A 
ATOM     24  C   UNL     1      -2.230  -9.255  -4.488  0.00  0.00    +0.040 A 
ATOM     25  C   UNL     1      -1.650 -10.509  -4.402  0.00  0.00    +0.124 A 
ATOM     26  C   UNL     1      -0.315 -10.680  -4.729  0.00  0.00    +0.040 A 
ATOM     27  C   UNL     1       0.438  -9.601  -5.148  0.00  0.00    +0.026 A 
ATOM     28  F   UNL     1      -2.386 -11.567  -3.997  0.00  0.00    -0.205 F 
ENDBRANCH  20  22
ENDBRANCH  18  20
ENDBRANCH   9  18
BRANCH   4  29
ATOM     29  C   UNL     1      -2.245  -4.095  -2.505  0.00  0.00    +0.141 C 
BRANCH  29  30
ATOM     30  C   UNL     1      -3.291  -3.097  -2.930  0.00  0.00    -0.030 A 
ATOM     31  C   UNL     1      -4.122  -2.523  -1.986  0.00  0.00    +0.008 A 
ATOM     32  C   UNL     1      -5.081  -1.607  -2.375  0.00  0.00    +0.038 A 
ATOM     33  C   UNL     1      -5.211  -1.266  -3.710  0.00  0.00    +0.123 A 
ATOM     34  C   UNL     1      -4.378  -1.842  -4.655  0.00  0.00    +0.038 A 
ATOM     35  C   UNL     1      -3.416  -2.753  -4.263  0.00  0.00    +0.008 A 
ATOM     36  F   UNL     1      -6.149  -0.371  -4.092  0.00  0.00    -0.205 F 
ENDBRANCH  29  30
ENDBRANCH   4  29
TORSDOF 7
