REMARK  Name = ZINC40010961
REMARK  11 active torsions:
REMARK  status: ('A' for Active; 'I' for Inactive)
REMARK    1  A    between atoms: C_1  and  C_2
REMARK    2  A    between atoms: C_2  and  N_3
REMARK    3  A    between atoms: N_3  and  C_4
REMARK    4  A    between atoms: C_4  and  N_6
REMARK    5  A    between atoms: C_11  and  O_33
REMARK    6  A    between atoms: C_12  and  O_31
REMARK    7  A    between atoms: C_15  and  C_17
REMARK    8  A    between atoms: C_22  and  O_29
REMARK    9  A    between atoms: O_29  and  C_30
REMARK   10  A    between atoms: O_31  and  C_32
REMARK   11  A    between atoms: O_33  and  C_34
REMARK                            x       y       z     vdW  Elec       q    Type
REMARK                         _______ _______ _______ _____ _____    ______ ____
ROOT
ATOM      1  N   UNL     1      -2.857  -2.055   0.300  0.00  0.00    -0.304 N 
ATOM      2  C   UNL     1      -4.085  -1.248   0.390  0.00  0.00    +0.112 C 
ATOM      3  C   UNL     1      -4.977  -1.617  -0.793  0.00  0.00    +0.054 C 
ATOM      4  C   UNL     1      -5.085  -3.112  -0.938  0.00  0.00    -0.037 A 
ATOM      5  C   UNL     1      -6.162  -3.612  -1.662  0.00  0.00    +0.053 A 
ATOM      6  C   UNL     1      -6.317  -4.973  -1.843  0.00  0.00    +0.162 A 
ATOM      7  C   UNL     1      -5.386  -5.852  -1.297  0.00  0.00    +0.162 A 
ATOM      8  C   UNL     1      -4.319  -5.352  -0.575  0.00  0.00    +0.055 A 
ATOM      9  C   UNL     1      -4.170  -3.983  -0.391  0.00  0.00    -0.019 A 
ATOM     10  C   UNL     1      -2.997  -3.510   0.425  0.00  0.00    +0.121 C 
ENDROOT
BRANCH  10  11
ATOM     11  C   UNL     1      -1.722  -4.189  -0.077  0.00  0.00    +0.123 C 
ATOM     12  C   UNL     1      -1.813  -5.663   0.268  0.00  0.00    -0.002 C 
ATOM     13  C   UNL     1      -1.729  -6.552  -0.762  0.00  0.00    -0.003 A 
ATOM     14  C   UNL     1      -1.807  -7.992  -0.518  0.00  0.00    +0.055 A 
ATOM     15  C   UNL     1      -1.718  -8.844  -1.577  0.00  0.00    +0.121 A 
ATOM     16  C   UNL     1      -1.554  -8.365  -2.882  0.00  0.00    +0.047 A 
ATOM     17  C   UNL     1      -1.475  -7.041  -3.171  0.00  0.00    +0.027 A 
ATOM     18  C   UNL     1      -1.557  -6.079  -2.147  0.00  0.00    +0.041 A 
ATOM     19  N   UNL     1      -1.478  -4.782  -2.445  0.00  0.00    -0.284 N 
ATOM     20  C   UNL     1      -1.546  -3.826  -1.534  0.00  0.00    +0.226 C 
ATOM     21  O   UNL     1      -1.468  -2.659  -1.868  0.00  0.00    -0.275 OA
ATOM     22  H   UNL     1      -1.365  -4.527  -3.375  0.00  0.00    +0.155 HD
BRANCH  15  23
ATOM     23  O   UNL     1      -1.790 -10.184  -1.362  0.00  0.00    -0.495 OA
ATOM     24  C   UNL     1      -1.691 -11.031  -2.509  0.00  0.00    +0.277 C 
ENDBRANCH  15  23
ENDBRANCH  10  11
BRANCH   1  25
ATOM     25  C   UNL     1      -1.653  -1.481   0.105  0.00  0.00    +0.133 C 
ATOM     26  S   UNL     1      -0.270  -2.458  -0.150  0.00  0.00    -0.019 S 
BRANCH  25  27
ATOM     27  N   UNL     1      -1.538  -0.138   0.111  0.00  0.00    -0.327 N 
ATOM     28  H   UNL     1      -2.331   0.416   0.182  0.00  0.00    +0.148 HD
BRANCH  27  30
ATOM     29  C   UNL     1      -0.365   2.006   0.040  0.00  0.00    +0.024 C 
ATOM     30  C   UNL     1      -0.216   0.484   0.010  0.00  0.00    +0.100 C 
ENDBRANCH  27  30
ENDBRANCH  25  27
ENDBRANCH   1  25
BRANCH   7  31
ATOM     31  O   UNL     1      -5.526  -7.193  -1.472  0.00  0.00    -0.491 OA
ATOM     32  C   UNL     1      -4.605  -8.037  -0.778  0.00  0.00    +0.277 C 
ENDBRANCH   7  31
BRANCH   6  33
ATOM     33  O   UNL     1      -7.375  -5.452  -2.552  0.00  0.00    -0.491 OA
ATOM     34  C   UNL     1      -8.288  -4.490  -3.083  0.00  0.00    +0.277 C 
ENDBRANCH   6  33
TORSDOF 7
