REMARK  Name = ZINC17170340
REMARK  1 active torsions:
REMARK  status: ('A' for Active; 'I' for Inactive)
REMARK    1  A    between atoms: C_6  and  C_7
REMARK                            x       y       z     vdW  Elec       q    Type
REMARK                         _______ _______ _______ _____ _____    ______ ____
ROOT
ATOM      1  C   UNL     1       3.690  -0.696  -0.046  0.00  0.00    +0.247 C 
ATOM      2  O   UNL     1       4.732  -0.080  -0.162  0.00  0.00    -0.270 OA
ATOM      3  N   UNL     1       3.709  -2.040   0.047  0.00  0.00    -0.295 N 
ATOM      4  C   UNL     1       2.457  -2.813   0.067  0.00  0.00    +0.127 C 
ATOM      5  C   UNL     1       2.558  -3.920  -0.995  0.00  0.00    +0.126 C 
ATOM      6  N   UNL     1       3.776  -4.706  -0.761  0.00  0.00    -0.307 N 
ATOM      7  C   UNL     1       4.982  -3.881  -0.919  0.00  0.00    +0.126 C 
ATOM      8  C   UNL     1       4.981  -2.773   0.139  0.00  0.00    +0.127 C 
ATOM      9  C   UNL     1       3.820  -5.810  -1.591  0.00  0.00    +0.162 A 
ATOM     10  N   UNL     1       4.754  -6.163  -2.443  0.00  0.00    -0.222 NA
ATOM     11  C   UNL     1       4.665  -7.285  -3.194  0.00  0.00    +0.116 A 
ATOM     12  C   UNL     1       5.596  -7.779  -4.138  0.00  0.00    +0.152 A 
ATOM     13  C   UNL     1       5.347  -8.940  -4.827  0.00  0.00    +0.079 A 
ATOM     14  C   UNL     1       4.182  -9.668  -4.623  0.00  0.00    +0.127 A 
ATOM     15  C   UNL     1       3.251  -9.211  -3.705  0.00  0.00    +0.055 A 
ATOM     16  C   UNL     1       3.493  -8.050  -3.013  0.00  0.00    +0.046 A 
ATOM     17  S   UNL     1       2.615  -7.116  -1.783  0.00  0.00    -0.052 S 
ATOM     18  F   UNL     1       3.959 -10.808  -5.312  0.00  0.00    -0.205 F 
ATOM     19  F   UNL     1       6.742  -7.100  -4.365  0.00  0.00    -0.203 F 
ENDROOT
BRANCH   1  25
ATOM     20  C   UNL     1       2.193   1.123  -0.850  0.00  0.00    +0.017 A 
ATOM     21  C   UNL     1       0.993   1.798  -0.812  0.00  0.00    +0.050 A 
ATOM     22  C   UNL     1      -0.010   1.395   0.060  0.00  0.00    +0.162 A 
ATOM     23  C   UNL     1       0.194   0.302   0.900  0.00  0.00    +0.163 A 
ATOM     24  C   UNL     1       1.397  -0.378   0.868  0.00  0.00    +0.062 A 
ATOM     25  C   UNL     1       2.405   0.029  -0.009  0.00  0.00    +0.041 A 
ATOM     26  O   UNL     1      -0.782  -0.110   1.755  0.00  0.00    -0.485 OA
ATOM     27  C   UNL     1      -1.835   0.821   2.027  0.00  0.00    +0.270 C 
ATOM     28  C   UNL     1      -2.301   1.423   0.695  0.00  0.00    +0.270 C 
ATOM     29  O   UNL     1      -1.184   2.081   0.086  0.00  0.00    -0.485 OA
ENDBRANCH   1  25
TORSDOF 1
