REMARK  Name = ZINC32634954
REMARK  9 active torsions:
REMARK  status: ('A' for Active; 'I' for Inactive)
REMARK    1  A    between atoms: C_1  and  C_2
REMARK    2  A    between atoms: C_2  and  O_3
REMARK    3  A    between atoms: O_3  and  C_4
REMARK    4  A    between atoms: C_6  and  N_14
REMARK    5  A    between atoms: C_9  and  O_10
REMARK    6  A    between atoms: O_10  and  C_11
REMARK    7  A    between atoms: C_11  and  C_12
REMARK    8  A    between atoms: N_26  and  C_27
REMARK    9  A    between atoms: C_27  and  C_29
REMARK                            x       y       z     vdW  Elec       q    Type
REMARK                         _______ _______ _______ _____ _____    ______ ____
ROOT
ATOM      1  N   UNL     1      -0.520   1.440   4.870  0.00  0.00    -0.275 N 
ATOM      2  C   UNL     1      -1.228   2.227   5.825  0.00  0.00    +0.116 C 
ATOM      3  C   UNL     1      -1.239   1.968   7.327  0.00  0.00    +0.190 C 
ATOM      4  S   UNL     1      -2.446   3.271   7.815  0.00  0.00    -0.028 S 
ATOM      5  O   UNL     1      -1.731   4.459   8.124  0.00  0.00    -0.174 OA
ATOM      6  O   UNL     1      -3.359   2.736   8.764  0.00  0.00    -0.174 OA
ATOM      7  C   UNL     1      -3.317   3.493   6.197  0.00  0.00    +0.182 C 
ATOM      8  C   UNL     1      -2.738   2.325   5.389  0.00  0.00    +0.097 C 
ATOM      9  S   UNL     1      -2.346   2.702   3.639  0.00  0.00    -0.086 S 
ATOM     10  C   UNL     1      -0.869   1.678   3.543  0.00  0.00    +0.154 C 
ATOM     11  N   UNL     1      -0.248   1.250   2.450  0.00  0.00    -0.158 NA
ENDROOT
BRANCH   1  14
ATOM     12  C   UNL     1       2.741  -0.046   5.713  0.00  0.00    +0.164 A 
ATOM     13  C   UNL     1       1.781   0.884   5.349  0.00  0.00    +0.074 A 
ATOM     14  C   UNL     1       0.452   0.500   5.238  0.00  0.00    +0.053 A 
ATOM     15  C   UNL     1       0.084  -0.814   5.497  0.00  0.00    +0.043 A 
ATOM     16  C   UNL     1       1.043  -1.743   5.855  0.00  0.00    +0.066 A 
ATOM     17  C   UNL     1       2.371  -1.363   5.966  0.00  0.00    +0.163 A 
ATOM     18 BR   UNL     1      -1.728  -1.334   5.353  0.00  0.00    -0.048 Br
BRANCH  12  19
ATOM     19  O   UNL     1       4.044   0.328   5.822  0.00  0.00    -0.489 OA
BRANCH  19  21
ATOM     20  C   UNL     1       5.854   1.926   5.721  0.00  0.00    +0.048 C 
ATOM     21  C   UNL     1       4.352   1.696   5.548  0.00  0.00    +0.226 C 
ENDBRANCH  19  21
ENDBRANCH  12  19
BRANCH  17  22
ATOM     22  O   UNL     1       3.313  -2.277   6.324  0.00  0.00    -0.489 OA
BRANCH  22  23
ATOM     23  C   UNL     1       2.862  -3.611   6.570  0.00  0.00    +0.226 C 
ATOM     24  C   UNL     1       4.053  -4.489   6.957  0.00  0.00    +0.048 C 
ENDBRANCH  22  23
ENDBRANCH  17  22
ENDBRANCH   1  14
BRANCH  11  25
ATOM     25  C   UNL     1      -0.718   1.572   1.248  0.00  0.00    +0.253 C 
ATOM     26  O   UNL     1      -1.717   2.258   1.150  0.00  0.00    -0.272 OA
BRANCH  25  27
ATOM     27  C   UNL     1      -0.013   1.086   0.008  0.00  0.00    +0.206 C 
ATOM     28 CL   UNL     1      -0.885   1.683  -1.453  0.00  0.00    -0.116 Cl
ENDBRANCH  25  27
ENDBRANCH  11  25
TORSDOF 7
