REMARK  Name = ZINC12738171
REMARK  13 active torsions:
REMARK  status: ('A' for Active; 'I' for Inactive)
REMARK    1  A    between atoms: C_1  and  C_2
REMARK    2  A    between atoms: C_2  and  C_3
REMARK    3  A    between atoms: C_3  and  N_4
REMARK    4  A    between atoms: C_5  and  C_7
REMARK    5  A    between atoms: C_7  and  N_8
REMARK    6  A    between atoms: C_10  and  C_11
REMARK    7  A    between atoms: C_11  and  C_13
REMARK    8  A    between atoms: C_13  and  C_14
REMARK    9  A    between atoms: C_13  and  C_15
REMARK   10  A    between atoms: C_13  and  C_16
REMARK   11  A    between atoms: C_19  and  C_20
REMARK   12  A    between atoms: C_25  and  O_26
REMARK   13  A    between atoms: O_26  and  C_27
REMARK                            x       y       z     vdW  Elec       q    Type
REMARK                         _______ _______ _______ _____ _____    ______ ____
ROOT
ATOM      1  N   UNL     1       3.459   6.408   0.235  0.00  0.00    -0.293 N 
ATOM      2  C   UNL     1       3.160   7.746   0.334  0.00  0.00    +0.087 A 
ATOM      3  C   UNL     1       4.032   8.816   0.450  0.00  0.00    +0.080 C 
ATOM      4  S   UNL     1       1.376   7.769   0.277  0.00  0.00    -0.066 S 
ATOM      5  C   UNL     1       1.109   6.008   0.124  0.00  0.00    +0.079 A 
ATOM      6  C   UNL     1      -0.056   5.318   0.029  0.00  0.00    +0.032 C 
ATOM      7  C   UNL     1       2.496   5.506   0.136  0.00  0.00    +0.266 A 
ATOM      8  O   UNL     1       2.744   4.317   0.054  0.00  0.00    -0.266 OA
ENDROOT
BRANCH   6   9
ATOM      9  C   UNL     1      -0.036   3.878  -0.256  0.00  0.00    +0.018 A 
ATOM     10  C   UNL     1       0.850   3.361  -1.209  0.00  0.00    +0.011 A 
ATOM     11  C   UNL     1       0.864   2.009  -1.470  0.00  0.00    +0.001 A 
ATOM     12  C   UNL     1       0.005   1.157  -0.794  0.00  0.00    +0.004 A 
ATOM     13  C   UNL     1      -0.878   1.653   0.145  0.00  0.00    +0.046 A 
ATOM     14  C   UNL     1      -0.903   3.010   0.427  0.00  0.00    +0.134 A 
BRANCH  14  15
ATOM     15  O   UNL     1      -1.767   3.498   1.353  0.00  0.00    -0.434 OA
BRANCH  15  16
ATOM     16  C   UNL     1      -2.619   2.554   2.006  0.00  0.00    +0.541 C 
ATOM     17  F   UNL     1      -3.415   1.907   1.055  0.00  0.00    -0.166 F 
ATOM     18  F   UNL     1      -1.838   1.610   2.681  0.00  0.00    -0.166 F 
ENDBRANCH  15  16
ENDBRANCH  14  15
ENDBRANCH   6   9
BRANCH   3  19
ATOM     19  C   UNL     1       3.534  10.110   0.539  0.00  0.00    +0.164 C 
ATOM     20  O   UNL     1       2.333  10.303   0.516  0.00  0.00    -0.292 OA
BRANCH  19  21
ATOM     21  C   UNL     1       4.482  11.274   0.665  0.00  0.00    +0.025 C 
ATOM     22  C   UNL     1       3.683  12.576   0.745  0.00  0.00    +0.019 C 
ATOM     23  C   UNL     1       5.323  11.113   1.934  0.00  0.00    +0.019 C 
ATOM     24  C   UNL     1       5.404  11.316  -0.555  0.00  0.00    +0.019 C 
ENDBRANCH  19  21
ENDBRANCH   3  19
BRANCH   1  25
ATOM     25  C   UNL     1       4.858   5.975   0.246  0.00  0.00    +0.221 C 
BRANCH  25  27
ATOM     26  N   UNL     1       6.550   5.300   1.920  0.00  0.00    -0.314 N 
ATOM     27  C   UNL     1       5.292   5.711   1.665  0.00  0.00    +0.233 C 
ATOM     28  O   UNL     1       4.509   5.869   2.577  0.00  0.00    -0.274 OA
ATOM     29  H   UNL     1       7.176   5.174   1.190  0.00  0.00    +0.149 HD
BRANCH  26  30
ATOM     30  C   UNL     1       6.971   5.043   3.299  0.00  0.00    +0.104 C 
BRANCH  30  32
ATOM     31  C   UNL     1       8.873   4.324   4.751  0.00  0.00    +0.005 C 
ATOM     32  C   UNL     1       8.433   4.591   3.310  0.00  0.00    +0.015 C 
ENDBRANCH  30  32
ENDBRANCH  26  30
ENDBRANCH  25  27
ENDBRANCH   1  25
TORSDOF 9
