REMARK  Name = ZINC19333544
REMARK  4 active torsions:
REMARK  status: ('A' for Active; 'I' for Inactive)
REMARK    1  A    between atoms: C_4  and  C_7
REMARK    2  A    between atoms: C_7  and  C_25
REMARK    3  A    between atoms: N_8  and  N_9
REMARK    4  A    between atoms: C_10  and  C_11
REMARK                            x       y       z     vdW  Elec       q    Type
REMARK                         _______ _______ _______ _____ _____    ______ ____
ROOT
ATOM      1  C   UNL     1      -4.201   1.066   0.052  0.00  0.00    +0.077 C 
ATOM      2  N   UNL     1      -4.638   0.203   0.933  0.00  0.00    -0.153 NA
ENDROOT
BRANCH   1   3
ATOM      3  C   UNL     1      -2.767   1.526   0.095  0.00  0.00    +0.026 C 
ATOM      4  C   UNL     1      -2.002   1.077  -1.164  0.00  0.00    -0.059 C 
ATOM      5  N   UNL     1      -0.613   1.554  -1.060  0.00  0.00    +0.397 N 
ATOM      6  C   UNL     1       0.040   0.973   0.125  0.00  0.00    +0.011 C 
ATOM      7  N   UNL     1      -0.666   1.426   1.334  0.00  0.00    -0.305 NA
ATOM      8  C   UNL     1      -2.058   0.944   1.326  0.00  0.00    +0.096 C 
ATOM      9  C   UNL     1      -0.638   2.895   1.422  0.00  0.00    +0.167 C 
ATOM     10  N   UNL     1      -1.285   3.461   0.227  0.00  0.00    -0.305 NA
ATOM     11  C   UNL     1      -2.700   3.057   0.174  0.00  0.00    +0.096 C 
ATOM     12  C   UNL     1      -0.582   3.024  -0.990  0.00  0.00    +0.011 C 
ATOM     13  H   UNL     1      -0.062   1.234  -1.956  0.00  0.00    -0.078 HD
ENDBRANCH   1   3
BRANCH   1  17
ATOM     14  C   UNL     1      -6.822   2.571  -2.922  0.00  0.00    +0.000 A 
ATOM     15  C   UNL     1      -5.735   1.797  -3.291  0.00  0.00    +0.001 A 
ATOM     16  C   UNL     1      -4.878   1.304  -2.330  0.00  0.00    +0.010 A 
ATOM     17  C   UNL     1      -5.110   1.588  -0.979  0.00  0.00    -0.001 A 
ATOM     18  C   UNL     1      -6.214   2.366  -0.615  0.00  0.00    +0.010 A 
ATOM     19  C   UNL     1      -7.058   2.857  -1.589  0.00  0.00    +0.001 A 
ENDBRANCH   1  17
BRANCH   2  20
ATOM     20  N   UNL     1      -5.834  -0.270   0.835  0.00  0.00    -0.157 NA
ATOM     21  C   UNL     1      -6.241  -1.204   1.663  0.00  0.00    +0.144 C 
BRANCH  21  22
ATOM     22  C   UNL     1      -7.512  -1.801   1.487  0.00  0.00    +0.010 A 
ATOM     23  C   UNL     1      -8.011  -2.717   2.441  0.00  0.00    -0.009 A 
ATOM     24  C   UNL     1      -7.269  -3.046   3.587  0.00  0.00    +0.009 A 
ATOM     25  C   UNL     1      -7.781  -3.927   4.489  0.00  0.00    +0.001 A 
ATOM     26  C   UNL     1      -9.032  -4.512   4.311  0.00  0.00    +0.001 A 
ATOM     27  C   UNL     1      -9.802  -4.231   3.227  0.00  0.00    +0.008 A 
ATOM     28  C   UNL     1      -9.329  -3.326   2.253  0.00  0.00    -0.017 A 
ATOM     29  C   UNL     1     -10.095  -3.016   1.128  0.00  0.00    +0.017 A 
ATOM     30  C   UNL     1      -9.609  -2.117   0.177  0.00  0.00    -0.017 A 
ATOM     31  C   UNL     1      -8.296  -1.494   0.351  0.00  0.00    -0.009 A 
ATOM     32  C   UNL     1      -7.838  -0.594  -0.624  0.00  0.00    +0.009 A 
ATOM     33  C   UNL     1      -8.617  -0.320  -1.705  0.00  0.00    +0.001 A 
ATOM     34  C   UNL     1      -9.867  -0.911  -1.874  0.00  0.00    +0.001 A 
ATOM     35  C   UNL     1     -10.368  -1.790  -0.967  0.00  0.00    +0.008 A 
ENDBRANCH  21  22
ENDBRANCH   2  20
TORSDOF 4
