REMARK  Name = ZINC08862228
REMARK  2 active torsions:
REMARK  status: ('A' for Active; 'I' for Inactive)
REMARK    1  A    between atoms: C_9  and  C_12
REMARK    2  A    between atoms: C_20  and  C_22
REMARK                            x       y       z     vdW  Elec       q    Type
REMARK                         _______ _______ _______ _____ _____    ______ ____
ROOT
ATOM      1  C   UNL     1       3.543   1.175  -3.445  0.00  0.00    +0.002 A 
ATOM      2  C   UNL     1       4.279   0.529  -2.469  0.00  0.00    +0.004 A 
ATOM      3  C   UNL     1       3.642  -0.199  -1.481  0.00  0.00    +0.047 A 
ATOM      4  C   UNL     1       2.258  -0.284  -1.465  0.00  0.00    +0.143 A 
ATOM      5  C   UNL     1       1.519   0.366  -2.450  0.00  0.00    +0.079 A 
ATOM      6  C   UNL     1       2.163   1.095  -3.437  0.00  0.00    +0.027 A 
ATOM      7  N   UNL     1       0.117   0.279  -2.440  0.00  0.00    -0.260 N 
ATOM      8  C   UNL     1      -0.529  -0.236  -1.220  0.00  0.00    +0.168 C 
ATOM      9  C   UNL     1       0.298  -1.432  -0.728  0.00  0.00    +0.276 C 
ATOM     10  O   UNL     1       1.639  -0.998  -0.488  0.00  0.00    -0.476 OA
ATOM     11  C   UNL     1      -0.613   0.654  -3.510  0.00  0.00    +0.252 C 
ATOM     12  O   UNL     1      -0.063   1.133  -4.483  0.00  0.00    -0.270 OA
ENDROOT
BRANCH  11  13
ATOM     13  C   UNL     1      -2.075   0.484  -3.500  0.00  0.00    +0.051 C 
ATOM     14  C   UNL     1      -2.717  -0.099  -4.565  0.00  0.00    +0.089 C 
ATOM     15  N   UNL     1      -4.067  -0.266  -4.579  0.00  0.00    -0.288 N 
ATOM     16  C   UNL     1      -4.606  -0.959  -5.754  0.00  0.00    +0.136 C 
ATOM     17  C   UNL     1      -5.952  -0.357  -6.164  0.00  0.00    +0.212 C 
ATOM     18  S   UNL     1      -7.055  -0.490  -4.721  0.00  0.00    +0.073 S 
ATOM     19  O   UNL     1      -8.160   0.392  -4.858  0.00  0.00    -0.151 OA
ATOM     20  O   UNL     1      -7.248  -1.854  -4.369  0.00  0.00    -0.151 OA
ATOM     21  N   UNL     1      -6.145   0.146  -3.494  0.00  0.00    -0.118 NA
ATOM     22  C   UNL     1      -4.833   0.190  -3.543  0.00  0.00    +0.147 C 
ATOM     23  C   UNL     1      -4.209   0.777  -2.400  0.00  0.00    +0.046 C 
ATOM     24  C   UNL     1      -2.869   0.926  -2.351  0.00  0.00    +0.018 C 
ENDBRANCH  11  13
BRANCH   9  25
ATOM     25  C   UNL     1      -0.295  -1.969   0.549  0.00  0.00    +0.258 C 
ATOM     26  O   UNL     1       0.333  -1.901   1.585  0.00  0.00    -0.271 OA
ATOM     27  N   UNL     1      -1.523  -2.524   0.540  0.00  0.00    -0.298 N 
ATOM     28  C   UNL     1      -2.298  -2.608  -0.705  0.00  0.00    +0.108 C 
ATOM     29  C   UNL     1      -2.724  -4.069  -0.917  0.00  0.00    +0.019 C 
ATOM     30  C   UNL     1      -3.474  -4.561   0.323  0.00  0.00    +0.003 C 
ATOM     31  C   UNL     1      -2.546  -4.502   1.538  0.00  0.00    +0.019 C 
ATOM     32  C   UNL     1      -2.114  -3.052   1.778  0.00  0.00    +0.108 C 
ENDBRANCH   9  25
TORSDOF 2
