REMARK  Name = ZINC40688647
REMARK  8 active torsions:
REMARK  status: ('A' for Active; 'I' for Inactive)
REMARK    1  A    between atoms: C_1  and  C_2
REMARK    2  A    between atoms: C_4  and  C_24
REMARK    3  A    between atoms: C_7  and  N_8
REMARK    4  A    between atoms: C_10  and  N_22
REMARK    5  A    between atoms: C_11  and  N_15
REMARK    6  A    between atoms: N_18  and  C_21
REMARK    7  A    between atoms: C_24  and  C_26
REMARK    8  A    between atoms: C_24  and  C_28
REMARK                            x       y       z     vdW  Elec       q    Type
REMARK                         _______ _______ _______ _____ _____    ______ ____
ROOT
ATOM      1  N   UNL     1       1.425  -0.285   2.666  0.00  0.00    -0.298 N 
ATOM      2  C   UNL     1       1.807  -1.056   3.758  0.00  0.00    +0.149 A 
ATOM      3  C   UNL     1       2.048  -0.459   4.997  0.00  0.00    +0.106 A 
ATOM      4  C   UNL     1       2.429  -1.280   6.060  0.00  0.00    +0.147 A 
ATOM      5  N   UNL     1       2.547  -2.589   5.854  0.00  0.00    -0.219 NA
ATOM      6  C   UNL     1       2.310  -3.112   4.668  0.00  0.00    +0.225 A 
ATOM      7  N   UNL     1       1.943  -2.374   3.640  0.00  0.00    -0.219 NA
ATOM      8  H   UNL     1       1.241   0.661   2.780  0.00  0.00    +0.154 HD
ENDROOT
BRANCH   1  15
ATOM      9  C   UNL     1      -0.470   0.812   0.849  0.00  0.00    +0.045 C 
ATOM     10  C   UNL     1       0.393  -0.368   0.485  0.00  0.00    -0.029 A 
ATOM     11  C   UNL     1       0.281  -0.947  -0.764  0.00  0.00    +0.011 A 
ATOM     12  C   UNL     1       1.072  -2.030  -1.100  0.00  0.00    -0.008 A 
ATOM     13  C   UNL     1       1.978  -2.539  -0.185  0.00  0.00    +0.047 A 
ATOM     14  C   UNL     1       2.095  -1.964   1.066  0.00  0.00    +0.043 A 
ATOM     15  C   UNL     1       1.305  -0.872   1.403  0.00  0.00    +0.037 A 
ATOM     16 CL   UNL     1       2.968  -3.900  -0.611  0.00  0.00    -0.083 Cl
BRANCH  12  17
ATOM     17  C   UNL     1       0.946  -2.659  -2.463  0.00  0.00    +0.153 C 
BRANCH  17  18
ATOM     18  C   UNL     1       1.341  -1.657  -3.517  0.00  0.00    -0.026 A 
ATOM     19  C   UNL     1       0.524  -0.573  -3.780  0.00  0.00    +0.006 A 
ATOM     20  C   UNL     1       0.885   0.347  -4.746  0.00  0.00    +0.020 A 
ATOM     21  C   UNL     1       2.064   0.183  -5.450  0.00  0.00    +0.041 A 
ATOM     22  C   UNL     1       2.882  -0.902  -5.187  0.00  0.00    +0.020 A 
ATOM     23  C   UNL     1       2.522  -1.818  -4.217  0.00  0.00    +0.006 A 
ATOM     24 CL   UNL     1       2.518   1.337  -6.665  0.00  0.00    -0.084 Cl
ENDBRANCH  17  18
BRANCH  17  25
ATOM     25  C   UNL     1      -0.447  -3.080  -2.684  0.00  0.00    +0.075 C 
ATOM     26  N   UNL     1      -1.522  -3.405  -2.853  0.00  0.00    -0.196 NA
ENDBRANCH  17  25
ENDBRANCH  12  17
ENDBRANCH   1  15
BRANCH   4  27
ATOM     27  N   UNL     1       2.681  -0.737   7.315  0.00  0.00    -0.317 N 
ATOM     28  C   UNL     1       1.634  -0.699   8.347  0.00  0.00    +0.088 C 
ATOM     29  C   UNL     1       2.207  -1.286   9.642  0.00  0.00    -0.060 C 
ATOM     30  N   UNL     1       3.437  -0.569  10.000  0.00  0.00    +0.380 N 
ATOM     31  C   UNL     1       4.464  -0.796   8.976  0.00  0.00    -0.060 C 
ATOM     32  C   UNL     1       4.005  -0.190   7.650  0.00  0.00    +0.088 C 
ATOM     33  C   UNL     1       3.926  -1.057  11.297  0.00  0.00    -0.096 C 
ATOM     34  H   UNL     1       3.243   0.418  10.067  0.00  0.00    -0.082 HD
ENDBRANCH   4  27
BRANCH   3  35
ATOM     35  N   UNL     1       1.912   0.928   5.169  0.00  0.00    -0.353 N 
ATOM     36  H   UNL     1       1.721   1.495   4.405  0.00  0.00    +0.143 HD
ATOM     37  H   UNL     1       2.008   1.319   6.051  0.00  0.00    +0.143 HD
ENDBRANCH   3  35
TORSDOF 6
