REMARK  Name = ZINC39451070
REMARK  2 active torsions:
REMARK  status: ('A' for Active; 'I' for Inactive)
REMARK    1  A    between atoms: C_4  and  O_26
REMARK    2  A    between atoms: C_5  and  C_7
REMARK                            x       y       z     vdW  Elec       q    Type
REMARK                         _______ _______ _______ _____ _____    ______ ____
ROOT
ATOM      1  C   UNL     1       1.245  -2.165  -0.023  0.00  0.00    +0.004 A 
ATOM      2  C   UNL     1       0.488  -2.889   0.900  0.00  0.00    +0.025 A 
ATOM      3  C   UNL     1       0.550  -4.279   0.846  0.00  0.00    +0.068 A 
ATOM      4  C   UNL     1       1.367  -4.899  -0.127  0.00  0.00    +0.099 A 
ATOM      5  C   UNL     1       1.413  -6.366  -0.159  0.00  0.00    +0.083 A 
ATOM      6  C   UNL     1       0.666  -7.098   0.746  0.00  0.00    +0.122 A 
ATOM      7  N   UNL     1      -0.127  -6.464   1.695  0.00  0.00    -0.237 N 
ATOM      8  C   UNL     1      -0.212  -5.124   1.777  0.00  0.00    +0.271 A 
ATOM      9  O   UNL     1      -0.920  -4.610   2.624  0.00  0.00    -0.266 OA
ATOM     10 BR   UNL     1      -1.098  -7.497   2.883  0.00  0.00    +0.058 Br
ATOM     11  C   UNL     1       0.703  -8.510   0.708  0.00  0.00    +0.185 C 
ATOM     12  O   UNL     1       0.085  -9.151   1.534  0.00  0.00    -0.290 OA
ATOM     13  C   UNL     1       1.500  -9.229  -0.349  0.00  0.00    +0.119 C 
ATOM     14  C   UNL     1       2.697  -8.364  -0.758  0.00  0.00    +0.171 C 
ATOM     15  N   UNL     1       2.203  -7.019  -1.087  0.00  0.00    -0.324 N 
ATOM     16 CL   UNL     1       3.871  -8.266   0.607  0.00  0.00    -0.101 Cl
ATOM     17  N   UNL     1       2.068  -4.165  -0.983  0.00  0.00    -0.252 NA
ATOM     18  C   UNL     1       2.025  -2.852  -0.960  0.00  0.00    +0.120 A 
ATOM     19  H   UNL     1       2.424  -6.600  -1.934  0.00  0.00    +0.148 HD
ENDROOT
BRANCH   1  24
ATOM     20  C   UNL     1      -0.017   1.375   0.010  0.00  0.00    +0.001 A 
ATOM     21  C   UNL     1       1.169   2.089   0.002  0.00  0.00    +0.004 A 
ATOM     22  C   UNL     1       2.382   1.426  -0.013  0.00  0.00    +0.046 A 
ATOM     23  C   UNL     1       2.416   0.041  -0.021  0.00  0.00    +0.125 A 
ATOM     24  C   UNL     1       1.219  -0.683  -0.014  0.00  0.00    +0.025 A 
ATOM     25  C   UNL     1       0.002  -0.004   0.002  0.00  0.00    +0.012 A 
BRANCH  23  26
ATOM     26  O   UNL     1       3.607  -0.611  -0.037  0.00  0.00    -0.506 OA
ATOM     27  H   UNL     1       3.961  -0.805   0.842  0.00  0.00    +0.292 HD
ENDBRANCH  23  26
ENDBRANCH   1  24
TORSDOF 2
