REMARK  Name = ZINC33787790
REMARK  5 active torsions:
REMARK  status: ('A' for Active; 'I' for Inactive)
REMARK    1  A    between atoms: C_2  and  C_3
REMARK    2  A    between atoms: C_3  and  O_4
REMARK    3  A    between atoms: O_4  and  C_5
REMARK    4  A    between atoms: C_8  and  C_12
REMARK    5  A    between atoms: N_13  and  N_14
REMARK                            x       y       z     vdW  Elec       q    Type
REMARK                         _______ _______ _______ _____ _____    ______ ____
ROOT
ATOM      1  C   UNL     1       2.392  -2.577   1.044  0.00  0.00    +0.147 A 
ATOM      2  C   UNL     1       2.539  -3.704   0.245  0.00  0.00    +0.057 A 
ATOM      3  C   UNL     1       3.669  -4.486   0.355  0.00  0.00    +0.027 A 
ATOM      4  C   UNL     1       4.667  -4.144   1.271  0.00  0.00    -0.003 A 
ATOM      5  C   UNL     1       4.515  -3.010   2.072  0.00  0.00    +0.027 A 
ATOM      6  C   UNL     1       3.385  -2.230   1.952  0.00  0.00    +0.057 A 
ATOM      7  I   UNL     1       3.159  -0.524   3.147  0.00  0.00    -0.040 I 
ATOM      8  I   UNL     1       1.042  -4.215  -1.128  0.00  0.00    -0.040 I 
ENDROOT
BRANCH   4   9
ATOM      9  C   UNL     1       5.877  -4.978   1.392  0.00  0.00    +0.140 C 
ATOM     10  N   UNL     1       6.803  -4.659   2.244  0.00  0.00    -0.179 NA
BRANCH  10  11
ATOM     11  N   UNL     1       7.952  -5.451   2.359  0.00  0.00    -0.249 N 
ATOM     12  C   UNL     1       8.929  -5.114   3.257  0.00  0.00    +0.187 C 
ATOM     13  N   UNL     1      10.023  -5.868   3.367  0.00  0.00    -0.370 N 
ATOM     14  N   UNL     1       8.787  -4.032   4.022  0.00  0.00    -0.370 N 
ATOM     15  H   UNL     1       8.056  -6.239   1.802  0.00  0.00    +0.192 HD
ATOM     16  H   UNL     1      10.127  -6.655   2.811  0.00  0.00    +0.159 HD
ATOM     17  H   UNL     1       7.991  -3.483   3.942  0.00  0.00    +0.159 HD
ATOM     18  H   UNL     1       9.479  -3.793   4.659  0.00  0.00    +0.159 HD
ATOM     19  H   UNL     1      10.715  -5.629   4.004  0.00  0.00    +0.159 HD
ENDBRANCH  10  11
ENDBRANCH   4   9
BRANCH   1  20
ATOM     20  O   UNL     1       1.277  -1.809   0.933  0.00  0.00    -0.486 OA
BRANCH  20  21
ATOM     21  C   UNL     1       1.317  -0.740  -0.015  0.00  0.00    +0.256 C 
BRANCH  21  23
ATOM     22  C   UNL     1      -0.016   1.306   0.009  0.00  0.00    +0.007 C 
ATOM     23  C   UNL     1       0.002  -0.004   0.002  0.00  0.00    +0.006 C 
ENDBRANCH  21  23
ENDBRANCH  20  21
ENDBRANCH   1  20
TORSDOF 5
