REMARK  Name = ZINC14684626
REMARK  10 active torsions:
REMARK  status: ('A' for Active; 'I' for Inactive)
REMARK    1  A    between atoms: C_3  and  O_35
REMARK    2  A    between atoms: C_4  and  O_34
REMARK    3  A    between atoms: C_6  and  C_7
REMARK    4  A    between atoms: C_8  and  O_20
REMARK    5  A    between atoms: C_12  and  O_19
REMARK    6  A    between atoms: C_14  and  O_18
REMARK    7  A    between atoms: O_20  and  C_21
REMARK    8  A    between atoms: C_23  and  O_33
REMARK    9  A    between atoms: C_25  and  O_32
REMARK   10  A    between atoms: C_27  and  O_31
REMARK                            x       y       z     vdW  Elec       q    Type
REMARK                         _______ _______ _______ _____ _____    ______ ____
ROOT
ATOM      1  C   UNL     1      -1.165  -0.690  -0.070  0.00  0.00    +0.181 A 
ATOM      2  C   UNL     1      -2.362  -0.076   0.145  0.00  0.00    +0.214 A 
ATOM      3  C   UNL     1      -3.535  -0.862   0.283  0.00  0.00    +0.238 A 
ATOM      4  O   UNL     1      -4.625  -0.346   0.476  0.00  0.00    -0.283 OA
ATOM      5  C   UNL     1      -3.387  -2.322   0.184  0.00  0.00    +0.109 A 
ATOM      6  C   UNL     1      -4.492  -3.175   0.307  0.00  0.00    +0.135 A 
ATOM      7  C   UNL     1      -4.312  -4.542   0.208  0.00  0.00    +0.091 A 
ATOM      8  C   UNL     1      -3.043  -5.065  -0.013  0.00  0.00    +0.124 A 
ATOM      9  C   UNL     1      -1.945  -4.228  -0.136  0.00  0.00    +0.092 A 
ATOM     10  C   UNL     1      -2.105  -2.854  -0.040  0.00  0.00    +0.147 A 
ATOM     11  O   UNL     1      -1.047  -2.026  -0.163  0.00  0.00    -0.451 OA
ENDROOT
BRANCH   1  17
ATOM     12  C   UNL     1       1.202  -0.179   0.505  0.00  0.00    +0.015 A 
ATOM     13  C   UNL     1       2.332   0.600   0.372  0.00  0.00    +0.050 A 
ATOM     14  C   UNL     1       2.324   1.702  -0.472  0.00  0.00    +0.158 A 
ATOM     15  C   UNL     1       1.173   2.026  -1.189  0.00  0.00    +0.159 A 
ATOM     16  C   UNL     1       0.037   1.251  -1.060  0.00  0.00    +0.060 A 
ATOM     17  C   UNL     1       0.045   0.141  -0.211  0.00  0.00    +0.025 A 
BRANCH  15  18
ATOM     18  O   UNL     1       1.169   3.107  -2.015  0.00  0.00    -0.503 OA
ATOM     19  H   UNL     1       1.441   2.910  -2.922  0.00  0.00    +0.292 HD
ENDBRANCH  15  18
BRANCH  14  20
ATOM     20  O   UNL     1       3.440   2.466  -0.599  0.00  0.00    -0.503 OA
ATOM     21  H   UNL     1       4.036   2.178  -1.304  0.00  0.00    +0.292 HD
ENDBRANCH  14  20
ENDBRANCH   1  17
BRANCH   8  22
ATOM     22  O   UNL     1      -2.877  -6.409  -0.109  0.00  0.00    -0.507 OA
ATOM     23  H   UNL     1      -2.962  -6.753  -1.009  0.00  0.00    +0.292 HD
ENDBRANCH   8  22
BRANCH   6  24
ATOM     24  O   UNL     1      -5.730  -2.662   0.523  0.00  0.00    -0.506 OA
ATOM     25  H   UNL     1      -6.222  -2.467  -0.286  0.00  0.00    +0.292 HD
ENDBRANCH   6  24
BRANCH   2  26
ATOM     26  O   UNL     1      -2.431   1.281   0.228  0.00  0.00    -0.453 OA
BRANCH  26  27
ATOM     27  C   UNL     1      -2.802   1.836   1.491  0.00  0.00    +0.339 C 
ATOM     28  C   UNL     1      -3.101   3.328   1.325  0.00  0.00    +0.214 C 
ATOM     29  C   UNL     1      -3.439   3.929   2.693  0.00  0.00    +0.180 C 
ATOM     30  C   UNL     1      -2.273   3.673   3.653  0.00  0.00    +0.171 C 
ATOM     31  C   UNL     1      -2.006   2.167   3.729  0.00  0.00    +0.198 C 
ATOM     32  O   UNL     1      -1.729   1.667   2.419  0.00  0.00    -0.337 OA
BRANCH  30  33
ATOM     33  O   UNL     1      -1.104   4.343   3.174  0.00  0.00    -0.387 OA
ATOM     34  H   UNL     1      -0.325   4.223   3.735  0.00  0.00    +0.210 HD
ENDBRANCH  30  33
BRANCH  29  35
ATOM     35  O   UNL     1      -3.650   5.336   2.559  0.00  0.00    -0.386 OA
ATOM     36  H   UNL     1      -3.868   5.782   3.389  0.00  0.00    +0.210 HD
ENDBRANCH  29  35
BRANCH  28  37
ATOM     37  O   UNL     1      -4.211   3.498   0.441  0.00  0.00    -0.383 OA
ATOM     38  H   UNL     1      -4.067   3.136  -0.444  0.00  0.00    +0.210 HD
ENDBRANCH  28  37
ENDBRANCH  26  27
ENDBRANCH   2  26
TORSDOF 10
