REMARK  Name = ZINC39639422
REMARK  11 active torsions:
REMARK  status: ('A' for Active; 'I' for Inactive)
REMARK    1  A    between atoms: C_1  and  C_2
REMARK    2  A    between atoms: C_5  and  C_8
REMARK    3  A    between atoms: C_8  and  C_10
REMARK    4  A    between atoms: C_8  and  N_11
REMARK    5  A    between atoms: C_12  and  C_14
REMARK    6  A    between atoms: C_25  and  C_27
REMARK    7  A    between atoms: C_27  and  C_29
REMARK    8  A    between atoms: C_27  and  O_32
REMARK    9  A    between atoms: C_29  and  C_30
REMARK   10  A    between atoms: C_29  and  C_31
REMARK   11  A    between atoms: O_32  and  C_33
REMARK                            x       y       z     vdW  Elec       q    Type
REMARK                         _______ _______ _______ _____ _____    ______ ____
ROOT
ATOM      1  C   UNL     1       1.998  -6.930   1.279  0.00  0.00    +0.100 C 
ATOM      2  C   UNL     1       1.504  -6.911   2.743  0.00  0.00    +0.121 C 
ATOM      3  N   UNL     1       1.056  -8.299   3.005  0.00  0.00    -0.297 N 
ATOM      4  C   UNL     1       2.060  -9.147   2.318  0.00  0.00    +0.115 C 
ATOM      5  C   UNL     1       2.365  -8.398   1.005  0.00  0.00    -0.004 C 
ATOM      6  C   UNL     1       3.847  -8.517   0.662  0.00  0.00    -0.010 C 
ATOM      7  C   UNL     1       4.176  -9.977   0.337  0.00  0.00    -0.082 C 
ATOM      8  N   UNL     1       3.353 -10.426  -0.793  0.00  0.00    +0.379 N 
ATOM      9  C   UNL     1       1.933 -10.396  -0.422  0.00  0.00    -0.082 C 
ATOM     10  C   UNL     1       1.510  -8.954  -0.129  0.00  0.00    -0.010 C 
ATOM     11  C   UNL     1      -0.021  -8.700   3.709  0.00  0.00    +0.257 C 
ATOM     12  O   UNL     1      -0.198  -9.880   3.927  0.00  0.00    -0.272 OA
ATOM     13  H   UNL     1       3.506  -9.815  -1.582  0.00  0.00    -0.086 HD
ATOM     14  H   UNL     1       3.615 -11.367  -1.045  0.00  0.00    -0.086 HD
ENDROOT
BRANCH   1  16
ATOM     15  N   UNL     1       1.208  -5.851  -0.801  0.00  0.00    -0.308 N 
ATOM     16  C   UNL     1       0.901  -6.482   0.349  0.00  0.00    +0.219 C 
ATOM     17  O   UNL     1      -0.260  -6.689   0.636  0.00  0.00    -0.275 OA
ATOM     18  H   UNL     1       2.136  -5.750  -1.066  0.00  0.00    +0.149 HD
BRANCH  15  19
ATOM     19  C   UNL     1       0.142  -5.316  -1.652  0.00  0.00    +0.100 C 
ATOM     20  C   UNL     1      -0.196  -3.890  -1.211  0.00  0.00    +0.033 C 
BRANCH  19  25
ATOM     21  C   UNL     1       1.907  -5.261  -7.154  0.00  0.00    +0.044 C 
ATOM     22  C   UNL     1       1.446  -5.275  -5.719  0.00  0.00    -0.050 A 
ATOM     23  C   UNL     1       0.149  -5.641  -5.413  0.00  0.00    +0.004 A 
ATOM     24  C   UNL     1      -0.273  -5.655  -4.097  0.00  0.00    +0.006 A 
ATOM     25  C   UNL     1       0.602  -5.302  -3.086  0.00  0.00    -0.027 A 
ATOM     26  C   UNL     1       1.900  -4.937  -3.392  0.00  0.00    +0.006 A 
ATOM     27  C   UNL     1       2.323  -4.928  -4.708  0.00  0.00    +0.004 A 
ENDBRANCH  19  25
ENDBRANCH  15  19
ENDBRANCH   1  16
BRANCH  11  28
ATOM     28  C   UNL     1      -1.006  -7.683   4.226  0.00  0.00    +0.261 C 
BRANCH  28  29
ATOM     29  C   UNL     1      -0.502  -7.115   5.554  0.00  0.00    +0.033 C 
ATOM     30  C   UNL     1      -1.527  -6.122   6.106  0.00  0.00    +0.011 C 
ATOM     31  C   UNL     1      -0.307  -8.256   6.555  0.00  0.00    +0.011 C 
ENDBRANCH  28  29
BRANCH  28  32
ATOM     32  O   UNL     1      -1.139  -6.624   3.275  0.00  0.00    -0.479 OA
BRANCH  32  33
ATOM     33  C   UNL     1      -2.370  -6.063   3.146  0.00  0.00    +0.122 A 
ATOM     34  C   UNL     1      -2.569  -5.022   2.250  0.00  0.00    +0.045 A 
ATOM     35  C   UNL     1      -3.821  -4.454   2.120  0.00  0.00    +0.004 A 
ATOM     36  C   UNL     1      -4.876  -4.921   2.882  0.00  0.00    +0.000 A 
ATOM     37  C   UNL     1      -4.681  -5.958   3.776  0.00  0.00    +0.004 A 
ATOM     38  C   UNL     1      -3.432  -6.534   3.905  0.00  0.00    +0.045 A 
ENDBRANCH  32  33
ENDBRANCH  28  32
ENDBRANCH  11  28
TORSDOF 7
