REMARK  Name = ZINC36496317
REMARK  22 active torsions:
REMARK  status: ('A' for Active; 'I' for Inactive)
REMARK    1  A    between atoms: C_1  and  C_2
REMARK    2  A    between atoms: C_2  and  C_3
REMARK    3  A    between atoms: C_3  and  C_4
REMARK    4  A    between atoms: C_4  and  C_5
REMARK    5  A    between atoms: C_5  and  C_7
REMARK    6  A    between atoms: C_5  and  C_9
REMARK    7  A    between atoms: C_7  and  C_8
REMARK    8  A    between atoms: N_11  and  C_12
REMARK    9  A    between atoms: N_11  and  C_18
REMARK   10  A    between atoms: C_12  and  C_13
REMARK   11  A    between atoms: C_18  and  C_20
REMARK   12  A    between atoms: C_18  and  C_28
REMARK   13  A    between atoms: C_23  and  C_27
REMARK   14  A    between atoms: C_25  and  C_26
REMARK   15  A    between atoms: N_30  and  C_31
REMARK   16  A    between atoms: C_31  and  C_32
REMARK   17  A    between atoms: C_31  and  C_33
REMARK   18  A    between atoms: C_31  and  C_34
REMARK   19  A    between atoms: C_34  and  C_35
REMARK   20  A    between atoms: C_35  and  C_36
REMARK   21  A    between atoms: C_35  and  C_37
REMARK   22  A    between atoms: C_35  and  C_38
REMARK                            x       y       z     vdW  Elec       q    Type
REMARK                         _______ _______ _______ _____ _____    ______ ____
ROOT
ATOM      1  C   UNL     1      -2.538  -6.626   0.660  0.00  0.00    +0.193 C 
ENDROOT
BRANCH   1   2
ATOM      2  C   UNL     1      -2.983  -6.274  -0.736  0.00  0.00    -0.015 A 
ATOM      3  C   UNL     1      -4.231  -5.716  -0.944  0.00  0.00    +0.006 A 
ATOM      4  C   UNL     1      -4.638  -5.393  -2.225  0.00  0.00    +0.004 A 
ATOM      5  C   UNL     1      -3.798  -5.627  -3.297  0.00  0.00    -0.050 A 
ATOM      6  C   UNL     1      -2.550  -6.184  -3.089  0.00  0.00    +0.007 A 
ATOM      7  C   UNL     1      -2.140  -6.503  -1.808  0.00  0.00    -0.045 A 
ATOM      8  C   UNL     1      -0.778  -7.105  -1.580  0.00  0.00    +0.044 C 
ATOM      9  C   UNL     1      -4.243  -5.276  -4.694  0.00  0.00    +0.044 C 
ENDBRANCH   1   2
BRANCH   1  10
ATOM     10  C   UNL     1      -3.743  -6.738   1.558  0.00  0.00    +0.239 C 
ATOM     11  O   UNL     1      -3.988  -5.858   2.357  0.00  0.00    -0.273 OA
ATOM     12  N   UNL     1      -4.549  -7.815   1.473  0.00  0.00    -0.308 N 
ATOM     13  H   UNL     1      -4.313  -8.552   0.889  0.00  0.00    +0.149 HD
BRANCH  12  14
ATOM     14  C   UNL     1      -5.781  -7.872   2.264  0.00  0.00    +0.030 C 
ATOM     15  C   UNL     1      -5.430  -7.936   3.752  0.00  0.00    +0.031 C 
ATOM     16  C   UNL     1      -6.620  -6.622   1.992  0.00  0.00    +0.031 C 
BRANCH  14  17
ATOM     17  C   UNL     1      -6.580  -9.117   1.874  0.00  0.00    +0.031 C 
BRANCH  17  18
ATOM     18  C   UNL     1      -7.063  -8.981   0.429  0.00  0.00    -0.036 C 
ATOM     19  C   UNL     1      -5.919  -8.463  -0.445  0.00  0.00    +0.010 C 
ATOM     20  C   UNL     1      -7.520 -10.347  -0.087  0.00  0.00    +0.010 C 
ATOM     21  C   UNL     1      -8.234  -7.997   0.373  0.00  0.00    +0.010 C 
ENDBRANCH  17  18
ENDBRANCH  14  17
ENDBRANCH  12  14
ENDBRANCH   1  10
BRANCH   1  24
ATOM     22  C   UNL     1      -2.035  -4.289   1.134  0.00  0.00    +0.220 C 
ATOM     23  O   UNL     1      -3.089  -3.986   0.617  0.00  0.00    -0.275 OA
ATOM     24  N   UNL     1      -1.647  -5.579   1.167  0.00  0.00    -0.278 N 
BRANCH  22  25
ATOM     25  C   UNL     1      -1.158  -3.223   1.738  0.00  0.00    +0.075 C 
BRANCH  25  26
ATOM     26  C   UNL     1      -2.035  -2.126   2.346  0.00  0.00    +0.009 C 
ATOM     27  C   UNL     1      -2.793  -2.688   3.551  0.00  0.00    +0.004 C 
ENDBRANCH  25  26
BRANCH  25  28
ATOM     28  C   UNL     1      -0.266  -2.619   0.652  0.00  0.00    +0.013 C 
BRANCH  28  29
ATOM     29  C   UNL     1       0.710  -1.626   1.286  0.00  0.00    +0.000 C 
BRANCH  29  31
ATOM     30  C   UNL     1       2.577  -0.029   0.834  0.00  0.00    +0.004 C 
ATOM     31  C   UNL     1       1.601  -1.022   0.199  0.00  0.00    -0.003 C 
ENDBRANCH  29  31
ENDBRANCH  28  29
ENDBRANCH  25  28
ENDBRANCH  22  25
BRANCH  24  32
ATOM     32  C   UNL     1      -0.334  -5.936   1.711  0.00  0.00    +0.183 C 
BRANCH  32  33
ATOM     33  C   UNL     1      -0.471  -6.278   3.172  0.00  0.00    +0.122 A 
ATOM     34  C   UNL     1      -0.625  -7.514   3.680  0.00  0.00    +0.046 A 
ATOM     35  C   UNL     1      -0.712  -7.372   5.084  0.00  0.00    +0.041 A 
ATOM     36  C   UNL     1      -0.607  -6.058   5.350  0.00  0.00    +0.195 A 
ATOM     37  O   UNL     1      -0.456  -5.401   4.189  0.00  0.00    -0.466 OA
ENDBRANCH  32  33
ENDBRANCH  24  32
ENDBRANCH   1  24
TORSDOF 13
