REMARK  Name = ZINC59139748
REMARK  9 active torsions:
REMARK  status: ('A' for Active; 'I' for Inactive)
REMARK    1  A    between atoms: C_1  and  C_2
REMARK    2  A    between atoms: C_2  and  O_3
REMARK    3  A    between atoms: O_3  and  C_4
REMARK    4  A    between atoms: C_6  and  C_21
REMARK    5  A    between atoms: C_9  and  O_10
REMARK    6  A    between atoms: O_10  and  C_11
REMARK    7  A    between atoms: C_11  and  C_12
REMARK    8  A    between atoms: N_25  and  C_32
REMARK    9  A    between atoms: N_28  and  C_31
REMARK                            x       y       z     vdW  Elec       q    Type
REMARK                         _______ _______ _______ _____ _____    ______ ____
ROOT
ATOM      1  C   UNL     1      -1.673  -1.982  -0.217  0.00  0.00    +0.164 A 
ATOM      2  C   UNL     1      -0.545  -2.769  -0.327  0.00  0.00    +0.057 A 
ATOM      3  C   UNL     1      -0.585  -4.107   0.095  0.00  0.00    -0.019 A 
ATOM      4  C   UNL     1      -1.771  -4.635   0.627  0.00  0.00    +0.032 A 
ATOM      5  C   UNL     1      -2.890  -3.840   0.732  0.00  0.00    +0.087 A 
ATOM      6  C   UNL     1      -2.847  -2.513   0.318  0.00  0.00    +0.181 A 
ATOM      7 CL   UNL     1      -4.358  -4.494   1.389  0.00  0.00    -0.080 Cl
ENDROOT
BRANCH   3   8
ATOM      8  C   UNL     1       0.607  -4.948  -0.019  0.00  0.00    +0.026 C 
ATOM      9  C   UNL     1       0.503  -6.227  -0.530  0.00  0.00    +0.100 C 
ATOM     10  C   UNL     1      -0.737  -6.700  -1.179  0.00  0.00    +0.257 C 
ATOM     11  O   UNL     1      -1.706  -5.972  -1.281  0.00  0.00    -0.269 OA
ATOM     12  N   UNL     1      -0.764  -7.962  -1.654  0.00  0.00    -0.252 N 
ATOM     13  C   UNL     1       0.296  -8.775  -1.549  0.00  0.00    +0.148 C 
ATOM     14  S   UNL     1       0.167 -10.360  -2.183  0.00  0.00    -0.018 S 
ATOM     15  N   UNL     1       1.452  -8.414  -0.974  0.00  0.00    -0.252 N 
ATOM     16  C   UNL     1       1.628  -7.180  -0.459  0.00  0.00    +0.257 C 
ATOM     17  O   UNL     1       2.684  -6.862   0.055  0.00  0.00    -0.269 OA
ATOM     18  C   UNL     1       2.551  -9.380  -0.910  0.00  0.00    +0.140 C 
ATOM     19  C   UNL     1      -1.983  -8.456  -2.301  0.00  0.00    +0.140 C 
ENDBRANCH   3   8
BRANCH   1  20
ATOM     20  O   UNL     1      -1.638  -0.685  -0.625  0.00  0.00    -0.489 OA
BRANCH  20  22
ATOM     21  C   UNL     1      -0.556   1.262  -1.564  0.00  0.00    +0.048 C 
ATOM     22  C   UNL     1      -0.403  -0.207  -1.163  0.00  0.00    +0.226 C 
ENDBRANCH  20  22
ENDBRANCH   1  20
BRANCH   6  23
ATOM     23  O   UNL     1      -3.952  -1.733   0.430  0.00  0.00    -0.482 OA
BRANCH  23  24
ATOM     24  C   UNL     1      -4.850  -1.716  -0.681  0.00  0.00    +0.264 C 
BRANCH  24  25
ATOM     25  C   UNL     1      -6.009  -0.803  -0.377  0.00  0.00    -0.009 A 
ATOM     26  C   UNL     1      -7.141  -1.304   0.241  0.00  0.00    +0.008 A 
ATOM     27  C   UNL     1      -8.205  -0.467   0.520  0.00  0.00    +0.022 A 
ATOM     28  C   UNL     1      -8.138   0.873   0.182  0.00  0.00    +0.059 A 
ATOM     29  C   UNL     1      -7.005   1.375  -0.436  0.00  0.00    +0.060 A 
ATOM     30  C   UNL     1      -5.939   0.537  -0.710  0.00  0.00    +0.028 A 
ATOM     31 CL   UNL     1      -6.920   3.055  -0.861  0.00  0.00    -0.082 Cl
ATOM     32 CL   UNL     1      -9.475   1.924   0.532  0.00  0.00    -0.082 Cl
ENDBRANCH  24  25
ENDBRANCH  23  24
ENDBRANCH   6  23
TORSDOF 6
