REMARK  Name = ZINC37348053
REMARK  4 active torsions:
REMARK  status: ('A' for Active; 'I' for Inactive)
REMARK    1  A    between atoms: C_4  and  C_7
REMARK    2  A    between atoms: C_7  and  C_9
REMARK    3  A    between atoms: C_9  and  C_11
REMARK    4  A    between atoms: C_9  and  C_13
REMARK                            x       y       z     vdW  Elec       q    Type
REMARK                         _______ _______ _______ _____ _____    ______ ____
ROOT
ATOM      1  C   UNL     1       3.716  -2.186  -0.046  0.00  0.00    +0.192 C 
ENDROOT
BRANCH   1   2
ATOM      2  C   UNL     1       4.962  -2.672   0.649  0.00  0.00    -0.019 A 
ATOM      3  C   UNL     1       6.207  -2.309   0.168  0.00  0.00    +0.009 A 
ATOM      4  C   UNL     1       7.351  -2.753   0.801  0.00  0.00    +0.050 A 
ATOM      5  C   UNL     1       7.255  -3.564   1.923  0.00  0.00    +0.162 A 
ATOM      6  C   UNL     1       6.004  -3.927   2.408  0.00  0.00    +0.162 A 
ATOM      7  C   UNL     1       4.859  -3.474   1.769  0.00  0.00    +0.054 A 
ATOM      8  O   UNL     1       5.886  -4.716   3.511  0.00  0.00    -0.485 OA
ATOM      9  C   UNL     1       7.051  -5.449   3.905  0.00  0.00    +0.270 C 
ATOM     10  C   UNL     1       8.254  -4.496   3.869  0.00  0.00    +0.270 C 
ATOM     11  O   UNL     1       8.391  -3.998   2.534  0.00  0.00    -0.485 OA
ENDBRANCH   1   2
BRANCH   1  12
ATOM     12  C   UNL     1       3.691  -0.679  -0.038  0.00  0.00    +0.184 C 
ATOM     13  O   UNL     1       4.731  -0.056  -0.045  0.00  0.00    -0.290 OA
BRANCH  12  17
ATOM     14  C   UNL     1      -0.017   1.380   0.010  0.00  0.00    +0.000 A 
ATOM     15  C   UNL     1       1.168   2.095   0.002  0.00  0.00    +0.001 A 
ATOM     16  C   UNL     1       2.377   1.433  -0.013  0.00  0.00    +0.011 A 
ATOM     17  C   UNL     1       2.405   0.035  -0.021  0.00  0.00    +0.019 A 
ATOM     18  C   UNL     1       1.203  -0.681  -0.013  0.00  0.00    +0.011 A 
ATOM     19  C   UNL     1       0.002  -0.004   0.002  0.00  0.00    +0.001 A 
ENDBRANCH  12  17
ENDBRANCH   1  12
BRANCH   1  20
ATOM     20  C   UNL     1       3.710  -2.670  -1.437  0.00  0.00    +0.079 C 
ATOM     21  N   UNL     1       3.705  -3.042  -2.510  0.00  0.00    -0.195 NA
ENDBRANCH   1  20
TORSDOF 4
