REMARK  Name = ZINC03650646
REMARK  11 active torsions:
REMARK  status: ('A' for Active; 'I' for Inactive)
REMARK    1  A    between atoms: C_1  and  C_2
REMARK    2  A    between atoms: C_3  and  S_26
REMARK    3  A    between atoms: N_9  and  C_12
REMARK    4  A    between atoms: C_12  and  C_13
REMARK    5  A    between atoms: N_15  and  C_16
REMARK    6  A    between atoms: N_15  and  C_17
REMARK    7  A    between atoms: C_20  and  C_23
REMARK    8  A    between atoms: C_23  and  C_24
REMARK    9  A    between atoms: C_23  and  C_25
REMARK   10  A    between atoms: S_26  and  N_29
REMARK   11  A    between atoms: C_32  and  C_35
REMARK                            x       y       z     vdW  Elec       q    Type
REMARK                         _______ _______ _______ _____ _____    ______ ____
ROOT
ATOM      1  C   UNL     1       0.193   1.452  -0.111  0.00  0.00    +0.053 C 
ATOM      2  C   UNL     1       0.167  -0.052  -0.035  0.00  0.00    +0.016 A 
ATOM      3  C   UNL     1      -0.902  -0.864   0.017  0.00  0.00    +0.130 A 
ATOM      4  C   UNL     1      -0.698  -2.299   0.086  0.00  0.00    +0.099 A 
ATOM      5  C   UNL     1       0.647  -2.709   0.092  0.00  0.00    +0.117 A 
ATOM      6  S   UNL     1       1.546  -1.182  -0.001  0.00  0.00    -0.072 S 
ATOM      7  N   UNL     1       0.991  -3.993   0.151  0.00  0.00    -0.230 NA
ATOM      8  C   UNL     1       0.084  -4.930   0.207  0.00  0.00    +0.203 A 
ATOM      9  N   UNL     1      -1.240  -4.628   0.207  0.00  0.00    -0.290 N 
ATOM     10  C   UNL     1      -1.667  -3.353   0.149  0.00  0.00    +0.264 A 
ATOM     11  O   UNL     1      -2.859  -3.099   0.150  0.00  0.00    -0.267 OA
ENDROOT
BRANCH   3  12
ATOM     12  S   UNL     1      -2.531  -0.195   0.002  0.00  0.00    +0.062 S 
ATOM     13  O   UNL     1      -2.413   1.153  -0.432  0.00  0.00    -0.153 OA
ATOM     14  O   UNL     1      -3.353  -1.141  -0.667  0.00  0.00    -0.153 OA
BRANCH  12  15
ATOM     15  N   UNL     1      -3.053  -0.142   1.573  0.00  0.00    -0.177 NA
ATOM     16  C   UNL     1      -3.761  -1.285   2.166  0.00  0.00    +0.110 C 
ATOM     17  C   UNL     1      -5.087  -0.792   2.755  0.00  0.00    +0.020 C 
ATOM     18  C   UNL     1      -4.812   0.352   3.733  0.00  0.00    -0.012 C 
ATOM     19  C   UNL     1      -4.153   1.515   2.987  0.00  0.00    +0.020 C 
ATOM     20  C   UNL     1      -2.812   1.047   2.402  0.00  0.00    +0.110 C 
ATOM     21  C   UNL     1      -6.130   0.824   4.349  0.00  0.00    +0.007 C 
ENDBRANCH  12  15
ENDBRANCH   3  12
BRANCH   9  22
ATOM     22  C   UNL     1      -2.224  -5.712   0.271  0.00  0.00    +0.222 C 
BRANCH  22  23
ATOM     23  C   UNL     1      -2.546  -6.014   1.712  0.00  0.00    +0.239 C 
ATOM     24  O   UNL     1      -2.006  -5.386   2.598  0.00  0.00    -0.273 OA
ATOM     25  N   UNL     1      -3.432  -6.983   2.015  0.00  0.00    -0.273 N 
ATOM     26  C   UNL     1      -4.005  -7.811   0.951  0.00  0.00    +0.138 C 
BRANCH  25  27
ATOM     27  C   UNL     1      -3.806  -7.196   3.346  0.00  0.00    +0.036 A 
ATOM     28  C   UNL     1      -4.530  -6.228   4.030  0.00  0.00    +0.024 A 
ATOM     29  C   UNL     1      -4.897  -6.442   5.344  0.00  0.00    +0.006 A 
ATOM     30  C   UNL     1      -4.546  -7.619   5.979  0.00  0.00    -0.045 A 
ATOM     31  C   UNL     1      -3.825  -8.585   5.301  0.00  0.00    +0.006 A 
ATOM     32  C   UNL     1      -3.460  -8.380   3.985  0.00  0.00    +0.024 A 
BRANCH  30  33
ATOM     33  C   UNL     1      -4.949  -7.850   7.413  0.00  0.00    +0.013 C 
ATOM     34  C   UNL     1      -5.829  -9.098   7.501  0.00  0.00    +0.012 C 
ATOM     35  C   UNL     1      -3.696  -8.047   8.269  0.00  0.00    +0.012 C 
ENDBRANCH  30  33
ENDBRANCH  25  27
ENDBRANCH  22  23
ENDBRANCH   9  22
TORSDOF 6
