REMARK  Name = ZINC36548893
REMARK  18 active torsions:
REMARK  status: ('A' for Active; 'I' for Inactive)
REMARK    1  A    between atoms: C_1  and  C_2
REMARK    2  A    between atoms: C_2  and  C_3
REMARK    3  A    between atoms: C_3  and  C_4
REMARK    4  A    between atoms: C_3  and  C_6
REMARK    5  A    between atoms: C_4  and  C_5
REMARK    6  A    between atoms: C_6  and  C_8
REMARK    7  A    between atoms: C_6  and  N_19
REMARK    8  A    between atoms: N_10  and  C_11
REMARK    9  A    between atoms: C_11  and  C_12
REMARK   10  A    between atoms: C_11  and  C_13
REMARK   11  A    between atoms: C_11  and  C_14
REMARK   12  A    between atoms: C_14  and  C_15
REMARK   13  A    between atoms: C_15  and  C_16
REMARK   14  A    between atoms: C_15  and  C_17
REMARK   15  A    between atoms: C_15  and  C_18
REMARK   16  A    between atoms: N_19  and  C_20
REMARK   17  A    between atoms: C_27  and  C_29
REMARK   18  A    between atoms: C_29  and  C_31
REMARK                            x       y       z     vdW  Elec       q    Type
REMARK                         _______ _______ _______ _____ _____    ______ ____
ROOT
ATOM      1  C   UNL     1       1.783   0.986   2.519  0.00  0.00    +0.170 C 
ENDROOT
BRANCH   1   2
ATOM      2  C   UNL     1       1.308   2.253   3.182  0.00  0.00    +0.235 C 
ATOM      3  O   UNL     1       1.712   2.549   4.286  0.00  0.00    -0.274 OA
ATOM      4  N   UNL     1       0.433   3.058   2.546  0.00  0.00    -0.309 N 
ATOM      5  H   UNL     1       0.053   2.787   1.696  0.00  0.00    +0.149 HD
BRANCH   4   6
ATOM      6  C   UNL     1       0.057   4.344   3.139  0.00  0.00    +0.030 C 
ATOM      7  C   UNL     1      -0.737   4.100   4.424  0.00  0.00    +0.031 C 
ATOM      8  C   UNL     1       1.320   5.144   3.465  0.00  0.00    +0.031 C 
BRANCH   6   9
ATOM      9  C   UNL     1      -0.804   5.130   2.149  0.00  0.00    +0.031 C 
BRANCH   9  10
ATOM     10  C   UNL     1      -0.102   5.181   0.791  0.00  0.00    -0.036 C 
ATOM     11  C   UNL     1      -0.292   3.845   0.068  0.00  0.00    +0.010 C 
ATOM     12  C   UNL     1      -0.703   6.307  -0.053  0.00  0.00    +0.010 C 
ATOM     13  C   UNL     1       1.392   5.440   0.998  0.00  0.00    +0.010 C 
ENDBRANCH   9  10
ENDBRANCH   6   9
ENDBRANCH   4   6
ENDBRANCH   1   2
BRANCH   1  14
ATOM     14  N   UNL     1       2.749   0.312   3.391  0.00  0.00    -0.254 N 
ATOM     15  C   UNL     1       4.048   0.669   3.360  0.00  0.00    +0.247 C 
ATOM     16  O   UNL     1       4.790   0.347   4.268  0.00  0.00    -0.270 OA
BRANCH  14  17
ATOM     17  C   UNL     1       2.323  -0.702   4.255  0.00  0.00    +0.056 A 
ATOM     18  C   UNL     1       2.460  -2.034   3.886  0.00  0.00    +0.025 A 
ATOM     19  C   UNL     1       2.038  -3.033   4.742  0.00  0.00    +0.002 A 
ATOM     20  C   UNL     1       1.481  -2.708   5.965  0.00  0.00    +0.002 A 
ATOM     21  C   UNL     1       1.343  -1.384   6.336  0.00  0.00    +0.022 A 
ATOM     22  C   UNL     1       1.768  -0.379   5.487  0.00  0.00    +0.062 A 
ATOM     23 CL   UNL     1       1.601   1.284   5.957  0.00  0.00    -0.082 Cl
ENDBRANCH  14  17
BRANCH  15  24
ATOM     24  C   UNL     1       4.569   1.450   2.227  0.00  0.00    +0.005 C 
ATOM     25  C   UNL     1       5.842   1.837   2.215  0.00  0.00    +0.017 C 
ATOM     26  C   UNL     1       3.661   1.811   1.080  0.00  0.00    +0.048 C 
ENDBRANCH  15  24
ENDBRANCH   1  14
BRANCH   1  27
ATOM     27  C   UNL     1       0.589   0.061   2.271  0.00  0.00    +0.018 C 
BRANCH  27  29
ATOM     28  C   UNL     1       1.588  -0.967   0.225  0.00  0.00    +0.004 C 
ATOM     29  C   UNL     1       1.077  -1.244   1.640  0.00  0.00    +0.002 C 
ENDBRANCH  27  29
BRANCH  27  30
ATOM     30  C   UNL     1      -0.105  -0.243   3.600  0.00  0.00    +0.002 C 
ATOM     31  C   UNL     1      -0.746   1.036   4.145  0.00  0.00    +0.004 C 
ENDBRANCH  27  30
ENDBRANCH   1  27
TORSDOF 10
