REMARK  Name = ZINC63786404
REMARK  2 active torsions:
REMARK  status: ('A' for Active; 'I' for Inactive)
REMARK    1  A    between atoms: C_6  and  C_7
REMARK    2  A    between atoms: C_13  and  C_16
REMARK                            x       y       z     vdW  Elec       q    Type
REMARK                         _______ _______ _______ _____ _____    ______ ____
ROOT
ATOM      1  C   UNL     1      -1.266  -0.763   0.011  0.00  0.00    +0.182 A 
ATOM      2  N   UNL     1      -2.452  -0.283   0.293  0.00  0.00    -0.127 NA
ATOM      3  N   UNL     1      -3.333  -1.217   0.216  0.00  0.00    -0.120 NA
ATOM      4  C   UNL     1      -2.757  -2.337  -0.100  0.00  0.00    +0.211 A 
ATOM      5  N   UNL     1      -1.416  -2.115  -0.286  0.00  0.00    -0.220 N 
ATOM      6  N   UNL     1      -0.621  -3.145  -0.693  0.00  0.00    -0.265 N 
ATOM      7  C   UNL     1      -1.166  -4.502  -0.424  0.00  0.00    +0.184 C 
ATOM      8  S   UNL     1      -2.961  -4.079  -0.406  0.00  0.00    -0.058 S 
ATOM      9  H   UNL     1      -0.367  -3.043  -1.664  0.00  0.00    +0.168 HD
ENDROOT
BRANCH   1  15
ATOM     10  C   UNL     1      -0.017   1.392   0.010  0.00  0.00    +0.014 A 
ATOM     11  C   UNL     1       1.169   2.095   0.002  0.00  0.00    +0.039 A 
ATOM     12  C   UNL     1       2.379   1.418  -0.013  0.00  0.00    +0.123 A 
ATOM     13  C   UNL     1       2.403   0.033  -0.021  0.00  0.00    +0.039 A 
ATOM     14  C   UNL     1       1.223  -0.680  -0.014  0.00  0.00    +0.014 A 
ATOM     15  C   UNL     1       0.002  -0.004   0.002  0.00  0.00    +0.021 A 
ATOM     16  F   UNL     1       3.538   2.112  -0.021  0.00  0.00    -0.205 F 
ENDBRANCH   1  15
BRANCH   7  17
ATOM     17  C   UNL     1      -0.823  -5.480  -1.550  0.00  0.00    +0.198 C 
ATOM     18  C   UNL     1      -1.336  -6.872  -1.227  0.00  0.00    +0.044 C 
ATOM     19  C   UNL     1      -0.229  -7.620  -1.179  0.00  0.00    +0.147 C 
ATOM     20  N   UNL     1       0.866  -6.870  -1.426  0.00  0.00    -0.161 NA
ATOM     21  N   UNL     1       0.634  -5.674  -1.645  0.00  0.00    -0.176 NA
ATOM     22 BR   UNL     1      -3.126  -7.421  -0.956  0.00  0.00    -0.051 Br
ENDBRANCH   7  17
TORSDOF 2
