REMARK  Name = ZINC39684046
REMARK  6 active torsions:
REMARK  status: ('A' for Active; 'I' for Inactive)
REMARK    1  A    between atoms: C_1  and  C_2
REMARK    2  A    between atoms: C_7  and  C_11
REMARK    3  A    between atoms: C_11  and  C_12
REMARK    4  A    between atoms: C_12  and  N_13
REMARK    5  A    between atoms: C_14  and  C_16
REMARK    6  A    between atoms: C_27  and  C_29
REMARK                            x       y       z     vdW  Elec       q    Type
REMARK                         _______ _______ _______ _____ _____    ______ ____
ROOT
ATOM      1  C   UNL     1      -8.677   1.728  -6.213  0.00  0.00    +0.100 C 
ATOM      2  C   UNL     1      -8.195   2.855  -7.154  0.00  0.00    +0.121 C 
ATOM      3  N   UNL     1      -7.814   2.160  -8.406  0.00  0.00    -0.296 N 
ATOM      4  C   UNL     1      -8.850   1.114  -8.577  0.00  0.00    +0.115 C 
ATOM      5  C   UNL     1      -9.109   0.588  -7.151  0.00  0.00    -0.004 C 
ATOM      6  C   UNL     1     -10.592   0.282  -6.963  0.00  0.00    -0.010 C 
ATOM      7  C   UNL     1     -10.985  -0.892  -7.863  0.00  0.00    -0.082 C 
ATOM      8  N   UNL     1     -10.175  -2.067  -7.520  0.00  0.00    +0.379 N 
ATOM      9  C   UNL     1      -8.758  -1.796  -7.793  0.00  0.00    -0.082 C 
ATOM     10  C   UNL     1      -8.271  -0.659  -6.889  0.00  0.00    -0.010 C 
ATOM     11  C   UNL     1      -6.763   2.421  -9.208  0.00  0.00    +0.248 C 
ATOM     12  O   UNL     1      -5.941   3.255  -8.881  0.00  0.00    -0.270 OA
ATOM     13  H   UNL     1     -10.292  -2.281  -6.541  0.00  0.00    -0.086 HD
ATOM     14  H   UNL     1     -10.477  -2.856  -8.072  0.00  0.00    -0.086 HD
ENDROOT
BRANCH  11  15
ATOM     15  C   UNL     1      -6.610   1.694 -10.485  0.00  0.00    +0.055 A 
ATOM     16  C   UNL     1      -7.737   1.339 -11.229  0.00  0.00    +0.016 A 
ATOM     17  C   UNL     1      -7.588   0.661 -12.420  0.00  0.00    +0.021 A 
ATOM     18  C   UNL     1      -6.324   0.331 -12.880  0.00  0.00    +0.042 A 
ATOM     19  C   UNL     1      -5.202   0.679 -12.148  0.00  0.00    +0.040 A 
ATOM     20  C   UNL     1      -5.337   1.365 -10.957  0.00  0.00    +0.054 A 
ATOM     21 CL   UNL     1      -3.929   1.808 -10.043  0.00  0.00    -0.083 Cl
ATOM     22 CL   UNL     1      -6.145  -0.524 -14.380  0.00  0.00    -0.083 Cl
ENDBRANCH  11  15
BRANCH   1  24
ATOM     23  N   UNL     1      -7.819   0.802  -4.086  0.00  0.00    -0.315 N 
ATOM     24  C   UNL     1      -7.552   1.273  -5.320  0.00  0.00    +0.218 C 
ATOM     25  O   UNL     1      -6.405   1.331  -5.711  0.00  0.00    -0.275 OA
ATOM     26  H   UNL     1      -8.736   0.755  -3.773  0.00  0.00    +0.149 HD
BRANCH  23  27
ATOM     27  C   UNL     1      -6.725   0.360  -3.217  0.00  0.00    +0.109 C 
BRANCH  27  28
ATOM     28  C   UNL     1      -7.297  -0.125  -1.883  0.00  0.00    +0.056 C 
BRANCH  28  35
ATOM     29  C   UNL     1      -2.538  -0.975   2.111  0.00  0.00    +0.046 C 
ATOM     30  C   UNL     1      -3.528  -0.069   1.424  0.00  0.00    -0.027 A 
ATOM     31  C   UNL     1      -3.528   1.283   1.692  0.00  0.00    +0.005 A 
ATOM     32  C   UNL     1      -4.434   2.128   1.067  0.00  0.00    +0.001 A 
ATOM     33  C   UNL     1      -5.343   1.633   0.174  0.00  0.00    +0.010 A 
ATOM     34  C   UNL     1      -5.360   0.267  -0.112  0.00  0.00    +0.003 A 
ATOM     35  C   UNL     1      -6.172  -0.579  -0.990  0.00  0.00    -0.021 A 
ATOM     36  C   UNL     1      -5.724  -1.837  -0.847  0.00  0.00    +0.087 A 
ATOM     37  N   UNL     1      -4.691  -1.865   0.050  0.00  0.00    -0.360 N 
ATOM     38  C   UNL     1      -4.440  -0.593   0.515  0.00  0.00    +0.050 A 
ATOM     39  H   UNL     1      -4.206  -2.661   0.317  0.00  0.00    +0.165 HD
ENDBRANCH  28  35
ENDBRANCH  27  28
ENDBRANCH  23  27
ENDBRANCH   1  24
TORSDOF 5
