REMARK  Name = ZINC11196587
REMARK  9 active torsions:
REMARK  status: ('A' for Active; 'I' for Inactive)
REMARK    1  A    between atoms: C_1  and  C_2
REMARK    2  A    between atoms: C_5  and  N_8
REMARK    3  A    between atoms: C_9  and  C_28
REMARK    4  A    between atoms: C_12  and  S_13
REMARK    5  A    between atoms: S_13  and  C_14
REMARK    6  A    between atoms: C_14  and  C_15
REMARK    7  A    between atoms: N_17  and  C_18
REMARK    8  A    between atoms: C_22  and  S_24
REMARK    9  A    between atoms: S_24  and  N_27
REMARK                            x       y       z     vdW  Elec       q    Type
REMARK                         _______ _______ _______ _____ _____    ______ ____
ROOT
ATOM      1  N   UNL     1      -6.546   1.052   0.307  0.00  0.00    -0.270 N 
ATOM      2  C   UNL     1      -7.183  -0.164   0.419  0.00  0.00    +0.169 A 
ATOM      3  N   UNL     1      -6.250  -1.087   0.442  0.00  0.00    -0.128 NA
ATOM      4  N   UNL     1      -5.090  -0.542   0.349  0.00  0.00    -0.122 NA
ATOM      5  C   UNL     1      -5.209   0.764   0.261  0.00  0.00    +0.197 A 
ENDROOT
BRANCH   1  10
ATOM      6  C   UNL     1      -8.962   6.183   0.079  0.00  0.00    +0.044 C 
ATOM      7  C   UNL     1      -8.320   4.821   0.140  0.00  0.00    -0.050 A 
ATOM      8  C   UNL     1      -7.622   4.338  -0.952  0.00  0.00    +0.005 A 
ATOM      9  C   UNL     1      -7.033   3.089  -0.899  0.00  0.00    +0.026 A 
ATOM     10  C   UNL     1      -7.142   2.320   0.251  0.00  0.00    +0.051 A 
ATOM     11  C   UNL     1      -7.848   2.806   1.343  0.00  0.00    +0.026 A 
ATOM     12  C   UNL     1      -8.431   4.057   1.287  0.00  0.00    +0.005 A 
ENDBRANCH   1  10
BRANCH   2  13
ATOM     13  C   UNL     1      -8.642  -0.387   0.503  0.00  0.00    +0.020 A 
ATOM     14  C   UNL     1      -9.528   0.636   0.163  0.00  0.00    +0.011 A 
ATOM     15  C   UNL     1     -10.889   0.419   0.239  0.00  0.00    +0.001 A 
ATOM     16  C   UNL     1     -11.375  -0.806   0.661  0.00  0.00    +0.000 A 
ATOM     17  C   UNL     1     -10.501  -1.823   1.004  0.00  0.00    +0.001 A 
ATOM     18  C   UNL     1      -9.139  -1.621   0.928  0.00  0.00    +0.011 A 
ENDBRANCH   2  13
BRANCH   5  19
ATOM     19  S   UNL     1      -3.893   1.927   0.117  0.00  0.00    -0.076 S 
BRANCH  19  20
ATOM     20  C   UNL     1      -2.476   0.802   0.132  0.00  0.00    +0.173 C 
BRANCH  20  21
ATOM     21  C   UNL     1      -1.202   1.598   0.017  0.00  0.00    +0.227 C 
ATOM     22  O   UNL     1      -1.247   2.807  -0.067  0.00  0.00    -0.275 OA
ATOM     23  N   UNL     1      -0.011   0.966   0.007  0.00  0.00    -0.285 N 
ATOM     24  H   UNL     1       0.023  -0.004   0.007  0.00  0.00    +0.155 HD
BRANCH  23  25
ATOM     25  C   UNL     1       1.175   1.708  -0.008  0.00  0.00    +0.035 A 
ATOM     26  C   UNL     1       1.238   2.906  -0.708  0.00  0.00    +0.023 A 
ATOM     27  C   UNL     1       2.408   3.639  -0.717  0.00  0.00    +0.004 A 
ATOM     28  C   UNL     1       3.520   3.176  -0.038  0.00  0.00    +0.028 A 
ATOM     29  C   UNL     1       3.463   1.981   0.656  0.00  0.00    +0.107 A 
ATOM     30  C   UNL     1       2.294   1.246   0.673  0.00  0.00    +0.051 A 
BRANCH  29  31
ATOM     31  S   UNL     1       4.883   1.396   1.520  0.00  0.00    +0.056 S 
ATOM     32  O   UNL     1       5.685   2.534   1.801  0.00  0.00    -0.153 OA
ATOM     33  O   UNL     1       4.409   0.527   2.539  0.00  0.00    -0.153 OA
BRANCH  31  34
ATOM     34  N   UNL     1       5.746   0.458   0.463  0.00  0.00    -0.204 NA
ATOM     35  H   UNL     1       5.426   0.328  -0.444  0.00  0.00    +0.144 HD
ATOM     36  H   UNL     1       6.572   0.038   0.750  0.00  0.00    +0.144 HD
ENDBRANCH  31  34
ENDBRANCH  29  31
ENDBRANCH  23  25
ENDBRANCH  20  21
ENDBRANCH  19  20
ENDBRANCH   5  19
TORSDOF 8
