REMARK  Name = ZINC39990263
REMARK  11 active torsions:
REMARK  status: ('A' for Active; 'I' for Inactive)
REMARK    1  A    between atoms: C_1  and  C_2
REMARK    2  A    between atoms: C_2  and  C_3
REMARK    3  A    between atoms: C_3  and  N_4
REMARK    4  A    between atoms: C_5  and  N_29
REMARK    5  A    between atoms: C_6  and  C_14
REMARK    6  A    between atoms: C_7  and  C_13
REMARK    7  A    between atoms: C_8  and  C_11
REMARK    8  A    between atoms: N_18  and  C_22
REMARK    9  A    between atoms: C_22  and  C_23
REMARK   10  A    between atoms: C_31  and  C_38
REMARK   11  A    between atoms: C_34  and  C_37
REMARK                            x       y       z     vdW  Elec       q    Type
REMARK                         _______ _______ _______ _____ _____    ______ ____
ROOT
ATOM      1  N   UNL     1       0.609  -1.993  -0.545  0.00  0.00    -0.295 N 
ATOM      2  C   UNL     1       1.819  -2.486  -0.177  0.00  0.00    +0.112 A 
ATOM      3  C   UNL     1       2.199  -3.789  -0.540  0.00  0.00    +0.019 A 
ATOM      4  C   UNL     1       1.314  -4.583  -1.289  0.00  0.00    -0.017 A 
ATOM      5  C   UNL     1       0.079  -4.054  -1.653  0.00  0.00    +0.120 A 
ATOM      6  C   UNL     1      -0.258  -2.735  -1.257  0.00  0.00    +0.270 A 
ATOM      7  O   UNL     1      -1.340  -2.268  -1.568  0.00  0.00    -0.266 OA
ATOM      8  C   UNL     1       1.696  -5.984  -1.692  0.00  0.00    +0.046 C 
ENDROOT
BRANCH   3   9
ATOM      9  C   UNL     1       3.506  -4.315  -0.142  0.00  0.00    +0.032 C 
ATOM     10  C   UNL     1       3.583  -5.404   0.670  0.00  0.00    +0.077 C 
ATOM     11  C   UNL     1       4.729  -6.144   1.092  0.00  0.00    +0.258 C 
ATOM     12  O   UNL     1       5.847  -5.832   0.724  0.00  0.00    -0.269 OA
ATOM     13  N   UNL     1       4.540  -7.177   1.894  0.00  0.00    -0.253 N 
ATOM     14  C   UNL     1       3.299  -7.523   2.302  0.00  0.00    +0.121 C 
ATOM     15  S   UNL     1       2.826  -8.809   3.328  0.00  0.00    -0.027 S 
ATOM     16  S   UNL     1       2.276  -6.294   1.505  0.00  0.00    -0.061 S 
BRANCH  13  17
ATOM     17  C   UNL     1       5.692  -7.959   2.348  0.00  0.00    +0.146 C 
BRANCH  17  18
ATOM     18  C   UNL     1       6.230  -7.367   3.652  0.00  0.00    +0.136 C 
ATOM     19  C   UNL     1       7.516  -8.109   4.073  0.00  0.00    +0.035 C 
ATOM     20  C   UNL     1       7.352  -8.204   5.615  0.00  0.00    +0.031 C 
ATOM     21  C   UNL     1       5.816  -8.367   5.737  0.00  0.00    +0.160 C 
ATOM     22  O   UNL     1       5.266  -7.539   4.697  0.00  0.00    -0.375 OA
ENDBRANCH  17  18
ENDBRANCH  13  17
ENDBRANCH   3   9
BRANCH   2  23
ATOM     23  N   UNL     1       2.674  -1.710   0.550  0.00  0.00    -0.311 N 
ATOM     24  C   UNL     1       2.446  -1.470   1.983  0.00  0.00    +0.137 C 
ATOM     25  C   UNL     1       3.744  -1.777   2.738  0.00  0.00    +0.133 C 
ATOM     26  O   UNL     1       4.820  -1.052   2.136  0.00  0.00    -0.371 OA
ATOM     27  C   UNL     1       5.082  -1.414   0.778  0.00  0.00    +0.133 C 
ATOM     28  C   UNL     1       3.855  -1.093  -0.075  0.00  0.00    +0.137 C 
ATOM     29  C   UNL     1       6.287  -0.624   0.262  0.00  0.00    +0.039 C 
ATOM     30  C   UNL     1       4.035  -3.277   2.667  0.00  0.00    +0.039 C 
ENDBRANCH   2  23
BRANCH   5  31
ATOM     31  C   UNL     1      -0.845  -4.838  -2.416  0.00  0.00    +0.105 C 
ATOM     32  N   UNL     1      -1.579  -5.459  -3.022  0.00  0.00    -0.191 NA
ENDBRANCH   5  31
BRANCH   1  33
ATOM     33  C   UNL     1       0.238  -0.631  -0.153  0.00  0.00    +0.126 C 
BRANCH  33  35
ATOM     34  C   UNL     1      -0.913   0.746   1.585  0.00  0.00    +0.005 C 
ATOM     35  C   UNL     1      -0.620  -0.679   1.112  0.00  0.00    +0.018 C 
ENDBRANCH  33  35
ENDBRANCH   1  33
TORSDOF 7
