REMARK  Name = ZINC37950908
REMARK  6 active torsions:
REMARK  status: ('A' for Active; 'I' for Inactive)
REMARK    1  A    between atoms: C_1  and  C_2
REMARK    2  A    between atoms: C_2  and  C_3
REMARK    3  A    between atoms: C_2  and  C_11
REMARK    4  A    between atoms: C_2  and  N_14
REMARK    5  A    between atoms: C_6  and  S_9
REMARK    6  A    between atoms: S_9  and  C_10
REMARK                            x       y       z     vdW  Elec       q    Type
REMARK                         _______ _______ _______ _____ _____    ______ ____
ROOT
ATOM      1  C   UNL     1       0.447   1.393  -0.396  0.00  0.00    +0.043 C 
ATOM      2  C   UNL     1      -0.006  -0.010   0.013  0.00  0.00    +0.121 C 
ENDROOT
BRANCH   2   3
ATOM      3  N   UNL     1      -1.365   0.056   0.566  0.00  0.00    -0.287 NA
ATOM      4  C   UNL     1      -2.329   0.545  -0.448  0.00  0.00    +0.084 C 
ATOM      5  C   UNL     1      -3.704   0.049  -0.080  0.00  0.00    -0.004 C 
ATOM      6  C   UNL     1      -4.482   1.053   0.786  0.00  0.00    -0.081 C 
ATOM      7  N   UNL     1      -3.640   1.682   1.828  0.00  0.00    +0.380 N 
ATOM      8  C   UNL     1      -2.754   0.732   2.462  0.00  0.00    -0.067 C 
ATOM      9  C   UNL     1      -1.387   0.791   1.755  0.00  0.00    +0.067 C 
ATOM     10  H   UNL     1      -3.088   2.413   1.406  0.00  0.00    -0.086 HD
ATOM     11  H   UNL     1      -4.238   2.090   2.530  0.00  0.00    -0.086 HD
ENDBRANCH   2   3
BRANCH   2  12
ATOM     12  C   UNL     1       0.935  -0.557   1.055  0.00  0.00    -0.019 A 
ATOM     13  C   UNL     1       0.460  -1.412   2.033  0.00  0.00    +0.007 A 
ATOM     14  C   UNL     1       1.319  -1.916   2.989  0.00  0.00    +0.015 A 
ATOM     15  C   UNL     1       2.663  -1.562   2.969  0.00  0.00    +0.008 A 
ATOM     16  C   UNL     1       3.137  -0.703   1.984  0.00  0.00    +0.015 A 
ATOM     17  C   UNL     1       2.273  -0.208   1.028  0.00  0.00    +0.007 A 
BRANCH  15  18
ATOM     18  S   UNL     1       3.763  -2.201   4.188  0.00  0.00    -0.129 S 
ATOM     19  C   UNL     1       5.367  -1.474   3.756  0.00  0.00    +0.090 C 
ENDBRANCH  15  18
ENDBRANCH   2  12
BRANCH   2  20
ATOM     20  C   UNL     1       0.002  -0.912  -1.194  0.00  0.00    +0.235 C 
ATOM     21  O   UNL     1       0.744  -0.676  -2.123  0.00  0.00    -0.274 OA
ATOM     22  N   UNL     1      -0.818  -1.982  -1.242  0.00  0.00    -0.328 N 
ATOM     23  H   UNL     1      -1.362  -2.210  -0.472  0.00  0.00    +0.145 HD
ATOM     24  H   UNL     1      -0.862  -2.523  -2.045  0.00  0.00    +0.145 HD
ENDBRANCH   2  20
TORSDOF 4
