REMARK  Name = ZINC18024257
REMARK  8 active torsions:
REMARK  status: ('A' for Active; 'I' for Inactive)
REMARK    1  A    between atoms: C_1  and  C_2
REMARK    2  A    between atoms: C_4  and  C_5
REMARK    3  A    between atoms: C_4  and  S_8
REMARK    4  A    between atoms: C_5  and  C_7
REMARK    5  A    between atoms: S_8  and  C_9
REMARK    6  A    between atoms: C_14  and  N_18
REMARK    7  A    between atoms: C_15  and  N_17
REMARK    8  A    between atoms: C_19  and  C_21
REMARK                            x       y       z     vdW  Elec       q    Type
REMARK                         _______ _______ _______ _____ _____    ______ ____
ROOT
ATOM      1  C   UNL     1      -0.395  -0.824  -0.612  0.00  0.00    +0.176 A 
ATOM      2  N   UNL     1       0.077  -2.000  -0.108  0.00  0.00    -0.300 N 
ATOM      3  H   UNL     1       0.016  -2.811  -0.636  0.00  0.00    +0.171 HD
ATOM      4  C   UNL     1       0.630  -2.037   1.122  0.00  0.00    +0.275 A 
ATOM      5  O   UNL     1       1.056  -3.086   1.581  0.00  0.00    -0.266 OA
ATOM      6  C   UNL     1       0.708  -0.850   1.865  0.00  0.00    +0.139 A 
ATOM      7  C   UNL     1       0.211   0.323   1.303  0.00  0.00    +0.146 A 
ATOM      8  N   UNL     1      -0.321   0.296   0.077  0.00  0.00    -0.207 NA
ENDROOT
BRANCH   6   9
ATOM      9  N   UNL     1       1.277  -0.844   3.153  0.00  0.00    -0.274 N 
ATOM     10  C   UNL     1       2.553  -1.242   3.328  0.00  0.00    +0.248 C 
ATOM     11  O   UNL     1       3.241  -1.520   2.364  0.00  0.00    -0.270 OA
ATOM     12  H   UNL     1       0.751  -0.554   3.914  0.00  0.00    +0.155 HD
BRANCH  10  13
ATOM     13  C   UNL     1       3.116  -1.340   4.690  0.00  0.00    +0.037 A 
ATOM     14  C   UNL     1       2.327  -1.027   5.799  0.00  0.00    +0.014 A 
ATOM     15  C   UNL     1       2.858  -1.121   7.068  0.00  0.00    +0.016 A 
ATOM     16  C   UNL     1       4.171  -1.524   7.244  0.00  0.00    +0.018 A 
ATOM     17  C   UNL     1       4.959  -1.836   6.149  0.00  0.00    +0.016 A 
ATOM     18  C   UNL     1       4.437  -1.751   4.875  0.00  0.00    +0.014 A 
ATOM     19 BR   UNL     1       4.892  -1.650   8.988  0.00  0.00    -0.050 Br
ENDBRANCH  10  13
ENDBRANCH   6   9
BRANCH   7  20
ATOM     20  N   UNL     1       0.272   1.511   2.009  0.00  0.00    -0.341 N 
ATOM     21  H   UNL     1       0.662   1.528   2.897  0.00  0.00    +0.144 HD
ATOM     22  H   UNL     1      -0.075   2.327   1.615  0.00  0.00    +0.144 HD
ENDBRANCH   7  20
BRANCH   1  23
ATOM     23  S   UNL     1      -1.112  -0.802  -2.221  0.00  0.00    -0.045 S 
BRANCH  23  27
ATOM     24  C   UNL     1      -3.878   0.427  -2.365  0.00  0.00    +0.092 C 
ATOM     25  C   UNL     1      -2.727   1.363  -2.629  0.00  0.00    +0.170 C 
ATOM     26  O   UNL     1      -2.943   2.528  -2.935  0.00  0.00    -0.292 OA
ATOM     27  C   UNL     1      -1.424   0.905  -2.525  0.00  0.00    +0.100 C 
BRANCH  27  28
ATOM     28  C   UNL     1      -0.366   1.789  -2.660  0.00  0.00    +0.170 C 
ATOM     29  O   UNL     1      -0.580   2.958  -2.952  0.00  0.00    -0.292 OA
ATOM     30  C   UNL     1       1.047   1.312  -2.447  0.00  0.00    +0.092 C 
ENDBRANCH  27  28
ENDBRANCH  23  27
ENDBRANCH   1  23
TORSDOF 6
