REMARK  Name = ZINC20836751
REMARK  7 active torsions:
REMARK  status: ('A' for Active; 'I' for Inactive)
REMARK    1  A    between atoms: N_5  and  N_6
REMARK    2  A    between atoms: C_9  and  S_12
REMARK    3  A    between atoms: S_12  and  C_13
REMARK    4  A    between atoms: C_13  and  C_14
REMARK    5  A    between atoms: C_20  and  S_22
REMARK    6  A    between atoms: S_22  and  C_23
REMARK    7  A    between atoms: C_23  and  C_24
REMARK                            x       y       z     vdW  Elec       q    Type
REMARK                         _______ _______ _______ _____ _____    ______ ____
ROOT
ATOM      1  C   UNL     1       0.524  -4.400  -0.026  0.00  0.00    +0.173 C 
ENDROOT
BRANCH   1   2
ATOM      2  C   UNL     1       0.294  -2.910  -0.016  0.00  0.00    +0.229 C 
ATOM      3  O   UNL     1      -0.836  -2.471  -0.003  0.00  0.00    -0.275 OA
ATOM      4  N   UNL     1       1.345  -2.067  -0.021  0.00  0.00    -0.263 N 
ATOM      5  C   UNL     1       1.133  -0.690  -0.013  0.00  0.00    +0.189 A 
ATOM      6  N   UNL     1       0.002  -0.004   0.002  0.00  0.00    -0.125 NA
ATOM      7  N   UNL     1      -0.015   1.257   0.009  0.00  0.00    -0.133 NA
ATOM      8  C   UNL     1       1.100   1.973   0.002  0.00  0.00    +0.160 A 
ATOM      9  S   UNL     1       2.314   0.656  -0.017  0.00  0.00    -0.024 S 
ATOM     10  H   UNL     1       2.370  -2.465  -0.033  0.00  0.00    +0.157 HD
BRANCH   8  11
ATOM     11  S   UNL     1       1.324   3.720   0.009  0.00  0.00    -0.088 S 
BRANCH  11  12
ATOM     12  C   UNL     1      -0.365   4.380   0.028  0.00  0.00    +0.171 C 
BRANCH  12  13
ATOM     13  C   UNL     1      -0.317   5.886   0.035  0.00  0.00    +0.221 C 
ATOM     14  O   UNL     1       0.752   6.458   0.028  0.00  0.00    -0.275 OA
ATOM     15  N   UNL     1      -1.462   6.597   0.050  0.00  0.00    -0.329 N 
ATOM     16  H   UNL     1      -1.426   7.697   0.055  0.00  0.00    +0.145 HD
ATOM     17  H   UNL     1      -2.431   6.078   0.057  0.00  0.00    +0.145 HD
ENDBRANCH  12  13
ENDBRANCH  11  12
ENDBRANCH   8  11
ENDBRANCH   1   2
BRANCH   1  18
ATOM     18  S   UNL     1      -1.074  -5.258  -0.015  0.00  0.00    -0.075 S 
BRANCH  18  22
ATOM     19  N   UNL     1      -1.301 -10.461  -0.041  0.00  0.00    -0.205 N 
ATOM     20  C   UNL     1      -0.786  -9.172  -0.039  0.00  0.00    +0.232 A 
ATOM     21  N   UNL     1      -1.515  -8.016  -0.025  0.00  0.00    -0.186 NA
ATOM     22  C   UNL     1      -0.641  -6.966  -0.028  0.00  0.00    +0.211 A 
ATOM     23  N   UNL     1       0.577  -7.452  -0.048  0.00  0.00    -0.144 NA
ATOM     24  N   UNL     1       0.485  -8.850  -0.049  0.00  0.00    -0.245 N 
ATOM     25  H   UNL     1      -2.389 -10.619  -0.032  0.00  0.00    +0.177 HD
ATOM     26  H   UNL     1       1.252  -9.638  -0.057  0.00  0.00    +0.192 HD
BRANCH  19  31
ATOM     27  C   UNL     1      -2.436 -14.674  -0.044  0.00  0.00    +0.006 C 
ATOM     28  C   UNL     1      -1.062 -15.096   0.537  0.00  0.00    +0.006 C 
ATOM     29  C   UNL     1      -0.107 -14.040  -0.072  0.00  0.00    +0.052 C 
ATOM     30  C   UNL     1      -0.909 -12.751  -0.057  0.00  0.00    +0.037 C 
ATOM     31  N   UNL     1      -0.434 -11.562  -0.055  0.00  0.00    -0.189 NA
ATOM     32  C   UNL     1      -2.374 -13.132  -0.039  0.00  0.00    +0.052 C 
ENDBRANCH  19  31
ENDBRANCH  18  22
ENDBRANCH   1  18
TORSDOF 7
