REMARK  Name = ZINC01094501
REMARK  6 active torsions:
REMARK  status: ('A' for Active; 'I' for Inactive)
REMARK    1  A    between atoms: C_1  and  N_2
REMARK    2  A    between atoms: N_7  and  C_10
REMARK    3  A    between atoms: C_11  and  C_24
REMARK    4  A    between atoms: C_27  and  O_30
REMARK    5  A    between atoms: O_30  and  C_31
REMARK    6  A    between atoms: C_31  and  C_33
REMARK                            x       y       z     vdW  Elec       q    Type
REMARK                         _______ _______ _______ _____ _____    ______ ____
ROOT
ATOM      1  C   UNL     1      -3.786   7.344  -0.493  0.00  0.00    +0.155 C 
ATOM      2  N   UNL     1      -4.784   6.271  -0.493  0.00  0.00    -0.284 N 
ATOM      3  C   UNL     1      -4.393   4.975  -0.238  0.00  0.00    +0.116 A 
ATOM      4  C   UNL     1      -5.326   3.984  -0.235  0.00  0.00    +0.067 A 
ATOM      5  C   UNL     1      -6.670   4.314  -0.502  0.00  0.00    +0.262 A 
ATOM      6  O   UNL     1      -7.523   3.443  -0.508  0.00  0.00    -0.267 OA
ATOM      7  N   UNL     1      -7.009   5.593  -0.748  0.00  0.00    -0.264 N 
ATOM      8  C   UNL     1      -6.073   6.560  -0.742  0.00  0.00    +0.333 A 
ATOM      9  O   UNL     1      -6.397   7.710  -0.965  0.00  0.00    -0.246 OA
ATOM     10  C   UNL     1      -8.406   5.935  -1.025  0.00  0.00    +0.157 C 
ATOM     11  C   UNL     1      -4.978   2.545   0.019  0.00  0.00    +0.093 C 
ATOM     12  C   UNL     1      -3.483   2.367  -0.043  0.00  0.00    +0.034 C 
ATOM     13  C   UNL     1      -2.612   3.426  -0.036  0.00  0.00    +0.048 C 
ATOM     14  N   UNL     1      -3.058   4.728   0.006  0.00  0.00    -0.299 N 
ATOM     15  C   UNL     1      -1.238   2.916  -0.099  0.00  0.00    +0.007 A 
ATOM     16  C   UNL     1      -0.011   3.560  -0.128  0.00  0.00    +0.010 A 
ATOM     17  C   UNL     1       1.127   2.752  -0.193  0.00  0.00    +0.001 A 
ATOM     18  C   UNL     1       1.045   1.380  -0.227  0.00  0.00    +0.001 A 
ATOM     19  C   UNL     1      -0.185   0.714  -0.197  0.00  0.00    +0.012 A 
ATOM     20  C   UNL     1      -1.320   1.501  -0.139  0.00  0.00    +0.031 A 
ATOM     21  C   UNL     1      -2.758   1.156  -0.098  0.00  0.00    +0.193 C 
ATOM     22  O   UNL     1      -3.229   0.035  -0.110  0.00  0.00    -0.287 OA
ATOM     23  H   UNL     1      -2.448   5.456   0.203  0.00  0.00    +0.154 HD
ENDROOT
BRANCH  11  24
ATOM     24  C   UNL     1      -5.473   2.168   1.391  0.00  0.00    -0.035 A 
ATOM     25  C   UNL     1      -5.005   2.843   2.503  0.00  0.00    +0.008 A 
ATOM     26  C   UNL     1      -5.460   2.503   3.762  0.00  0.00    +0.046 A 
ATOM     27  C   UNL     1      -6.380   1.475   3.911  0.00  0.00    +0.132 A 
ATOM     28  C   UNL     1      -6.845   0.795   2.795  0.00  0.00    +0.046 A 
ATOM     29  C   UNL     1      -6.390   1.143   1.537  0.00  0.00    +0.008 A 
BRANCH  27  30
ATOM     30  O   UNL     1      -6.826   1.135   5.149  0.00  0.00    -0.422 OA
BRANCH  30  31
ATOM     31  C   UNL     1      -6.434  -0.060   5.633  0.00  0.00    +0.344 C 
ATOM     32  O   UNL     1      -5.632  -0.732   5.016  0.00  0.00    -0.245 OA
BRANCH  31  33
ATOM     33  C   UNL     1      -6.980  -0.553   6.914  0.00  0.00    +0.059 A 
ATOM     34  C   UNL     1      -7.897   0.220   7.629  0.00  0.00    +0.016 A 
ATOM     35  C   UNL     1      -8.408  -0.249   8.821  0.00  0.00    +0.016 A 
ATOM     36  C   UNL     1      -8.003  -1.478   9.316  0.00  0.00    +0.018 A 
ATOM     37  C   UNL     1      -7.089  -2.246   8.614  0.00  0.00    +0.016 A 
ATOM     38  C   UNL     1      -6.576  -1.791   7.418  0.00  0.00    +0.016 A 
ATOM     39 BR   UNL     1      -8.703  -2.109  10.955  0.00  0.00    -0.050 Br
ENDBRANCH  31  33
ENDBRANCH  30  31
ENDBRANCH  27  30
ENDBRANCH  11  24
TORSDOF 4
