REMARK  Name = ZINC26291642
REMARK  3 active torsions:
REMARK  status: ('A' for Active; 'I' for Inactive)
REMARK    1  A    between atoms: C_6  and  S_7
REMARK    2  A    between atoms: S_7  and  N_10
REMARK    3  A    between atoms: N_21  and  C_24
REMARK                            x       y       z     vdW  Elec       q    Type
REMARK                         _______ _______ _______ _____ _____    ______ ____
ROOT
ATOM      1  N   UNL     1      -0.225   2.281  -2.173  0.00  0.00    -0.174 NA
ATOM      2  C   UNL     1      -0.976   1.345  -3.022  0.00  0.00    +0.128 C 
ATOM      3  C   UNL     1      -2.476   1.529  -2.737  0.00  0.00    +0.126 C 
ATOM      4  N   UNL     1      -2.795   2.962  -2.808  0.00  0.00    -0.283 N 
ATOM      5  C   UNL     1      -2.040   3.898  -1.963  0.00  0.00    +0.126 C 
ATOM      6  C   UNL     1      -0.543   3.714  -2.244  0.00  0.00    +0.128 C 
ATOM      7  C   UNL     1      -3.761   3.409  -3.634  0.00  0.00    +0.305 C 
ATOM      8  O   UNL     1      -3.883   4.602  -3.837  0.00  0.00    -0.252 OA
ATOM      9  N   UNL     1      -4.594   2.535  -4.233  0.00  0.00    -0.282 N 
ATOM     10  C   UNL     1      -4.814   1.195  -3.670  0.00  0.00    +0.128 C 
ATOM     11  C   UNL     1      -6.329   0.965  -3.551  0.00  0.00    +0.124 C 
ATOM     12  N   UNL     1      -6.959   1.201  -4.857  0.00  0.00    -0.326 N 
ATOM     13  C   UNL     1      -6.792   2.596  -5.285  0.00  0.00    +0.124 C 
ATOM     14  C   UNL     1      -5.301   2.894  -5.472  0.00  0.00    +0.128 C 
ENDROOT
BRANCH  12  15
ATOM     15  C   UNL     1      -8.305   0.843  -4.834  0.00  0.00    +0.051 A 
ATOM     16  C   UNL     1      -9.210   1.516  -4.014  0.00  0.00    +0.042 A 
ATOM     17  C   UNL     1     -10.535   1.135  -4.024  0.00  0.00    +0.084 A 
ATOM     18  N   UNL     1     -10.948   0.141  -4.788  0.00  0.00    -0.366 N 
ATOM     19  C   UNL     1     -10.123  -0.524  -5.574  0.00  0.00    +0.104 A 
ATOM     20  C   UNL     1      -8.782  -0.202  -5.626  0.00  0.00    +0.078 A 
ATOM     21 CL   UNL     1      -7.704  -1.084  -6.662  0.00  0.00    -0.080 Cl
ATOM     22  H   UNL     1     -12.008  -0.153  -4.781  0.00  0.00    +0.165 HD
ENDBRANCH  12  15
BRANCH   1  23
ATOM     23  S   UNL     1       0.964   1.731  -1.160  0.00  0.00    +0.061 S 
ATOM     24  O   UNL     1       1.412   0.492  -1.694  0.00  0.00    -0.153 OA
ATOM     25  O   UNL     1       1.842   2.825  -0.932  0.00  0.00    -0.153 OA
BRANCH  23  31
ATOM     26  C   UNL     1       0.115   2.343   1.361  0.00  0.00    +0.030 A 
ATOM     27  C   UNL     1      -0.487   2.059   2.573  0.00  0.00    +0.022 A 
ATOM     28  C   UNL     1      -0.993   0.794   2.814  0.00  0.00    +0.041 A 
ATOM     29  C   UNL     1      -0.901  -0.184   1.840  0.00  0.00    +0.022 A 
ATOM     30  C   UNL     1      -0.303   0.102   0.627  0.00  0.00    +0.030 A 
ATOM     31  C   UNL     1       0.202   1.366   0.387  0.00  0.00    +0.106 A 
ATOM     32 CL   UNL     1      -1.744   0.435   4.337  0.00  0.00    -0.084 Cl
ENDBRANCH  23  31
ENDBRANCH   1  23
TORSDOF 3
