REMARK  Name = ZINC59063497
REMARK  13 active torsions:
REMARK  status: ('A' for Active; 'I' for Inactive)
REMARK    1  A    between atoms: C_1  and  C_2
REMARK    2  A    between atoms: C_2  and  C_3
REMARK    3  A    between atoms: C_3  and  C_4
REMARK    4  A    between atoms: C_4  and  C_5
REMARK    5  A    between atoms: C_8  and  N_11
REMARK    6  A    between atoms: N_11  and  C_12
REMARK    7  A    between atoms: C_12  and  N_14
REMARK    8  A    between atoms: N_14  and  C_15
REMARK    9  A    between atoms: N_14  and  C_24
REMARK   10  A    between atoms: C_15  and  C_16
REMARK   11  A    between atoms: C_19  and  O_22
REMARK   12  A    between atoms: O_22  and  C_23
REMARK   13  A    between atoms: C_24  and  C_25
REMARK                            x       y       z     vdW  Elec       q    Type
REMARK                         _______ _______ _______ _____ _____    ______ ____
ROOT
ATOM      1  N   UNL     1      -8.707  -4.535  -1.096  0.00  0.00    -0.304 N 
ENDROOT
BRANCH   1   2
ATOM      2  C   UNL     1      -7.411  -4.164  -1.113  0.00  0.00    +0.138 C 
ATOM      3  S   UNL     1      -6.625  -3.868  -2.604  0.00  0.00    -0.018 S 
BRANCH   2   4
ATOM      4  N   UNL     1      -6.734  -4.027   0.045  0.00  0.00    -0.297 N 
ATOM      5  H   UNL     1      -7.154  -4.273   0.884  0.00  0.00    +0.154 HD
BRANCH   4   9
ATOM      6  C   UNL     1      -2.839  -2.551   0.019  0.00  0.00    -0.047 A 
ATOM      7  C   UNL     1      -3.801  -1.972  -0.788  0.00  0.00    +0.005 A 
ATOM      8  C   UNL     1      -5.094  -2.460  -0.782  0.00  0.00    +0.023 A 
ATOM      9  C   UNL     1      -5.426  -3.532   0.036  0.00  0.00    +0.033 A 
ATOM     10  C   UNL     1      -4.457  -4.111   0.845  0.00  0.00    +0.023 A 
ATOM     11  C   UNL     1      -3.166  -3.623   0.830  0.00  0.00    +0.005 A 
BRANCH   6  12
ATOM     12  C   UNL     1      -1.430  -2.017   0.010  0.00  0.00    +0.035 C 
BRANCH  12  13
ATOM     13  C   UNL     1      -0.615  -2.747  -1.060  0.00  0.00    +0.004 C 
BRANCH  13  15
ATOM     14  C   UNL     1       1.631  -2.934  -2.139  0.00  0.00    +0.004 C 
ATOM     15  C   UNL     1       0.816  -2.204  -1.069  0.00  0.00    -0.003 C 
ENDBRANCH  13  15
ENDBRANCH  12  13
ENDBRANCH   6  12
ENDBRANCH   4   9
ENDBRANCH   2   4
ENDBRANCH   1   2
BRANCH   1  16
ATOM     16  C   UNL     1      -9.442  -4.683  -2.354  0.00  0.00    +0.142 C 
BRANCH  16  17
ATOM     17  C   UNL     1      -9.305  -6.099  -2.852  0.00  0.00    -0.030 A 
ATOM     18  C   UNL     1      -8.257  -6.439  -3.687  0.00  0.00    +0.009 A 
ATOM     19  C   UNL     1      -8.129  -7.736  -4.145  0.00  0.00    +0.046 A 
ATOM     20  C   UNL     1      -9.054  -8.698  -3.766  0.00  0.00    +0.120 A 
ATOM     21  C   UNL     1     -10.105  -8.355  -2.928  0.00  0.00    +0.046 A 
ATOM     22  C   UNL     1     -10.225  -7.057  -2.469  0.00  0.00    +0.009 A 
BRANCH  20  23
ATOM     23  O   UNL     1      -8.931  -9.975  -4.216  0.00  0.00    -0.495 OA
ATOM     24  C   UNL     1      -9.920 -10.912  -3.785  0.00  0.00    +0.277 C 
ENDBRANCH  20  23
ENDBRANCH  16  17
ENDBRANCH   1  16
BRANCH   1  25
ATOM     25  C   UNL     1      -9.380  -4.788   0.180  0.00  0.00    +0.142 C 
BRANCH  25  26
ATOM     26  C   UNL     1     -10.000  -3.511   0.684  0.00  0.00    -0.030 A 
ATOM     27  C   UNL     1      -9.270  -2.662   1.496  0.00  0.00    +0.008 A 
ATOM     28  C   UNL     1      -9.838  -1.490   1.958  0.00  0.00    +0.038 A 
ATOM     29  C   UNL     1     -11.137  -1.165   1.608  0.00  0.00    +0.123 A 
ATOM     30  C   UNL     1     -11.867  -2.016   0.795  0.00  0.00    +0.038 A 
ATOM     31  C   UNL     1     -11.296  -3.185   0.330  0.00  0.00    +0.008 A 
ATOM     32  F   UNL     1     -11.693  -0.020   2.060  0.00  0.00    -0.205 F 
ENDBRANCH  25  26
ENDBRANCH   1  25
TORSDOF 11
