REMARK  Name = ZINC02205034
REMARK  7 active torsions:
REMARK  status: ('A' for Active; 'I' for Inactive)
REMARK    1  A    between atoms: C_1  and  C_2
REMARK    2  A    between atoms: N_8  and  C_9
REMARK    3  A    between atoms: C_10  and  C_20
REMARK    4  A    between atoms: C_12  and  C_16
REMARK    5  A    between atoms: C_13  and  N_15
REMARK    6  A    between atoms: C_16  and  O_18
REMARK    7  A    between atoms: O_18  and  C_19
REMARK                            x       y       z     vdW  Elec       q    Type
REMARK                         _______ _______ _______ _____ _____    ______ ____
ROOT
ATOM      1  C   UNL     1      -0.056   1.444   0.229  0.00  0.00    +0.064 C 
ATOM      2  C   UNL     1      -0.004  -0.060   0.153  0.00  0.00    +0.022 A 
ATOM      3  C   UNL     1      -0.055  -0.669  -1.051  0.00  0.00    +0.068 A 
ATOM      4  C   UNL     1      -0.005  -2.076  -1.127  0.00  0.00    +0.141 A 
ATOM      5  C   UNL     1       0.095  -2.805   0.039  0.00  0.00    +0.071 A 
ATOM      6  C   UNL     1       0.145  -2.130   1.265  0.00  0.00    +0.259 A 
ATOM      7  O   UNL     1       0.234  -2.763   2.306  0.00  0.00    -0.267 OA
ATOM      8  N   UNL     1       0.101  -0.785   1.298  0.00  0.00    -0.315 N 
ATOM      9  C   UNL     1       0.160  -0.092   2.587  0.00  0.00    +0.152 C 
ATOM     10  C   UNL     1       0.152  -4.307   0.004  0.00  0.00    +0.100 C 
ATOM     11  C   UNL     1      -0.309  -4.812  -1.335  0.00  0.00    +0.105 C 
ATOM     12  C   UNL     1      -0.386  -3.986  -2.409  0.00  0.00    +0.195 C 
ATOM     13  O   UNL     1      -0.056  -2.687  -2.330  0.00  0.00    -0.441 OA
ENDROOT
BRANCH  10  14
ATOM     14  C   UNL     1       1.570  -4.759   0.244  0.00  0.00    -0.033 A 
ATOM     15  C   UNL     1       2.577  -4.360  -0.616  0.00  0.00    +0.006 A 
ATOM     16  C   UNL     1       3.877  -4.774  -0.398  0.00  0.00    +0.022 A 
ATOM     17  C   UNL     1       4.172  -5.587   0.682  0.00  0.00    +0.059 A 
ATOM     18  C   UNL     1       3.164  -5.986   1.543  0.00  0.00    +0.060 A 
ATOM     19  C   UNL     1       1.864  -5.567   1.326  0.00  0.00    +0.026 A 
ATOM     20 CL   UNL     1       3.533  -7.008   2.897  0.00  0.00    -0.082 Cl
ATOM     21 CL   UNL     1       5.806  -6.108   0.956  0.00  0.00    -0.082 Cl
ENDBRANCH  10  14
BRANCH  12  22
ATOM     22  N   UNL     1      -0.811  -4.493  -3.608  0.00  0.00    -0.329 N 
ATOM     23  H   UNL     1      -1.139  -5.404  -3.660  0.00  0.00    +0.145 HD
ATOM     24  H   UNL     1      -0.783  -3.941  -4.405  0.00  0.00    +0.145 HD
ENDBRANCH  12  22
BRANCH  11  25
ATOM     25  C   UNL     1      -0.667  -6.161  -1.476  0.00  0.00    +0.341 C 
ATOM     26  O   UNL     1      -1.753  -6.548  -1.083  0.00  0.00    -0.245 OA
BRANCH  25  27
ATOM     27  O   UNL     1       0.193  -7.031  -2.049  0.00  0.00    -0.465 OA
ATOM     28  C   UNL     1      -0.236  -8.390  -2.160  0.00  0.00    +0.280 C 
ENDBRANCH  25  27
ENDBRANCH  11  25
TORSDOF 4
