REMARK  Name = ZINC46927338
REMARK  4 active torsions:
REMARK  status: ('A' for Active; 'I' for Inactive)
REMARK    1  A    between atoms: C_1  and  C_2
REMARK    2  A    between atoms: C_5  and  S_8
REMARK    3  A    between atoms: S_8  and  N_11
REMARK    4  A    between atoms: C_12  and  C_14
REMARK                            x       y       z     vdW  Elec       q    Type
REMARK                         _______ _______ _______ _____ _____    ______ ____
ROOT
ATOM      1  N   UNL     1       1.651  -4.999  -0.034  0.00  0.00    -0.086 NA
ATOM      2  C   UNL     1       1.955  -6.264  -0.043  0.00  0.00    +0.299 C 
ATOM      3  O   UNL     1       0.975  -7.196  -0.042  0.00  0.00    -0.264 OA
ENDROOT
BRANCH   2   4
ATOM      4  C   UNL     1       3.373  -6.683  -0.053  0.00  0.00    +0.096 A 
ATOM      5  C   UNL     1       4.042  -6.870  -1.266  0.00  0.00    +0.137 A 
ATOM      6  C   UNL     1       5.368  -7.261  -1.267  0.00  0.00    +0.039 A 
ATOM      7  C   UNL     1       6.032  -7.467  -0.072  0.00  0.00    +0.004 A 
ATOM      8  C   UNL     1       5.376  -7.284   1.132  0.00  0.00    +0.021 A 
ATOM      9  C   UNL     1       4.053  -6.888   1.149  0.00  0.00    +0.056 A 
ATOM     10 CL   UNL     1       3.235  -6.653   2.662  0.00  0.00    -0.083 Cl
ATOM     11  F   UNL     1       3.394  -6.669  -2.435  0.00  0.00    -0.205 F 
ENDBRANCH   2   4
BRANCH   1  12
ATOM     12  S   UNL     1       0.063  -4.530  -0.023  0.00  0.00    +0.102 S 
ATOM     13  O   UNL     1      -0.476  -4.950   1.223  0.00  0.00    -0.146 OA
ATOM     14  O   UNL     1      -0.490  -4.937  -1.267  0.00  0.00    -0.146 OA
BRANCH  12  19
ATOM     15  C   UNL     1      -0.018   1.503   0.010  0.00  0.00    +0.044 C 
ATOM     16  C   UNL     1       0.002  -0.004   0.002  0.00  0.00    -0.050 A 
ATOM     17  C   UNL     1       0.006  -0.689  -1.199  0.00  0.00    +0.005 A 
ATOM     18  C   UNL     1       0.025  -2.071  -1.206  0.00  0.00    +0.029 A 
ATOM     19  C   UNL     1       0.040  -2.768  -0.013  0.00  0.00    +0.113 A 
ATOM     20  C   UNL     1       0.037  -2.084   1.188  0.00  0.00    +0.029 A 
ATOM     21  C   UNL     1       0.023  -0.702   1.195  0.00  0.00    +0.005 A 
ENDBRANCH  12  19
ENDBRANCH   1  12
TORSDOF 3
