REMARK  Name = ZINC13201380
REMARK  10 active torsions:
REMARK  status: ('A' for Active; 'I' for Inactive)
REMARK    1  A    between atoms: C_1  and  C_2
REMARK    2  A    between atoms: C_2  and  N_3
REMARK    3  A    between atoms: C_9  and  C_31
REMARK    4  A    between atoms: C_13  and  S_14
REMARK    5  A    between atoms: S_14  and  C_15
REMARK    6  A    between atoms: C_15  and  C_17
REMARK    7  A    between atoms: C_15  and  C_18
REMARK    8  A    between atoms: N_20  and  C_21
REMARK    9  A    between atoms: C_24  and  N_27
REMARK   10  A    between atoms: C_28  and  C_30
REMARK                            x       y       z     vdW  Elec       q    Type
REMARK                         _______ _______ _______ _____ _____    ______ ____
ROOT
ATOM      1  S   UNL     1       1.469  10.560   0.814  0.00  0.00    -0.075 S 
ENDROOT
BRANCH   1  12
ATOM      2  N   UNL     1       2.124  13.144   1.212  0.00  0.00    -0.288 N 
ATOM      3  C   UNL     1       1.897  14.475   1.286  0.00  0.00    +0.262 A 
ATOM      4  O   UNL     1       2.790  15.253   1.566  0.00  0.00    -0.267 OA
ATOM      5  C   UNL     1       0.530  14.949   1.016  0.00  0.00    +0.065 A 
ATOM      6  C   UNL     1       0.201  16.303   1.069  0.00  0.00    +0.016 A 
ATOM      7  C   UNL     1      -1.080  16.702   0.813  0.00  0.00    +0.016 A 
ATOM      8  C   UNL     1      -2.069  15.763   0.495  0.00  0.00    +0.065 A 
ATOM      9  C   UNL     1      -1.763  14.409   0.436  0.00  0.00    +0.043 A 
ATOM     10  C   UNL     1      -0.456  13.989   0.697  0.00  0.00    +0.080 A 
ATOM     11  N   UNL     1      -0.111  12.680   0.647  0.00  0.00    -0.223 NA
ATOM     12  C   UNL     1       1.112  12.283   0.897  0.00  0.00    +0.173 A 
BRANCH   8  13
ATOM     13  C   UNL     1      -3.451  16.216   0.220  0.00  0.00    +0.387 C 
ATOM     14  O   UNL     1      -4.312  15.406  -0.056  0.00  0.00    -0.241 OA
ATOM     15  O   UNL     1      -3.753  17.528   0.275  0.00  0.00    -0.241 OA
ENDBRANCH   8  13
BRANCH   2  17
ATOM     16  C   UNL     1       4.259  12.572   0.164  0.00  0.00    +0.027 C 
ATOM     17  C   UNL     1       3.468  12.620   1.473  0.00  0.00    +0.124 C 
ENDBRANCH   2  17
ENDBRANCH   1  12
BRANCH   1  18
ATOM     18  C   UNL     1      -0.166   9.921   0.376  0.00  0.00    +0.137 C 
ATOM     19  C   UNL     1      -0.557  10.429  -1.013  0.00  0.00    +0.029 C 
BRANCH  18  20
ATOM     20  C   UNL     1      -0.131   8.414   0.367  0.00  0.00    +0.230 C 
ATOM     21  O   UNL     1       0.929   7.833   0.268  0.00  0.00    -0.274 OA
ATOM     22  N   UNL     1      -1.277   7.713   0.470  0.00  0.00    -0.285 N 
ATOM     23  H   UNL     1      -2.117   8.175   0.617  0.00  0.00    +0.155 HD
BRANCH  22  24
ATOM     24  C   UNL     1      -1.255   6.316   0.364  0.00  0.00    +0.034 A 
ATOM     25  C   UNL     1      -2.312   5.649  -0.242  0.00  0.00    +0.025 A 
ATOM     26  C   UNL     1      -2.290   4.273  -0.347  0.00  0.00    +0.025 A 
ATOM     27  C   UNL     1      -1.212   3.555   0.154  0.00  0.00    +0.033 A 
ATOM     28  C   UNL     1      -0.158   4.222   0.765  0.00  0.00    +0.025 A 
ATOM     29  C   UNL     1      -0.177   5.598   0.865  0.00  0.00    +0.025 A 
BRANCH  27  30
ATOM     30  N   UNL     1      -1.190   2.159   0.048  0.00  0.00    -0.286 N 
ATOM     31  C   UNL     1      -0.013   1.503   0.029  0.00  0.00    +0.214 C 
ATOM     32  O   UNL     1       1.028   2.125  -0.005  0.00  0.00    -0.276 OA
ATOM     33  C   UNL     1       0.011  -0.004   0.043  0.00  0.00    +0.109 C 
ATOM     34  H   UNL     1      -2.022   1.664  -0.012  0.00  0.00    +0.155 HD
ENDBRANCH  27  30
ENDBRANCH  22  24
ENDBRANCH  18  20
ENDBRANCH   1  18
TORSDOF 7
