REMARK  Name = ZINC08920724
REMARK  8 active torsions:
REMARK  status: ('A' for Active; 'I' for Inactive)
REMARK    1  A    between atoms: C_1  and  C_2
REMARK    2  A    between atoms: C_2  and  O_3
REMARK    3  A    between atoms: O_3  and  C_4
REMARK    4  A    between atoms: C_14  and  O_30
REMARK    5  A    between atoms: C_16  and  C_19
REMARK    6  A    between atoms: C_21  and  N_27
REMARK    7  A    between atoms: C_23  and  O_25
REMARK    8  A    between atoms: O_25  and  C_26
REMARK                            x       y       z     vdW  Elec       q    Type
REMARK                         _______ _______ _______ _____ _____    ______ ____
ROOT
ATOM      1  C   UNL     1       1.564  10.525  -0.527  0.00  0.00    +0.403 C 
ATOM      2  O   UNL     1       1.244  11.093   0.498  0.00  0.00    -0.226 OA
ATOM      3  N   UNL     1       2.732   9.855  -0.590  0.00  0.00    -0.262 N 
ATOM      4  C   UNL     1       3.640   9.794   0.566  0.00  0.00    +0.116 C 
ATOM      5  C   UNL     1       3.758   8.348   1.049  0.00  0.00    +0.056 C 
ATOM      6  C   UNL     1       4.021   7.439  -0.145  0.00  0.00    -0.020 A 
ATOM      7  C   UNL     1       3.729   7.837  -1.405  0.00  0.00    +0.013 A 
ATOM      8  S   UNL     1       4.183   6.468  -2.437  0.00  0.00    -0.076 S 
ATOM      9  C   UNL     1       4.747   5.399  -1.226  0.00  0.00    +0.080 A 
ATOM     10  C   UNL     1       4.586   6.105  -0.027  0.00  0.00    +0.068 A 
ATOM     11  C   UNL     1       5.006   5.424   1.224  0.00  0.00    +0.220 C 
ATOM     12  N   UNL     1       5.263   4.146   1.161  0.00  0.00    -0.223 NA
ATOM     13  C   UNL     1       5.106   3.326  -0.034  0.00  0.00    +0.224 C 
ATOM     14  N   UNL     1       5.256   4.124  -1.265  0.00  0.00    -0.313 N 
ATOM     15  C   UNL     1       3.149   9.155  -1.821  0.00  0.00    +0.153 C 
ATOM     16  H   UNL     1       5.688   3.768  -2.057  0.00  0.00    +0.149 HD
ENDROOT
BRANCH  13  17
ATOM     17  C   UNL     1       3.738   2.694  -0.020  0.00  0.00    +0.000 A 
ATOM     18  C   UNL     1       3.098   2.410  -1.212  0.00  0.00    +0.044 A 
ATOM     19  C   UNL     1       1.843   1.830  -1.205  0.00  0.00    +0.177 A 
ATOM     20  C   UNL     1       1.224   1.533  -0.001  0.00  0.00    +0.250 A 
ATOM     21  C   UNL     1       1.866   1.824   1.198  0.00  0.00    +0.169 A 
ATOM     22  C   UNL     1       3.126   2.400   1.184  0.00  0.00    +0.057 A 
ATOM     23  O   UNL     1      -0.011   0.963   0.007  0.00  0.00    -0.282 OA
BRANCH  19  24
ATOM     24  N   UNL     1       1.160   1.528  -2.483  0.00  0.00    +0.060 N 
ATOM     25  O   UNL     1       1.704   1.790  -3.541  0.00  0.00    -0.126 OA
ATOM     26  O   UNL     1       0.054   1.018  -2.477  0.00  0.00    -0.126 OA
ENDBRANCH  19  24
BRANCH  21  27
ATOM     27  O   UNL     1       1.260   1.539   2.382  0.00  0.00    -0.491 OA
ATOM     28  C   UNL     1       1.978   1.865   3.574  0.00  0.00    +0.277 C 
ENDBRANCH  21  27
ENDBRANCH  13  17
BRANCH  11  29
ATOM     29  O   UNL     1       5.118   6.104   2.389  0.00  0.00    -0.492 OA
ATOM     30  H   UNL     1       5.398   5.559   3.137  0.00  0.00    +0.294 HD
ENDBRANCH  11  29
BRANCH   1  31
ATOM     31  O   UNL     1       0.752  10.564  -1.601  0.00  0.00    -0.451 OA
BRANCH  31  33
ATOM     32  C   UNL     1      -1.273  11.236  -2.774  0.00  0.00    +0.048 C 
ATOM     33  C   UNL     1      -0.489  11.304  -1.462  0.00  0.00    +0.230 C 
ENDBRANCH  31  33
ENDBRANCH   1  31
TORSDOF 6
