REMARK  Name = ZINC29033431
REMARK  9 active torsions:
REMARK  status: ('A' for Active; 'I' for Inactive)
REMARK    1  A    between atoms: C_1  and  C_2
REMARK    2  A    between atoms: C_4  and  C_29
REMARK    3  A    between atoms: C_8  and  N_28
REMARK    4  A    between atoms: C_9  and  C_11
REMARK    5  A    between atoms: C_11  and  O_13
REMARK    6  A    between atoms: O_13  and  C_14
REMARK    7  A    between atoms: C_14  and  C_15
REMARK    8  A    between atoms: N_17  and  N_18
REMARK    9  A    between atoms: C_19  and  C_21
REMARK                            x       y       z     vdW  Elec       q    Type
REMARK                         _______ _______ _______ _____ _____    ______ ____
ROOT
ATOM      1  C   UNL     1      -1.900   4.780  -0.097  0.00  0.00    +0.348 C 
ATOM      2  O   UNL     1      -3.091   4.529  -0.098  0.00  0.00    -0.244 OA
ENDROOT
BRANCH   1  11
ATOM      3  C   UNL     1      -1.325  -0.721   0.041  0.00  0.00    +0.044 C 
ATOM      4  C   UNL     1      -0.034   0.055   0.030  0.00  0.00    -0.037 A 
ATOM      5  C   UNL     1       1.175  -0.601   0.053  0.00  0.00    +0.025 A 
ATOM      6  C   UNL     1       2.362   0.116   0.044  0.00  0.00    +0.014 A 
ATOM      7  N   UNL     1       2.347   1.435   0.012  0.00  0.00    -0.353 N 
ATOM      8  C   UNL     1       1.216   2.107  -0.012  0.00  0.00    +0.088 A 
ATOM      9  C   UNL     1      -0.046   1.471  -0.005  0.00  0.00    +0.030 A 
ATOM     10  C   UNL     1      -1.191   2.369  -0.040  0.00  0.00    +0.055 A 
ATOM     11  C   UNL     1      -0.956   3.727  -0.065  0.00  0.00    +0.119 A 
ATOM     12  S   UNL     1       0.823   3.838  -0.057  0.00  0.00    -0.062 S 
ATOM     13  C   UNL     1       3.679  -0.616   0.070  0.00  0.00    +0.063 C 
ATOM     14  H   UNL     1       3.293   1.996   0.004  0.00  0.00    +0.166 HD
BRANCH  10  15
ATOM     15  N   UNL     1      -2.485   1.871  -0.043  0.00  0.00    -0.356 N 
ATOM     16  H   UNL     1      -3.340   2.562  -0.069  0.00  0.00    +0.142 HD
ATOM     17  H   UNL     1      -2.656   0.785  -0.019  0.00  0.00    +0.142 HD
ENDBRANCH  10  15
ENDBRANCH   1  11
BRANCH   1  18
ATOM     18  O   UNL     1      -1.480   6.063  -0.124  0.00  0.00    -0.451 OA
BRANCH  18  19
ATOM     19  C   UNL     1      -2.488   7.075  -0.155  0.00  0.00    +0.329 C 
BRANCH  19  20
ATOM     20  C   UNL     1      -1.836   8.433  -0.183  0.00  0.00    +0.267 C 
ATOM     21  O   UNL     1      -0.627   8.525  -0.178  0.00  0.00    -0.271 OA
ATOM     22  N   UNL     1      -2.596   9.545  -0.215  0.00  0.00    -0.231 N 
ATOM     23  H   UNL     1      -3.693   9.462  -0.220  0.00  0.00    +0.173 HD
BRANCH  22  24
ATOM     24  N   UNL     1      -1.990  10.808  -0.241  0.00  0.00    -0.230 N 
ATOM     25  C   UNL     1      -2.750  11.920  -0.273  0.00  0.00    +0.263 C 
ATOM     26  O   UNL     1      -3.962  11.828  -0.279  0.00  0.00    -0.269 OA
ATOM     27  H   UNL     1      -0.893  10.891  -0.236  0.00  0.00    +0.173 HD
BRANCH  25  28
ATOM     28  C   UNL     1      -2.111  13.251  -0.300  0.00  0.00    +0.073 A 
ATOM     29  C   UNL     1      -0.719  13.362  -0.288  0.00  0.00    +0.016 A 
ATOM     30  C   UNL     1      -0.128  14.607  -0.320  0.00  0.00    +0.001 A 
ATOM     31  C   UNL     1      -0.911  15.749  -0.352  0.00  0.00    +0.003 A 
ATOM     32  C   UNL     1      -2.289  15.650  -0.359  0.00  0.00    +0.039 A 
ATOM     33  C   UNL     1      -2.897  14.408  -0.333  0.00  0.00    +0.136 A 
ATOM     34  F   UNL     1      -4.244  14.312  -0.340  0.00  0.00    -0.205 F 
ENDBRANCH  25  28
ENDBRANCH  22  24
ENDBRANCH  19  20
ENDBRANCH  18  19
ENDBRANCH   1  18
TORSDOF 7
