REMARK  Name = ZINC39596556
REMARK  9 active torsions:
REMARK  status: ('A' for Active; 'I' for Inactive)
REMARK    1  A    between atoms: C_1  and  C_2
REMARK    2  A    between atoms: C_7  and  C_8
REMARK    3  A    between atoms: C_8  and  C_9
REMARK    4  A    between atoms: C_13  and  C_22
REMARK    5  A    between atoms: N_24  and  C_25
REMARK    6  A    between atoms: C_25  and  C_26
REMARK    7  A    between atoms: C_26  and  C_28
REMARK    8  A    between atoms: C_26  and  O_29
REMARK    9  A    between atoms: O_29  and  C_30
REMARK                            x       y       z     vdW  Elec       q    Type
REMARK                         _______ _______ _______ _____ _____    ______ ____
ROOT
ATOM      1  C   UNL     1      -1.415   0.384   2.879  0.00  0.00    +0.220 C 
ATOM      2  O   UNL     1      -2.331   0.055   2.156  0.00  0.00    -0.275 OA
ATOM      3  N   UNL     1      -1.665   1.056   4.020  0.00  0.00    -0.300 N 
ATOM      4  C   UNL     1      -0.686   1.544   5.020  0.00  0.00    +0.121 C 
ATOM      5  C   UNL     1      -1.223   2.928   5.449  0.00  0.00    +0.100 C 
ATOM      6  C   UNL     1      -2.730   2.875   5.146  0.00  0.00    -0.004 C 
ATOM      7  C   UNL     1      -2.981   1.480   4.556  0.00  0.00    +0.115 C 
ATOM      8  C   UNL     1      -3.102   3.947   4.126  0.00  0.00    -0.010 C 
ATOM      9  C   UNL     1      -4.613   3.912   3.884  0.00  0.00    -0.082 C 
ATOM     10  N   UNL     1      -5.319   4.147   5.149  0.00  0.00    +0.379 N 
ATOM     11  C   UNL     1      -5.029   3.061   6.093  0.00  0.00    -0.082 C 
ATOM     12  C   UNL     1      -3.534   3.059   6.429  0.00  0.00    -0.010 C 
ATOM     13  H   UNL     1      -5.016   5.024   5.545  0.00  0.00    -0.086 HD
ATOM     14  H   UNL     1      -6.312   4.184   4.977  0.00  0.00    -0.086 HD
ENDROOT
BRANCH   5  15
ATOM     15  C   UNL     1      -0.562   4.019   4.647  0.00  0.00    +0.218 C 
ATOM     16  O   UNL     1      -0.113   3.776   3.547  0.00  0.00    -0.275 OA
ATOM     17  N   UNL     1      -0.470   5.265   5.153  0.00  0.00    -0.312 N 
ATOM     18  H   UNL     1      -0.830   5.460   6.032  0.00  0.00    +0.149 HD
BRANCH  17  19
ATOM     19  C   UNL     1       0.173   6.326   4.373  0.00  0.00    +0.148 C 
BRANCH  19  20
ATOM     20  C   UNL     1       0.144   7.632   5.170  0.00  0.00    +0.187 C 
ATOM     21  C   UNL     1       0.816   8.741   4.356  0.00  0.00    +0.053 C 
BRANCH  20  22
ATOM     22  O   UNL     1      -1.210   7.995   5.442  0.00  0.00    -0.488 OA
BRANCH  22  23
ATOM     23  C   UNL     1      -1.433   8.783   6.528  0.00  0.00    +0.121 A 
ATOM     24  C   UNL     1      -2.731   9.075   6.920  0.00  0.00    +0.048 A 
ATOM     25  C   UNL     1      -2.955   9.875   8.023  0.00  0.00    +0.042 A 
ATOM     26  C   UNL     1      -1.884  10.385   8.738  0.00  0.00    +0.124 A 
ATOM     27  C   UNL     1      -0.588  10.095   8.348  0.00  0.00    +0.042 A 
ATOM     28  C   UNL     1      -0.361   9.289   7.248  0.00  0.00    +0.048 A 
ATOM     29  F   UNL     1      -2.105  11.168   9.817  0.00  0.00    -0.205 F 
ENDBRANCH  22  23
ENDBRANCH  20  22
ENDBRANCH  19  20
ENDBRANCH  17  19
ENDBRANCH   5  15
BRANCH   1  30
ATOM     30  C   UNL     1       0.003   0.041   2.502  0.00  0.00    +0.131 C 
BRANCH  30  37
ATOM     31  C   UNL     1      -0.014   1.499   0.008  0.00  0.00    +0.044 C 
ATOM     32  C   UNL     1      -0.000  -0.007  -0.001  0.00  0.00    -0.047 A 
ATOM     33  C   UNL     1       0.010  -0.692  -1.202  0.00  0.00    +0.003 A 
ATOM     34  C   UNL     1       0.023  -2.074  -1.210  0.00  0.00    +0.000 A 
ATOM     35  C   UNL     1       0.026  -2.772  -0.016  0.00  0.00    +0.000 A 
ATOM     36  C   UNL     1       0.017  -2.088   1.185  0.00  0.00    +0.004 A 
ATOM     37  C   UNL     1       0.008  -0.705   1.192  0.00  0.00    -0.036 A 
ENDBRANCH  30  37
ENDBRANCH   1  30
TORSDOF 7
