REMARK  Name = ZINC40841626
REMARK  4 active torsions:
REMARK  status: ('A' for Active; 'I' for Inactive)
REMARK    1  A    between atoms: C_1  and  C_2
REMARK    2  A    between atoms: N_13  and  C_21
REMARK    3  A    between atoms: C_21  and  C_22
REMARK    4  A    between atoms: C_24  and  C_27
REMARK                            x       y       z     vdW  Elec       q    Type
REMARK                         _______ _______ _______ _____ _____    ______ ____
ROOT
ATOM      1  C   UNL     1      -0.723   0.956   0.800  0.00  0.00    +0.012 C 
ATOM      2  C   UNL     1      -0.459  -0.495   0.394  0.00  0.00    +0.009 C 
ATOM      3  C   UNL     1       0.463  -0.514  -0.825  0.00  0.00    +0.013 C 
ATOM      4  C   UNL     1       0.864  -1.966  -1.126  0.00  0.00    +0.054 C 
ATOM      5  C   UNL     1       1.624  -2.482   0.079  0.00  0.00    +0.017 C 
ATOM      6  C   UNL     1       1.110  -2.140   1.408  0.00  0.00    +0.017 C 
ATOM      7  C   UNL     1       0.159  -1.225   1.549  0.00  0.00    -0.022 C 
ATOM      8  N   UNL     1       2.703  -3.208  -0.063  0.00  0.00    -0.339 N 
ATOM      9  C   UNL     1       3.547  -3.384   0.988  0.00  0.00    +0.197 A 
ATOM     10  C   UNL     1       4.688  -4.316   0.873  0.00  0.00    +0.295 A 
ATOM     11  O   UNL     1       4.881  -4.930  -0.160  0.00  0.00    -0.264 OA
ATOM     12  N   UNL     1       5.513  -4.476   1.930  0.00  0.00    -0.295 N 
ATOM     13  C   UNL     1       5.268  -3.764   3.089  0.00  0.00    +0.071 A 
ATOM     14  C   UNL     1       6.104  -3.912   4.191  0.00  0.00    +0.028 A 
ATOM     15  C   UNL     1       5.855  -3.198   5.344  0.00  0.00    +0.002 A 
ATOM     16  C   UNL     1       4.772  -2.331   5.415  0.00  0.00    +0.002 A 
ATOM     17  C   UNL     1       3.938  -2.170   4.348  0.00  0.00    +0.030 A 
ATOM     18  C   UNL     1       4.171  -2.885   3.162  0.00  0.00    +0.090 A 
ATOM     19  N   UNL     1       3.351  -2.721   2.107  0.00  0.00    -0.223 NA
ATOM     20  H   UNL     1       2.902  -3.621  -0.918  0.00  0.00    +0.167 HD
ENDROOT
BRANCH  12  21
ATOM     21  C   UNL     1       6.654  -5.393   1.849  0.00  0.00    +0.224 C 
BRANCH  21  22
ATOM     22  C   UNL     1       7.862  -4.647   1.343  0.00  0.00    +0.248 A 
ATOM     23  N   UNL     1       8.741  -4.032   2.081  0.00  0.00    -0.190 NA
ATOM     24  C   UNL     1       9.686  -3.474   1.303  0.00  0.00    +0.202 A 
ATOM     25  N   UNL     1       9.406  -3.738   0.050  0.00  0.00    -0.056 NA
ATOM     26  O   UNL     1       8.216  -4.511   0.058  0.00  0.00    -0.336 OA
BRANCH  24  27
ATOM     27  C   UNL     1      10.851  -2.692   1.784  0.00  0.00    +0.026 A 
ATOM     28  C   UNL     1      11.039  -2.487   3.150  0.00  0.00    +0.015 A 
ATOM     29  C   UNL     1      12.123  -1.759   3.596  0.00  0.00    +0.050 A 
ATOM     30  C   UNL     1      13.028  -1.228   2.688  0.00  0.00    +0.166 A 
ATOM     31  C   UNL     1      12.844  -1.430   1.321  0.00  0.00    +0.167 A 
ATOM     32  C   UNL     1      11.763  -2.165   0.871  0.00  0.00    +0.061 A 
ATOM     33  O   UNL     1      13.860  -0.813   0.649  0.00  0.00    -0.453 OA
ATOM     34  C   UNL     1      14.438   0.111   1.591  0.00  0.00    +0.466 C 
ATOM     35  O   UNL     1      14.158  -0.485   2.871  0.00  0.00    -0.453 OA
ENDBRANCH  24  27
ENDBRANCH  21  22
ENDBRANCH  12  21
TORSDOF 3
