REMARK  Name = ZINC32753569
REMARK  5 active torsions:
REMARK  status: ('A' for Active; 'I' for Inactive)
REMARK    1  A    between atoms: C_1  and  O_2
REMARK    2  A    between atoms: O_2  and  C_3
REMARK    3  A    between atoms: C_3  and  C_4
REMARK    4  A    between atoms: C_12  and  C_13
REMARK    5  A    between atoms: N_18  and  C_21
REMARK                            x       y       z     vdW  Elec       q    Type
REMARK                         _______ _______ _______ _____ _____    ______ ____
ROOT
ATOM      1  C   UNL     1      -1.119  -2.260   2.546  0.00  0.00    +0.254 C 
ATOM      2  O   UNL     1      -1.125  -1.059   2.736  0.00  0.00    -0.269 OA
ATOM      3  N   UNL     1      -1.134  -3.108   3.593  0.00  0.00    -0.294 N 
ATOM      4  C   UNL     1      -1.009  -4.560   3.392  0.00  0.00    +0.127 C 
ATOM      5  C   UNL     1       0.106  -5.080   4.312  0.00  0.00    +0.124 C 
ATOM      6  N   UNL     1      -0.175  -4.668   5.694  0.00  0.00    -0.326 N 
ATOM      7  C   UNL     1      -0.161  -3.205   5.827  0.00  0.00    +0.124 C 
ATOM      8  C   UNL     1      -1.281  -2.607   4.968  0.00  0.00    +0.127 C 
ENDROOT
BRANCH   6   9
ATOM      9  C   UNL     1       0.716  -5.255   6.579  0.00  0.00    +0.040 A 
ATOM     10  C   UNL     1       2.072  -4.969   6.525  0.00  0.00    +0.041 A 
ATOM     11  C   UNL     1       2.938  -5.569   7.427  0.00  0.00    +0.085 A 
ATOM     12  N   UNL     1       2.514  -6.417   8.336  0.00  0.00    -0.361 N 
ATOM     13  C   UNL     1       1.221  -6.744   8.442  0.00  0.00    +0.050 A 
ATOM     14  C   UNL     1       0.272  -6.171   7.562  0.00  0.00    +0.019 A 
ATOM     15  C   UNL     1      -1.081  -6.518   7.677  0.00  0.00    +0.013 A 
ATOM     16  C   UNL     1      -1.471  -7.403   8.637  0.00  0.00    +0.021 A 
ATOM     17  C   UNL     1      -0.539  -7.970   9.505  0.00  0.00    +0.043 A 
ATOM     18  C   UNL     1       0.783  -7.654   9.420  0.00  0.00    +0.046 A 
ATOM     19 CL   UNL     1      -1.073  -9.094  10.716  0.00  0.00    -0.083 Cl
ATOM     20  H   UNL     1       3.228  -6.879   9.034  0.00  0.00    +0.165 HD
ENDBRANCH   6   9
BRANCH   1  29
ATOM     21  C   UNL     1      -0.444  -2.295   0.088  0.00  0.00    +0.008 A 
ATOM     22  C   UNL     1      -0.554  -2.948  -1.152  0.00  0.00    +0.030 A 
ATOM     23  C   UNL     1       0.050  -2.595  -2.389  0.00  0.00    +0.132 A 
ATOM     24  C   UNL     1      -0.161  -3.353  -3.510  0.00  0.00    +0.039 A 
ATOM     25  C   UNL     1      -0.963  -4.487  -3.478  0.00  0.00    +0.004 A 
ATOM     26  C   UNL     1      -1.562  -4.864  -2.294  0.00  0.00    +0.016 A 
ATOM     27  C   UNL     1      -1.360  -4.112  -1.156  0.00  0.00    +0.023 A 
ATOM     28  S   UNL     1      -1.921  -4.231   0.524  0.00  0.00    -0.083 S 
ATOM     29  C   UNL     1      -1.097  -2.788   1.174  0.00  0.00    +0.081 A 
ATOM     30  F   UNL     1       0.837  -1.498  -2.460  0.00  0.00    -0.205 F 
BRANCH  21  31
ATOM     31  C   UNL     1       0.392  -1.048   0.212  0.00  0.00    +0.196 C 
BRANCH  31  33
ATOM     32  C   UNL     1       2.612  -0.288   0.699  0.00  0.00    +0.194 C 
ATOM     33  O   UNL     1       1.732  -1.404   0.556  0.00  0.00    -0.378 OA
ENDBRANCH  31  33
ENDBRANCH  21  31
ENDBRANCH   1  29
TORSDOF 4
