REMARK  Name = ZINC28956643
REMARK  6 active torsions:
REMARK  status: ('A' for Active; 'I' for Inactive)
REMARK    1  A    between atoms: C_4  and  C_8
REMARK    2  A    between atoms: C_8  and  C_9
REMARK    3  A    between atoms: C_9  and  C_11
REMARK    4  A    between atoms: C_9  and  N_28
REMARK    5  A    between atoms: C_11  and  C_12
REMARK    6  A    between atoms: C_20  and  C_23
REMARK                            x       y       z     vdW  Elec       q    Type
REMARK                         _______ _______ _______ _____ _____    ______ ____
ROOT
ATOM      1  C   UNL     1       1.197   1.655  -2.591  0.00  0.00    +0.214 C 
ATOM      2  O   UNL     1       1.636   2.392  -1.734  0.00  0.00    -0.276 OA
ATOM      3  N   UNL     1       1.936   1.375  -3.682  0.00  0.00    -0.295 N 
ATOM      4  C   UNL     1       3.277   1.954  -3.852  0.00  0.00    +0.114 C 
ATOM      5  C   UNL     1       4.316   0.825  -3.843  0.00  0.00    +0.074 C 
ATOM      6  C   UNL     1       3.821  -0.297  -4.718  0.00  0.00    +0.042 A 
ATOM      7  C   UNL     1       2.540  -0.459  -5.113  0.00  0.00    +0.080 A 
ATOM      8  N   UNL     1       2.475  -1.556  -5.870  0.00  0.00    -0.227 NA
ATOM      9  C   UNL     1       3.668  -2.083  -5.963  0.00  0.00    +0.213 A 
ATOM     10  N   UNL     1       4.536  -1.323  -5.257  0.00  0.00    -0.338 N 
ATOM     11  H   UNL     1       5.617  -1.398  -5.070  0.00  0.00    +0.167 HD
ATOM     12  C   UNL     1       1.423   0.477  -4.732  0.00  0.00    +0.164 C 
ENDROOT
BRANCH   9  13
ATOM     13  C   UNL     1       4.018  -3.333  -6.730  0.00  0.00    +0.450 C 
ATOM     14  F   UNL     1       2.970  -3.655  -7.598  0.00  0.00    -0.163 F 
ATOM     15  F   UNL     1       5.186  -3.114  -7.469  0.00  0.00    -0.163 F 
ATOM     16  F   UNL     1       4.223  -4.388  -5.834  0.00  0.00    -0.163 F 
ENDBRANCH   9  13
BRANCH   1  17
ATOM     17  C   UNL     1      -0.175   1.052  -2.435  0.00  0.00    +0.080 C 
BRANCH  17  18
ATOM     18  C   UNL     1      -0.795   1.527  -1.120  0.00  0.00    -0.062 C 
BRANCH  18  19
ATOM     19  N   UNL     1      -0.012   1.005   0.008  0.00  0.00    +0.381 N 
ATOM     20  H   UNL     1       1.023   1.372  -0.064  0.00  0.00    -0.090 HD
ATOM     21  H   UNL     1      -0.013  -0.095  -0.023  0.00  0.00    -0.090 HD
ATOM     22  H   UNL     1      -0.457   1.346   0.954  0.00  0.00    -0.090 HD
ENDBRANCH  18  19
BRANCH  18  23
ATOM     23  C   UNL     1      -2.234   1.016  -1.020  0.00  0.00    +0.022 C 
BRANCH  23  27
ATOM     24  C   UNL     1      -4.079   2.626   2.484  0.00  0.00    +0.041 A 
ATOM     25  C   UNL     1      -3.232   1.538   2.587  0.00  0.00    +0.041 A 
ATOM     26  C   UNL     1      -2.639   1.013   1.452  0.00  0.00    +0.127 A 
ATOM     27  C   UNL     1      -2.885   1.584   0.214  0.00  0.00    -0.011 A 
ATOM     28  C   UNL     1      -3.731   2.672   0.112  0.00  0.00    +0.044 A 
ATOM     29  C   UNL     1      -4.329   3.193   1.246  0.00  0.00    +0.124 A 
ATOM     30  F   UNL     1      -5.157   4.256   1.145  0.00  0.00    -0.205 F 
ATOM     31  F   UNL     1      -1.816  -0.053   1.552  0.00  0.00    -0.205 F 
ENDBRANCH  23  27
ENDBRANCH  18  23
ENDBRANCH  17  18
ENDBRANCH   1  17
TORSDOF 6
