REMARK  Name = ZINC06244365
REMARK  4 active torsions:
REMARK  status: ('A' for Active; 'I' for Inactive)
REMARK    1  A    between atoms: N_6  and  C_7
REMARK    2  A    between atoms: C_7  and  C_9
REMARK    3  A    between atoms: C_7  and  C_18
REMARK    4  A    between atoms: C_23  and  O_24
REMARK                            x       y       z     vdW  Elec       q    Type
REMARK                         _______ _______ _______ _____ _____    ______ ____
ROOT
ATOM      1  C   UNL     1      -1.204   5.898   0.134  0.00  0.00    +0.136 C 
ENDROOT
BRANCH   1   7
ATOM      2  C   UNL     1       1.887   7.345   2.576  0.00  0.00    +0.005 A 
ATOM      3  C   UNL     1       3.071   6.623   2.658  0.00  0.00    +0.018 A 
ATOM      4  C   UNL     1       3.211   5.468   1.914  0.00  0.00    +0.084 A 
ATOM      5  C   UNL     1       1.098   5.711   1.018  0.00  0.00    +0.097 A 
ATOM      6  C   UNL     1       0.889   6.883   1.739  0.00  0.00    +0.041 A 
ATOM      7  N   UNL     1       0.101   5.232   0.177  0.00  0.00    -0.320 N 
ATOM      8  H   UNL     1       0.268   4.457  -0.382  0.00  0.00    +0.148 HD
ATOM      9  N   UNL     1       2.249   4.982   1.085  0.00  0.00    -0.350 N 
ATOM     10  H   UNL     1       2.381   4.120   0.543  0.00  0.00    +0.166 HD
ENDBRANCH   1   7
BRANCH   1  11
ATOM     11  C   UNL     1      -1.900   5.556  -1.158  0.00  0.00    -0.019 A 
ATOM     12  C   UNL     1      -1.933   4.246  -1.599  0.00  0.00    +0.009 A 
ATOM     13  C   UNL     1      -2.571   3.928  -2.783  0.00  0.00    +0.050 A 
ATOM     14  C   UNL     1      -3.179   4.922  -3.532  0.00  0.00    +0.166 A 
ATOM     15  C   UNL     1      -3.146   6.242  -3.088  0.00  0.00    +0.167 A 
ATOM     16  C   UNL     1      -2.509   6.553  -1.897  0.00  0.00    +0.055 A 
ATOM     17  O   UNL     1      -3.808   7.023  -3.991  0.00  0.00    -0.453 OA
ATOM     18  C   UNL     1      -3.893   6.234  -5.192  0.00  0.00    +0.466 C 
ATOM     19  O   UNL     1      -3.862   4.876  -4.713  0.00  0.00    -0.453 OA
ENDBRANCH   1  11
BRANCH   1  20
ATOM     20  C   UNL     1      -2.044   5.432   1.296  0.00  0.00    +0.022 A 
ATOM     21  C   UNL     1      -1.821   4.186   1.853  0.00  0.00    +0.059 A 
ATOM     22  C   UNL     1      -2.588   3.758   2.923  0.00  0.00    +0.167 A 
ATOM     23  C   UNL     1      -3.592   4.579   3.432  0.00  0.00    +0.170 A 
ATOM     24  C   UNL     1      -3.816   5.824   2.869  0.00  0.00    +0.095 A 
ATOM     25  C   UNL     1      -3.042   6.251   1.800  0.00  0.00    +0.126 A 
ATOM     26  O   UNL     1      -4.200   3.932   4.469  0.00  0.00    -0.452 OA
ATOM     27  C   UNL     1      -3.293   2.882   4.853  0.00  0.00    +0.466 C 
ATOM     28  O   UNL     1      -2.568   2.596   3.643  0.00  0.00    -0.453 OA
BRANCH  25  29
ATOM     29  O   UNL     1      -3.263   7.474   1.248  0.00  0.00    -0.506 OA
ATOM     30  H   UNL     1      -3.905   7.469   0.525  0.00  0.00    +0.292 HD
ENDBRANCH  25  29
ENDBRANCH   1  20
TORSDOF 4
