REMARK  Name = ZINC35427206
REMARK  5 active torsions:
REMARK  status: ('A' for Active; 'I' for Inactive)
REMARK    1  A    between atoms: C_1  and  N_2
REMARK    2  A    between atoms: C_16  and  C_31
REMARK    3  A    between atoms: N_22  and  C_23
REMARK    4  A    between atoms: C_28  and  O_29
REMARK    5  A    between atoms: O_29  and  C_30
REMARK                            x       y       z     vdW  Elec       q    Type
REMARK                         _______ _______ _______ _____ _____    ______ ____
ROOT
ATOM      1  C   UNL     1      -0.379   1.623   0.272  0.00  0.00    -0.096 C 
ATOM      2  N   UNL     1      -0.290   0.157   0.235  0.00  0.00    +0.381 N 
ATOM      3  C   UNL     1      -1.642  -0.415   0.196  0.00  0.00    -0.074 C 
ATOM      4  C   UNL     1      -1.580  -1.903  -0.161  0.00  0.00    +0.018 C 
ATOM      5  C   UNL     1      -0.606  -2.577   0.802  0.00  0.00    -0.034 A 
ATOM      6  C   UNL     1      -0.566  -3.969   1.003  0.00  0.00    +0.004 A 
ATOM      7  C   UNL     1       0.344  -4.431   1.904  0.00  0.00    +0.090 A 
ATOM      8  S   UNL     1       1.180  -2.982   2.473  0.00  0.00    -0.077 S 
ATOM      9  C   UNL     1       0.272  -1.809   1.502  0.00  0.00    -0.021 A 
ATOM     10  C   UNL     1       0.412  -0.324   1.440  0.00  0.00    -0.036 C 
ATOM     11  N   UNL     1       0.491  -5.770   2.245  0.00  0.00    -0.312 N 
ATOM     12  C   UNL     1       1.593  -6.543   2.383  0.00  0.00    +0.092 A 
ATOM     13  C   UNL     1       1.187  -7.803   2.662  0.00  0.00    +0.020 A 
ATOM     14  C   UNL     1      -0.224  -7.794   2.714  0.00  0.00    +0.025 A 
ATOM     15  C   UNL     1      -0.627  -6.537   2.480  0.00  0.00    +0.049 A 
ATOM     16  C   UNL     1      -2.011  -5.962   2.497  0.00  0.00    +0.155 C 
ATOM     17  N   UNL     1      -2.463  -5.572   1.140  0.00  0.00    -0.268 N 
ATOM     18  C   UNL     1      -1.462  -4.938   0.263  0.00  0.00    +0.148 C 
ATOM     19  C   UNL     1      -3.728  -5.786   0.728  0.00  0.00    +0.308 C 
ATOM     20  O   UNL     1      -4.530  -6.311   1.476  0.00  0.00    -0.252 OA
ATOM     21  N   UNL     1      -4.104  -5.419  -0.513  0.00  0.00    -0.266 N 
ATOM     22  H   UNL     1      -3.446  -5.077  -1.138  0.00  0.00    +0.156 HD
ATOM     23  H   UNL     1       0.220  -0.128  -0.588  0.00  0.00    -0.082 HD
ENDROOT
BRANCH  16  24
ATOM     24  C   UNL     1      -2.027  -4.745   3.387  0.00  0.00    -0.021 A 
ATOM     25  C   UNL     1      -2.905  -3.709   3.126  0.00  0.00    +0.007 A 
ATOM     26  C   UNL     1      -2.919  -2.593   3.941  0.00  0.00    +0.020 A 
ATOM     27  C   UNL     1      -2.055  -2.513   5.018  0.00  0.00    +0.041 A 
ATOM     28  C   UNL     1      -1.176  -3.549   5.279  0.00  0.00    +0.020 A 
ATOM     29  C   UNL     1      -1.167  -4.667   4.466  0.00  0.00    +0.007 A 
ATOM     30 CL   UNL     1      -2.072  -1.111   6.042  0.00  0.00    -0.084 Cl
ENDBRANCH  16  24
BRANCH  21  31
ATOM     31  C   UNL     1      -5.447  -5.530  -0.900  0.00  0.00    +0.077 A 
ATOM     32  C   UNL     1      -6.457  -5.319   0.026  0.00  0.00    +0.027 A 
ATOM     33  C   UNL     1      -7.780  -5.429  -0.358  0.00  0.00    +0.002 A 
ATOM     34  C   UNL     1      -8.100  -5.749  -1.665  0.00  0.00    +0.004 A 
ATOM     35  C   UNL     1      -7.098  -5.960  -2.594  0.00  0.00    +0.047 A 
ATOM     36  C   UNL     1      -5.769  -5.846  -2.218  0.00  0.00    +0.141 A 
BRANCH  36  37
ATOM     37  O   UNL     1      -4.783  -6.048  -3.132  0.00  0.00    -0.493 OA
ATOM     38  C   UNL     1      -5.188  -6.369  -4.464  0.00  0.00    +0.277 C 
ENDBRANCH  36  37
ENDBRANCH  21  31
TORSDOF 3
