REMARK  Name = ZINC22024669
REMARK  9 active torsions:
REMARK  status: ('A' for Active; 'I' for Inactive)
REMARK    1  A    between atoms: C_1  and  C_2
REMARK    2  A    between atoms: C_2  and  O_3
REMARK    3  A    between atoms: O_3  and  C_4
REMARK    4  A    between atoms: C_14  and  C_16
REMARK    5  A    between atoms: C_18  and  C_28
REMARK    6  A    between atoms: C_19  and  C_27
REMARK    7  A    between atoms: C_20  and  S_22
REMARK    8  A    between atoms: S_22  and  N_25
REMARK    9  A    between atoms: N_25  and  C_26
REMARK                            x       y       z     vdW  Elec       q    Type
REMARK                         _______ _______ _______ _____ _____    ______ ____
ROOT
ATOM      1  C   UNL     1       2.115  -0.592  -1.208  0.00  0.00    +0.122 A 
ATOM      2  C   UNL     1       3.226   0.244  -1.278  0.00  0.00    +0.048 A 
ATOM      3  C   UNL     1       3.111   1.599  -1.120  0.00  0.00    +0.032 A 
ATOM      4  C   UNL     1       1.852   2.196  -0.880  0.00  0.00    +0.081 A 
ATOM      5  C   UNL     1       0.745   1.319  -0.815  0.00  0.00    +0.044 A 
ATOM      6  C   UNL     1       0.865  -0.039  -0.974  0.00  0.00    +0.063 A 
ATOM      7  S   UNL     1      -0.605   2.435  -0.515  0.00  0.00    -0.052 S 
ATOM      8  C   UNL     1       0.353   3.944  -0.485  0.00  0.00    +0.166 A 
ATOM      9  N   UNL     1       1.571   3.507  -0.703  0.00  0.00    -0.225 NA
ATOM     10  N   UNL     1      -0.082   5.244  -0.289  0.00  0.00    -0.261 N 
ATOM     11  C   UNL     1       0.804   6.260  -0.308  0.00  0.00    +0.250 C 
ATOM     12  O   UNL     1       1.983   6.035  -0.498  0.00  0.00    -0.270 OA
ATOM     13  H   UNL     1      -1.149   5.448  -0.117  0.00  0.00    +0.157 HD
ENDROOT
BRANCH  11  14
ATOM     14  C   UNL     1       0.340   7.648  -0.099  0.00  0.00    +0.039 A 
ATOM     15  C   UNL     1      -1.014   7.910   0.119  0.00  0.00    +0.016 A 
ATOM     16  C   UNL     1      -1.439   9.207   0.315  0.00  0.00    -0.045 A 
ATOM     17  C   UNL     1      -0.528  10.248   0.295  0.00  0.00    -0.021 A 
ATOM     18  C   UNL     1       0.815   9.996   0.079  0.00  0.00    +0.109 A 
ATOM     19  C   UNL     1       1.255   8.702  -0.112  0.00  0.00    +0.042 A 
ATOM     20  C   UNL     1      -1.000  11.663   0.510  0.00  0.00    +0.046 C 
ATOM     21  C   UNL     1      -2.900   9.492   0.550  0.00  0.00    +0.044 C 
BRANCH  18  22
ATOM     22  S   UNL     1       1.968  11.329   0.056  0.00  0.00    +0.058 S 
ATOM     23  O   UNL     1       3.255  10.749  -0.103  0.00  0.00    -0.153 OA
ATOM     24  O   UNL     1       1.451  12.296  -0.847  0.00  0.00    -0.153 OA
BRANCH  22  25
ATOM     25  N   UNL     1       1.943  12.023   1.559  0.00  0.00    -0.193 NA
ATOM     26  C   UNL     1       2.405  11.264   2.724  0.00  0.00    +0.127 C 
ATOM     27  H   UNL     1       1.430  12.986   1.698  0.00  0.00    +0.148 HD
ENDBRANCH  22  25
ENDBRANCH  18  22
ENDBRANCH  11  14
BRANCH   1  28
ATOM     28  O   UNL     1       2.254  -1.935  -1.367  0.00  0.00    -0.492 OA
BRANCH  28  30
ATOM     29  C   UNL     1       3.531  -3.950  -1.758  0.00  0.00    +0.048 C 
ATOM     30  C   UNL     1       3.574  -2.428  -1.605  0.00  0.00    +0.225 C 
ENDBRANCH  28  30
ENDBRANCH   1  28
TORSDOF 5
