REMARK  Name = ZINC04618248
REMARK  10 active torsions:
REMARK  status: ('A' for Active; 'I' for Inactive)
REMARK    1  A    between atoms: C_1  and  C_2
REMARK    2  A    between atoms: C_4  and  C_27
REMARK    3  A    between atoms: C_5  and  N_9
REMARK    4  A    between atoms: C_6  and  C_8
REMARK    5  A    between atoms: N_9  and  S_10
REMARK    6  A    between atoms: S_10  and  C_13
REMARK    7  A    between atoms: C_16  and  N_19
REMARK    8  A    between atoms: C_20  and  C_22
REMARK    9  A    between atoms: C_22  and  C_23
REMARK   10  A    between atoms: C_23  and  C_24
REMARK                            x       y       z     vdW  Elec       q    Type
REMARK                         _______ _______ _______ _____ _____    ______ ____
ROOT
ATOM      1  C   UNL     1      -1.473  -4.649   2.158  0.00  0.00    +0.109 A 
ATOM      2  C   UNL     1      -1.605  -3.508   2.929  0.00  0.00    +0.030 A 
ATOM      3  C   UNL     1      -2.818  -3.205   3.514  0.00  0.00    +0.025 A 
ATOM      4  C   UNL     1      -3.907  -4.047   3.328  0.00  0.00    +0.033 A 
ATOM      5  C   UNL     1      -3.772  -5.191   2.553  0.00  0.00    +0.025 A 
ATOM      6  C   UNL     1      -2.557  -5.486   1.966  0.00  0.00    +0.030 A 
ENDROOT
BRANCH   4   7
ATOM      7  N   UNL     1      -5.138  -3.742   3.920  0.00  0.00    -0.285 N 
ATOM      8  C   UNL     1      -5.522  -2.458   4.054  0.00  0.00    +0.218 C 
ATOM      9  O   UNL     1      -4.843  -1.569   3.582  0.00  0.00    -0.275 OA
ATOM     10  H   UNL     1      -5.715  -4.456   4.234  0.00  0.00    +0.155 HD
BRANCH   8  11
ATOM     11  C   UNL     1      -6.794  -2.124   4.790  0.00  0.00    +0.107 C 
BRANCH  11  12
ATOM     12  C   UNL     1      -6.996  -0.608   4.798  0.00  0.00    +0.134 C 
BRANCH  12  13
ATOM     13  C   UNL     1      -8.268  -0.274   5.535  0.00  0.00    +0.356 C 
ATOM     14  O   UNL     1      -8.949  -1.167   6.009  0.00  0.00    -0.246 OA
ATOM     15  O   UNL     1      -8.615   0.888   5.656  0.00  0.00    -0.246 OA
ENDBRANCH  12  13
ENDBRANCH  11  12
ENDBRANCH   8  11
ENDBRANCH   4   7
BRANCH   1  16
ATOM     16  S   UNL     1       0.077  -5.032   1.413  0.00  0.00    +0.072 S 
ATOM     17  O   UNL     1       0.037  -6.413   1.081  0.00  0.00    -0.150 OA
ATOM     18  O   UNL     1       1.080  -4.480   2.255  0.00  0.00    -0.150 OA
BRANCH  16  19
ATOM     19  N   UNL     1       0.151  -4.203  -0.018  0.00  0.00    -0.216 N 
ATOM     20  H   UNL     1       0.225  -4.687  -0.856  0.00  0.00    +0.174 HD
BRANCH  19  25
ATOM     21  C   UNL     1      -0.026   1.465  -0.024  0.00  0.00    +0.044 C 
ATOM     22  C   UNL     1       0.021  -0.041  -0.022  0.00  0.00    -0.050 A 
ATOM     23  C   UNL     1       1.131  -0.696   0.478  0.00  0.00    +0.008 A 
ATOM     24  C   UNL     1       1.177  -2.076   0.481  0.00  0.00    -0.028 A 
ATOM     25  C   UNL     1       0.107  -2.807  -0.019  0.00  0.00    +0.054 A 
ATOM     26  C   UNL     1      -1.007  -2.146  -0.521  0.00  0.00    -0.028 A 
ATOM     27  C   UNL     1      -1.049  -0.765  -0.516  0.00  0.00    +0.008 A 
ATOM     28  C   UNL     1      -2.170  -2.934  -1.066  0.00  0.00    +0.046 C 
ATOM     29  C   UNL     1       2.388  -2.789   1.026  0.00  0.00    +0.046 C 
ENDBRANCH  19  25
ENDBRANCH  16  19
ENDBRANCH   1  16
TORSDOF 7
