REMARK  Name = ZINC06273528
REMARK  20 active torsions:
REMARK  status: ('A' for Active; 'I' for Inactive)
REMARK    1  A    between atoms: C_1  and  C_2
REMARK    2  A    between atoms: C_2  and  C_3
REMARK    3  A    between atoms: C_3  and  C_4
REMARK    4  A    between atoms: C_4  and  N_64
REMARK    5  A    between atoms: C_5  and  C_6
REMARK    6  A    between atoms: C_5  and  N_64
REMARK    7  A    between atoms: C_6  and  C_7
REMARK    8  A    between atoms: C_7  and  C_8
REMARK    9  A    between atoms: C_9  and  C_10
REMARK   10  A    between atoms: C_9  and  N_64
REMARK   11  A    between atoms: C_10  and  C_11
REMARK   12  A    between atoms: C_11  and  N_12
REMARK   13  A    between atoms: N_15  and  C_16
REMARK   14  A    between atoms: C_16  and  C_18
REMARK   15  A    between atoms: C_16  and  C_23
REMARK   16  A    between atoms: C_18  and  C_20
REMARK   17  A    between atoms: C_18  and  C_21
REMARK   18  A    between atoms: C_21  and  C_22
REMARK   19  A    between atoms: C_23  and  O_25
REMARK   20  A    between atoms: O_25  and  C_26
REMARK                            x       y       z     vdW  Elec       q    Type
REMARK                         _______ _______ _______ _____ _____    ______ ____
ROOT
ATOM      1  N   UNL     1       4.062   1.300   3.398  0.00  0.00    -0.299 N 
ATOM      2  C   UNL     1       3.039   0.440   3.229  0.00  0.00    +0.300 C 
ATOM      3  O   UNL     1       2.537  -0.105   4.194  0.00  0.00    -0.253 OA
ATOM      4  N   UNL     1       2.571   0.183   1.992  0.00  0.00    -0.286 N 
ATOM      5  H   UNL     1       4.463   1.734   2.629  0.00  0.00    +0.150 HD
ATOM      6  H   UNL     1       2.972   0.618   1.222  0.00  0.00    +0.151 HD
ENDROOT
BRANCH   1   7
ATOM      7  C   UNL     1       4.571   1.578   4.744  0.00  0.00    +0.104 C 
BRANCH   7   8
ATOM      8  C   UNL     1       5.724   2.580   4.656  0.00  0.00    +0.000 C 
BRANCH   8   9
ATOM      9  C   UNL     1       6.255   2.871   6.062  0.00  0.00    -0.077 C 
BRANCH   9  10
ATOM     10  N   UNL     1       7.381   3.822   5.958  0.00  0.00    +0.380 N 
ATOM     11  H   UNL     1       8.057   3.465   5.274  0.00  0.00    -0.082 HD
BRANCH  10  12
ATOM     12  C   UNL     1       6.889   5.140   5.505  0.00  0.00    -0.079 C 
BRANCH  12  13
ATOM     13  C   UNL     1       5.856   5.695   6.488  0.00  0.00    -0.019 C 
BRANCH  13  15
ATOM     14  C   UNL     1       4.308   7.597   6.963  0.00  0.00    +0.004 C 
ATOM     15  C   UNL     1       5.341   7.043   5.980  0.00  0.00    -0.005 C 
ENDBRANCH  13  15
ENDBRANCH  12  13
ENDBRANCH  10  12
BRANCH  10  16
ATOM     16  C   UNL     1       8.050   3.957   7.269  0.00  0.00    -0.079 C 
BRANCH  16  17
ATOM     17  C   UNL     1       9.404   4.640   7.062  0.00  0.00    -0.019 C 
BRANCH  17  18
ATOM     18  C   UNL     1      10.120   4.770   8.408  0.00  0.00    -0.005 C 
ATOM     19  C   UNL     1      11.473   5.453   8.201  0.00  0.00    +0.004 C 
ENDBRANCH  17  18
ENDBRANCH  16  17
ENDBRANCH  10  16
ENDBRANCH   9  10
ENDBRANCH   8   9
ENDBRANCH   7   8
ENDBRANCH   1   7
BRANCH   4  20
ATOM     20  C   UNL     1       1.458  -0.751   1.808  0.00  0.00    +0.186 C 
BRANCH  20  21
ATOM     21  C   UNL     1       0.725  -0.422   0.506  0.00  0.00    +0.017 C 
ATOM     22  C   UNL     1       1.659  -0.666  -0.681  0.00  0.00    +0.010 C 
BRANCH  21  23
ATOM     23  C   UNL     1      -0.510  -1.315   0.376  0.00  0.00    +0.002 C 
ATOM     24  C   UNL     1      -1.311  -0.902  -0.861  0.00  0.00    +0.004 C 
ENDBRANCH  21  23
ENDBRANCH  20  21
BRANCH  20  25
ATOM     25  C   UNL     1       1.991  -2.159   1.742  0.00  0.00    +0.328 C 
ATOM     26  O   UNL     1       3.178  -2.362   1.838  0.00  0.00    -0.249 OA
BRANCH  25  27
ATOM     27  O   UNL     1       1.146  -3.189   1.575  0.00  0.00    -0.467 OA
ATOM     28  C   UNL     1       1.729  -4.518   1.521  0.00  0.00    +0.280 C 
ENDBRANCH  25  27
ENDBRANCH  20  25
ENDBRANCH   4  20
TORSDOF 15
