REMARK  Name = ZINC13406515
REMARK  7 active torsions:
REMARK  status: ('A' for Active; 'I' for Inactive)
REMARK    1  A    between atoms: C_1  and  C_2
REMARK    2  A    between atoms: C_4  and  C_16
REMARK    3  A    between atoms: C_12  and  C_13
REMARK    4  A    between atoms: C_16  and  S_17
REMARK    5  A    between atoms: S_17  and  C_18
REMARK    6  A    between atoms: N_23  and  C_24
REMARK    7  A    between atoms: C_24  and  C_25
REMARK                            x       y       z     vdW  Elec       q    Type
REMARK                         _______ _______ _______ _____ _____    ______ ____
ROOT
ATOM      1  C   UNL     1       0.677   1.499  -0.145  0.00  0.00    +0.046 C 
ATOM      2  C   UNL     1       0.638  -0.008  -0.140  0.00  0.00    -0.020 A 
ATOM      3  C   UNL     1       0.212  -0.733  -1.264  0.00  0.00    +0.014 A 
ATOM      4  C   UNL     1      -0.228  -0.215  -2.524  0.00  0.00    -0.022 A 
ATOM      5  C   UNL     1      -0.607  -1.061  -3.509  0.00  0.00    +0.075 A 
ATOM      6  C   UNL     1      -0.574  -2.454  -3.312  0.00  0.00    +0.250 A 
ATOM      7  O   UNL     1      -0.919  -3.206  -4.209  0.00  0.00    -0.268 OA
ATOM      8  N   UNL     1      -0.162  -2.957  -2.132  0.00  0.00    -0.317 N 
ATOM      9  H   UNL     1      -0.141  -3.917  -1.999  0.00  0.00    +0.169 HD
ATOM     10  C   UNL     1       0.224  -2.130  -1.126  0.00  0.00    +0.089 A 
ATOM     11  S   UNL     1       0.777  -2.410   0.428  0.00  0.00    -0.064 S 
ATOM     12  C   UNL     1       1.020  -0.727   0.957  0.00  0.00    +0.106 A 
ENDROOT
BRANCH  12  13
ATOM     13  C   UNL     1       1.492  -0.251   2.207  0.00  0.00    +0.393 C 
ATOM     14  O   UNL     1       1.597   0.954   2.403  0.00  0.00    -0.240 OA
ATOM     15  O   UNL     1       1.794  -1.044   3.090  0.00  0.00    -0.240 OA
ENDBRANCH  12  13
BRANCH   4  16
ATOM     16  C   UNL     1      -0.270   1.274  -2.754  0.00  0.00    +0.112 C 
BRANCH  16  17
ATOM     17  S   UNL     1      -1.835   1.939  -2.123  0.00  0.00    -0.092 S 
BRANCH  17  18
ATOM     18  C   UNL     1      -1.732   3.666  -2.460  0.00  0.00    +0.160 A 
ATOM     19  N   UNL     1      -0.763   4.347  -3.041  0.00  0.00    -0.133 NA
ATOM     20  N   UNL     1      -0.889   5.707  -3.208  0.00  0.00    -0.125 NA
ATOM     21  C   UNL     1      -1.976   6.323  -2.787  0.00  0.00    +0.182 A 
ATOM     22  S   UNL     1      -2.915   4.959  -2.116  0.00  0.00    -0.025 S 
ATOM     23  N   UNL     1      -2.307   7.671  -2.854  0.00  0.00    -0.320 N 
ATOM     24  H   UNL     1      -3.154   7.981  -2.498  0.00  0.00    +0.148 HD
BRANCH  23  25
ATOM     25  C   UNL     1      -1.375   8.624  -3.462  0.00  0.00    +0.135 C 
BRANCH  25  26
ATOM     26  C   UNL     1      -1.976  10.030  -3.408  0.00  0.00    +0.135 C 
ATOM     27  C   UNL     1      -1.022  11.050  -4.078  0.00  0.00    +0.035 C 
ATOM     28  C   UNL     1      -2.022  12.164  -4.490  0.00  0.00    +0.031 C 
ATOM     29  C   UNL     1      -3.289  11.354  -4.838  0.00  0.00    +0.160 C 
ATOM     30  O   UNL     1      -3.188  10.085  -4.178  0.00  0.00    -0.375 OA
ENDBRANCH  25  26
ENDBRANCH  23  25
ENDBRANCH  17  18
ENDBRANCH  16  17
ENDBRANCH   4  16
TORSDOF 6
