REMARK  Name = ZINC15056958
REMARK  6 active torsions:
REMARK  status: ('A' for Active; 'I' for Inactive)
REMARK    1  A    between atoms: C_1  and  C_2
REMARK    2  A    between atoms: C_7  and  N_8
REMARK    3  A    between atoms: C_9  and  C_11
REMARK    4  A    between atoms: C_11  and  O_12
REMARK    5  A    between atoms: O_12  and  C_13
REMARK    6  A    between atoms: C_18  and  C_19
REMARK                            x       y       z     vdW  Elec       q    Type
REMARK                         _______ _______ _______ _____ _____    ______ ____
ROOT
ATOM      1  C   UNL     1      -0.573  -0.357   7.264  0.00  0.00    +0.128 A 
ATOM      2  C   UNL     1      -0.702   1.004   7.486  0.00  0.00    +0.047 A 
ATOM      3  C   UNL     1      -0.767   1.494   8.776  0.00  0.00    +0.019 A 
ATOM      4  C   UNL     1      -0.704   0.630   9.859  0.00  0.00    +0.019 A 
ATOM      5  C   UNL     1      -0.576  -0.728   9.659  0.00  0.00    +0.026 A 
ATOM      6  C   UNL     1      -0.515  -1.238   8.357  0.00  0.00    +0.019 A 
ATOM      7 BR   UNL     1      -0.793   1.318  11.618  0.00  0.00    -0.050 Br
ENDROOT
BRANCH   6   8
ATOM      8  C   UNL     1      -0.385  -2.683   8.134  0.00  0.00    +0.032 C 
ATOM      9  C   UNL     1       0.051  -3.487   9.137  0.00  0.00    +0.078 C 
ATOM     10  C   UNL     1       0.084  -4.960   9.208  0.00  0.00    +0.256 C 
ATOM     11  O   UNL     1      -0.313  -5.650   8.287  0.00  0.00    -0.269 OA
ATOM     12  N   UNL     1       0.565  -5.497  10.316  0.00  0.00    -0.261 N 
ATOM     13  C   UNL     1       1.011  -4.697  11.348  0.00  0.00    +0.158 C 
ATOM     14  N   UNL     1       1.509  -5.058  12.498  0.00  0.00    -0.279 NA
ATOM     15  S   UNL     1       0.746  -3.045  10.723  0.00  0.00    -0.049 S 
ATOM     16  H   UNL     1       0.605  -6.462  10.405  0.00  0.00    +0.157 HD
ATOM     17  H   UNL     1       1.786  -4.385  13.140  0.00  0.00    +0.189 HD
ENDBRANCH   6   8
BRANCH   1  18
ATOM     18  O   UNL     1      -0.510  -0.839   5.996  0.00  0.00    -0.482 OA
BRANCH  18  19
ATOM     19  C   UNL     1      -0.575   0.117   4.936  0.00  0.00    +0.324 C 
BRANCH  19  21
ATOM     20  N   UNL     1      -0.532   0.107   2.462  0.00  0.00    -0.282 N 
ATOM     21  C   UNL     1      -0.490  -0.597   3.611  0.00  0.00    +0.255 C 
ATOM     22  O   UNL     1      -0.384  -1.805   3.579  0.00  0.00    -0.272 OA
ATOM     23  H   UNL     1      -0.537   1.077   2.488  0.00  0.00    +0.155 HD
BRANCH  20  30
ATOM     24  C   UNL     1      -1.947   1.323   0.314  0.00  0.00    +0.045 C 
ATOM     25  C   UNL     1      -1.248  -0.003   0.159  0.00  0.00    -0.029 A 
ATOM     26  C   UNL     1      -1.278  -0.663  -1.055  0.00  0.00    +0.005 A 
ATOM     27  C   UNL     1      -0.636  -1.879  -1.198  0.00  0.00    +0.000 A 
ATOM     28  C   UNL     1       0.037  -2.439  -0.128  0.00  0.00    +0.002 A 
ATOM     29  C   UNL     1       0.071  -1.785   1.088  0.00  0.00    +0.023 A 
ATOM     30  C   UNL     1      -0.569  -0.561   1.234  0.00  0.00    +0.036 A 
ENDBRANCH  20  30
ENDBRANCH  19  21
ENDBRANCH  18  19
ENDBRANCH   1  18
TORSDOF 5
