REMARK  Name = ZINC64508399
REMARK  2 active torsions:
REMARK  status: ('A' for Active; 'I' for Inactive)
REMARK    1  A    between atoms: C_8  and  C_27
REMARK    2  A    between atoms: C_16  and  C_18
REMARK                            x       y       z     vdW  Elec       q    Type
REMARK                         _______ _______ _______ _____ _____    ______ ____
ROOT
ATOM      1  C   UNL     1       0.577   0.939   2.298  0.00  0.00    +0.001 A 
ATOM      2  C   UNL     1       1.603   1.785   1.856  0.00  0.00    +0.002 A 
ATOM      3  C   UNL     1       2.733   1.320   1.282  0.00  0.00    +0.026 A 
ATOM      4  C   UNL     1       2.927  -0.076   1.100  0.00  0.00    +0.043 A 
ATOM      5  N   UNL     1       3.911  -0.757   0.559  0.00  0.00    -0.375 N 
ATOM      6  C   UNL     1       3.625  -2.182   0.705  0.00  0.00    +0.131 C 
ATOM      7  C   UNL     1       3.607  -2.903  -0.647  0.00  0.00    +0.133 C 
ATOM      8  N   UNL     1       2.929  -4.196  -0.460  0.00  0.00    -0.288 N 
ATOM      9  C   UNL     1       1.542  -4.251   0.014  0.00  0.00    +0.113 C 
ATOM     10  C   UNL     1       1.443  -3.546   1.380  0.00  0.00    +0.052 C 
ATOM     11  C   UNL     1       2.222  -2.254   1.284  0.00  0.00    -0.035 C 
ATOM     12  C   UNL     1       1.853  -0.994   1.553  0.00  0.00    -0.001 A 
ATOM     13  C   UNL     1       0.658  -0.404   2.171  0.00  0.00    +0.010 A 
ATOM     14  C   UNL     1       3.589  -5.340  -0.728  0.00  0.00    +0.247 C 
ATOM     15  O   UNL     1       4.771  -5.309  -1.013  0.00  0.00    -0.270 OA
ATOM     16  H   UNL     1       4.696  -0.378   0.133  0.00  0.00    +0.160 HD
ENDROOT
BRANCH  14  17
ATOM     17  C   UNL     1       2.877  -6.632  -0.675  0.00  0.00    +0.041 A 
ATOM     18  C   UNL     1       1.522  -6.699  -1.006  0.00  0.00    +0.017 A 
ATOM     19  C   UNL     1       0.859  -7.906  -0.957  0.00  0.00    +0.050 A 
ATOM     20  C   UNL     1       1.534  -9.059  -0.578  0.00  0.00    +0.166 A 
ATOM     21  C   UNL     1       2.888  -8.999  -0.246  0.00  0.00    +0.167 A 
ATOM     22  C   UNL     1       3.559  -7.793  -0.299  0.00  0.00    +0.062 A 
ATOM     23  O   UNL     1       3.311 -10.254   0.087  0.00  0.00    -0.453 OA
ATOM     24  C   UNL     1       2.111 -11.005   0.350  0.00  0.00    +0.466 C 
ATOM     25  O   UNL     1       1.113 -10.350  -0.454  0.00  0.00    -0.453 OA
ENDBRANCH  14  17
BRANCH   7  26
ATOM     26  C   UNL     1       5.018  -3.130  -1.124  0.00  0.00    -0.025 A 
ATOM     27  C   UNL     1       5.309  -3.073  -2.474  0.00  0.00    +0.007 A 
ATOM     28  C   UNL     1       6.603  -3.281  -2.912  0.00  0.00    +0.020 A 
ATOM     29  C   UNL     1       7.608  -3.546  -1.998  0.00  0.00    +0.041 A 
ATOM     30  C   UNL     1       7.316  -3.603  -0.647  0.00  0.00    +0.020 A 
ATOM     31  C   UNL     1       6.023  -3.389  -0.210  0.00  0.00    +0.007 A 
ATOM     32 CL   UNL     1       9.234  -3.808  -2.547  0.00  0.00    -0.084 Cl
ENDBRANCH   7  26
TORSDOF 2
