REMARK  Name = ZINC40425914
REMARK  9 active torsions:
REMARK  status: ('A' for Active; 'I' for Inactive)
REMARK    1  A    between atoms: C_1  and  C_2
REMARK    2  A    between atoms: C_2  and  C_3
REMARK    3  A    between atoms: C_3  and  C_5
REMARK    4  A    between atoms: C_3  and  C_11
REMARK    5  A    between atoms: C_18  and  N_35
REMARK    6  A    between atoms: N_25  and  C_28
REMARK    7  A    between atoms: C_31  and  C_34
REMARK    8  A    between atoms: N_35  and  C_36
REMARK    9  A    between atoms: N_35  and  C_37
REMARK                            x       y       z     vdW  Elec       q    Type
REMARK                         _______ _______ _______ _____ _____    ______ ____
ROOT
ATOM      1  C   UNL     1       1.863   0.085  -1.257  0.00  0.00    +0.223 C 
ATOM      2  O   UNL     1       2.727  -0.739  -1.471  0.00  0.00    -0.275 OA
ATOM      3  N   UNL     1       2.194   1.381  -1.089  0.00  0.00    -0.296 N 
ATOM      4  C   UNL     1       1.163   2.420  -0.933  0.00  0.00    +0.114 C 
ATOM      5  C   UNL     1       1.307   3.023   0.464  0.00  0.00    +0.072 C 
ATOM      6  C   UNL     1       2.745   3.353   0.757  0.00  0.00    +0.028 A 
ATOM      7  C   UNL     1       3.794   2.790   0.073  0.00  0.00    +0.029 A 
ATOM      8  C   UNL     1       5.099   3.149   0.429  0.00  0.00    +0.131 A 
ATOM      9  N   UNL     1       5.285   4.027   1.408  0.00  0.00    -0.201 NA
ATOM     10  C   UNL     1       4.248   4.557   2.039  0.00  0.00    +0.198 A 
ATOM     11  N   UNL     1       3.005   4.230   1.725  0.00  0.00    -0.331 N 
ATOM     12  N   UNL     1       4.470   5.474   3.051  0.00  0.00    -0.298 N 
ATOM     13  C   UNL     1       3.351   5.982   3.858  0.00  0.00    +0.127 C 
ATOM     14  C   UNL     1       3.658   5.726   5.338  0.00  0.00    +0.124 C 
ATOM     15  N   UNL     1       5.016   6.208   5.627  0.00  0.00    -0.327 N 
ATOM     16  C   UNL     1       6.135   5.700   4.820  0.00  0.00    +0.124 C 
ATOM     17  C   UNL     1       5.828   5.952   3.343  0.00  0.00    +0.127 C 
ATOM     18  C   UNL     1       3.596   1.811  -1.048  0.00  0.00    +0.148 C 
ATOM     19  H   UNL     1       2.270   4.637   2.209  0.00  0.00    +0.168 HD
ENDROOT
BRANCH  15  20
ATOM     20  C   UNL     1       5.240   7.134   6.649  0.00  0.00    +0.030 A 
ATOM     21  C   UNL     1       4.197   7.513   7.485  0.00  0.00    +0.023 A 
ATOM     22  C   UNL     1       4.422   8.428   8.495  0.00  0.00    +0.005 A 
ATOM     23  C   UNL     1       5.683   8.967   8.673  0.00  0.00    -0.050 A 
ATOM     24  C   UNL     1       6.723   8.592   7.842  0.00  0.00    +0.005 A 
ATOM     25  C   UNL     1       6.506   7.673   6.834  0.00  0.00    +0.023 A 
ATOM     26  C   UNL     1       5.924   9.966   9.775  0.00  0.00    +0.044 C 
ENDBRANCH  15  20
BRANCH   8  27
ATOM     27  N   UNL     1       6.184   2.595  -0.231  0.00  0.00    -0.321 N 
ATOM     28  C   UNL     1       6.793   3.301  -1.360  0.00  0.00    +0.130 C 
ATOM     29  C   UNL     1       6.721   1.302   0.201  0.00  0.00    +0.130 C 
ENDBRANCH   8  27
BRANCH   1  30
ATOM     30  C   UNL     1       0.419  -0.340  -1.180  0.00  0.00    +0.105 C 
BRANCH  30  31
ATOM     31  C   UNL     1      -0.172  -0.368  -2.566  0.00  0.00    -0.036 A 
ATOM     32  C   UNL     1       0.366  -1.202  -3.529  0.00  0.00    +0.004 A 
ATOM     33  C   UNL     1      -0.176  -1.227  -4.801  0.00  0.00    +0.000 A 
ATOM     34  C   UNL     1      -1.256  -0.420  -5.109  0.00  0.00    +0.000 A 
ATOM     35  C   UNL     1      -1.793   0.412  -4.145  0.00  0.00    +0.000 A 
ATOM     36  C   UNL     1      -1.254   0.434  -2.872  0.00  0.00    +0.004 A 
ENDBRANCH  30  31
BRANCH  30  38
ATOM     37  C   UNL     1       0.802  -1.679   0.895  0.00  0.00    +0.005 C 
ATOM     38  C   UNL     1       0.332  -1.736  -0.559  0.00  0.00    +0.014 C 
ENDBRANCH  30  38
ENDBRANCH   1  30
TORSDOF 5
