REMARK  Name = ZINC64380738
REMARK  9 active torsions:
REMARK  status: ('A' for Active; 'I' for Inactive)
REMARK    1  A    between atoms: C_1  and  C_2
REMARK    2  A    between atoms: C_7  and  O_32
REMARK    3  A    between atoms: C_13  and  C_15
REMARK    4  A    between atoms: C_15  and  C_16
REMARK    5  A    between atoms: N_18  and  C_19
REMARK    6  A    between atoms: C_19  and  C_21
REMARK    7  A    between atoms: C_19  and  C_22
REMARK    8  A    between atoms: C_22  and  C_23
REMARK    9  A    between atoms: O_32  and  C_33
REMARK                            x       y       z     vdW  Elec       q    Type
REMARK                         _______ _______ _______ _____ _____    ______ ____
ROOT
ATOM      1  C   UNL     1       1.070  -2.455   2.748  0.00  0.00    +0.214 C 
ATOM      2  O   UNL     1       1.695  -1.671   3.431  0.00  0.00    -0.276 OA
ATOM      3  N   UNL     1       0.937  -3.736   3.144  0.00  0.00    -0.312 N 
ATOM      4  H   UNL     1       0.437  -4.363   2.598  0.00  0.00    +0.149 HD
ENDROOT
BRANCH   3   5
ATOM      5  C   UNL     1       1.548  -4.183   4.398  0.00  0.00    +0.074 C 
ATOM      6  C   UNL     1       0.603  -3.879   5.562  0.00  0.00    +0.028 C 
BRANCH   5   7
ATOM      7  C   UNL     1       1.807  -5.689   4.331  0.00  0.00    +0.055 C 
BRANCH   7   8
ATOM      8  C   UNL     1       2.833  -5.975   3.264  0.00  0.00    -0.040 C 
ATOM      9  C   UNL     1       4.166  -6.124   3.437  0.00  0.00    -0.001 A 
ATOM     10  C   UNL     1       5.028  -6.065   4.623  0.00  0.00    +0.010 A 
ATOM     11  C   UNL     1       6.358  -6.258   4.478  0.00  0.00    +0.001 A 
ATOM     12  C   UNL     1       6.934  -6.513   3.225  0.00  0.00    +0.002 A 
ATOM     13  C   UNL     1       6.207  -6.582   2.090  0.00  0.00    +0.026 A 
ATOM     14  C   UNL     1       4.798  -6.395   2.126  0.00  0.00    +0.043 A 
ATOM     15  N   UNL     1       3.890  -6.413   1.180  0.00  0.00    -0.380 N 
ATOM     16  C   UNL     1       2.578  -6.161   1.785  0.00  0.00    +0.144 C 
ATOM     17  H   UNL     1       4.058  -6.570   0.237  0.00  0.00    +0.160 HD
ENDBRANCH   7   8
ENDBRANCH   5   7
ENDBRANCH   3   5
BRANCH   1  18
ATOM     18  C   UNL     1       0.441  -1.995   1.458  0.00  0.00    +0.111 C 
BRANCH  18  30
ATOM     19  C   UNL     1      -0.019   1.526   0.010  0.00  0.00    +0.013 C 
ATOM     20  C   UNL     1       0.002  -0.004   0.002  0.00  0.00    +0.034 C 
ATOM     21  C   UNL     1       0.705  -0.489  -1.241  0.00  0.00    +0.000 A 
ATOM     22  C   UNL     1      -0.005  -0.514  -2.432  0.00  0.00    +0.031 A 
ATOM     23  C   UNL     1       0.599  -0.943  -3.597  0.00  0.00    +0.083 A 
ATOM     24  C   UNL     1       1.926  -1.352  -3.580  0.00  0.00    +0.142 A 
ATOM     25  C   UNL     1       2.636  -1.332  -2.392  0.00  0.00    +0.093 A 
ATOM     26  C   UNL     1       2.025  -0.903  -1.219  0.00  0.00    +0.139 A 
ATOM     27  O   UNL     1       2.754  -0.916  -0.069  0.00  0.00    -0.425 OA
ATOM     28  C   UNL     1       2.223  -0.312   1.012  0.00  0.00    +0.316 C 
ATOM     29  O   UNL     1       2.898   0.355   1.760  0.00  0.00    -0.250 OA
ATOM     30  C   UNL     1       0.740  -0.510   1.245  0.00  0.00    +0.114 C 
ATOM     31 CL   UNL     1      -0.299  -0.971  -5.082  0.00  0.00    -0.080 Cl
BRANCH  24  32
ATOM     32  O   UNL     1       2.525  -1.772  -4.725  0.00  0.00    -0.494 OA
ATOM     33  C   UNL     1       3.892  -2.179  -4.631  0.00  0.00    +0.277 C 
ENDBRANCH  24  32
ENDBRANCH  18  30
ENDBRANCH   1  18
TORSDOF 6
