REMARK  Name = ZINC13296345
REMARK  7 active torsions:
REMARK  status: ('A' for Active; 'I' for Inactive)
REMARK    1  A    between atoms: C_1  and  C_2
REMARK    2  A    between atoms: C_2  and  C_4
REMARK    3  A    between atoms: C_2  and  S_18
REMARK    4  A    between atoms: N_6  and  C_7
REMARK    5  A    between atoms: C_12  and  C_13
REMARK    6  A    between atoms: S_18  and  C_19
REMARK    7  A    between atoms: N_23  and  C_28
REMARK                            x       y       z     vdW  Elec       q    Type
REMARK                         _______ _______ _______ _____ _____    ______ ____
ROOT
ATOM      1  C   UNL     1      -0.747   1.610  -1.245  0.00  0.00    +0.029 C 
ATOM      2  C   UNL     1      -0.016   1.095  -0.004  0.00  0.00    +0.136 C 
ENDROOT
BRANCH   2   3
ATOM      3  C   UNL     1       1.400   1.609  -0.005  0.00  0.00    +0.230 C 
ATOM      4  O   UNL     1       1.698   2.567   0.677  0.00  0.00    -0.274 OA
ATOM      5  N   UNL     1       2.336   1.006  -0.765  0.00  0.00    -0.284 N 
ATOM      6  H   UNL     1       2.118   0.194  -1.248  0.00  0.00    +0.155 HD
BRANCH   5   7
ATOM      7  C   UNL     1       3.621   1.552  -0.857  0.00  0.00    +0.045 A 
ATOM      8  C   UNL     1       3.819   2.908  -0.631  0.00  0.00    +0.025 A 
ATOM      9  C   UNL     1       5.089   3.443  -0.722  0.00  0.00    +0.022 A 
ATOM     10  C   UNL     1       6.163   2.630  -1.038  0.00  0.00    +0.042 A 
ATOM     11  C   UNL     1       5.969   1.279  -1.264  0.00  0.00    +0.034 A 
ATOM     12  C   UNL     1       4.702   0.737  -1.168  0.00  0.00    +0.077 A 
ATOM     13 CL   UNL     1       7.758   3.307  -1.153  0.00  0.00    -0.084 Cl
BRANCH  12  14
ATOM     14  C   UNL     1       4.492  -0.736  -1.408  0.00  0.00    +0.419 C 
ATOM     15  F   UNL     1       5.718  -1.340  -1.702  0.00  0.00    -0.166 F 
ATOM     16  F   UNL     1       3.947  -1.322  -0.260  0.00  0.00    -0.166 F 
ATOM     17  F   UNL     1       3.614  -0.913  -2.483  0.00  0.00    -0.166 F 
ENDBRANCH  12  14
ENDBRANCH   5   7
ENDBRANCH   2   3
BRANCH   2  18
ATOM     18  S   UNL     1      -0.868   1.677   1.483  0.00  0.00    -0.093 S 
BRANCH  18  19
ATOM     19  C   UNL     1      -2.403   0.829   1.308  0.00  0.00    +0.112 A 
ATOM     20  C   UNL     1      -3.422   0.975   2.270  0.00  0.00    +0.071 A 
ATOM     21  C   UNL     1      -3.560   1.712   3.466  0.00  0.00    +0.147 A 
ATOM     22  N   UNL     1      -4.742   1.479   3.962  0.00  0.00    -0.172 NA
ATOM     23  N   UNL     1      -5.437   0.593   3.129  0.00  0.00    -0.214 N 
ATOM     24  C   UNL     1      -4.629   0.276   2.075  0.00  0.00    +0.167 A 
ATOM     25  N   UNL     1      -4.755  -0.499   0.999  0.00  0.00    -0.216 NA
ATOM     26  C   UNL     1      -3.773  -0.608   0.131  0.00  0.00    +0.224 A 
ATOM     27  N   UNL     1      -2.626   0.031   0.269  0.00  0.00    -0.228 NA
BRANCH  23  28
ATOM     28  C   UNL     1      -6.737   0.114   3.341  0.00  0.00    +0.068 A 
ATOM     29  C   UNL     1      -7.580  -0.109   2.260  0.00  0.00    +0.030 A 
ATOM     30  C   UNL     1      -8.859  -0.586   2.470  0.00  0.00    +0.040 A 
ATOM     31  C   UNL     1      -9.305  -0.831   3.758  0.00  0.00    +0.124 A 
ATOM     32  C   UNL     1      -8.468  -0.603   4.838  0.00  0.00    +0.040 A 
ATOM     33  C   UNL     1      -7.186  -0.132   4.631  0.00  0.00    +0.030 A 
ATOM     34  F   UNL     1     -10.558  -1.292   3.962  0.00  0.00    -0.205 F 
ENDBRANCH  23  28
ENDBRANCH  18  19
ENDBRANCH   2  18
TORSDOF 6
