REMARK  Name = ZINC33062655
REMARK  6 active torsions:
REMARK  status: ('A' for Active; 'I' for Inactive)
REMARK    1  A    between atoms: C_3  and  N_20
REMARK    2  A    between atoms: C_6  and  C_7
REMARK    3  A    between atoms: N_9  and  C_10
REMARK    4  A    between atoms: C_14  and  C_16
REMARK    5  A    between atoms: N_20  and  S_21
REMARK    6  A    between atoms: S_21  and  C_24
REMARK                            x       y       z     vdW  Elec       q    Type
REMARK                         _______ _______ _______ _____ _____    ______ ____
ROOT
ATOM      1  C   UNL     1      -0.017   1.394   0.005  0.00  0.00    +0.015 A 
ATOM      2  C   UNL     1       1.167   2.096  -0.010  0.00  0.00    +0.027 A 
ATOM      3  C   UNL     1       2.381   1.417  -0.035  0.00  0.00    +0.074 A 
ATOM      4  C   UNL     1       2.403   0.025  -0.044  0.00  0.00    +0.027 A 
ATOM      5  C   UNL     1       1.224  -0.684  -0.029  0.00  0.00    +0.015 A 
ATOM      6  C   UNL     1       0.002  -0.004  -0.004  0.00  0.00    +0.037 A 
ENDROOT
BRANCH   6   7
ATOM      7  C   UNL     1      -1.264  -0.760   0.012  0.00  0.00    +0.248 C 
ATOM      8  O   UNL     1      -2.326  -0.168   0.034  0.00  0.00    -0.270 OA
ATOM      9  N   UNL     1      -1.244  -2.108   0.003  0.00  0.00    -0.281 N 
ATOM     10  H   UNL     1      -0.401  -2.580  -0.082  0.00  0.00    +0.155 HD
BRANCH   9  11
ATOM     11  C   UNL     1      -2.440  -2.826   0.117  0.00  0.00    +0.035 A 
ATOM     12  C   UNL     1      -3.603  -2.336  -0.467  0.00  0.00    +0.026 A 
ATOM     13  C   UNL     1      -4.787  -3.039  -0.358  0.00  0.00    +0.041 A 
ATOM     14  C   UNL     1      -4.824  -4.237   0.332  0.00  0.00    +0.136 A 
ATOM     15  C   UNL     1      -3.659  -4.738   0.922  0.00  0.00    +0.073 A 
ATOM     16  C   UNL     1      -2.463  -4.028   0.806  0.00  0.00    +0.039 A 
ATOM     17  F   UNL     1      -5.983  -4.922   0.437  0.00  0.00    -0.205 F 
BRANCH  15  18
ATOM     18  C   UNL     1      -3.693  -6.017   1.661  0.00  0.00    +0.244 C 
ATOM     19  O   UNL     1      -4.735  -6.636   1.756  0.00  0.00    -0.270 OA
ATOM     20  N   UNL     1      -2.569  -6.497   2.228  0.00  0.00    -0.325 N 
ATOM     21  H   UNL     1      -1.738  -6.003   2.152  0.00  0.00    +0.145 HD
ATOM     22  H   UNL     1      -2.591  -7.337   2.713  0.00  0.00    +0.145 HD
ENDBRANCH  15  18
ENDBRANCH   9  11
ENDBRANCH   6   7
BRANCH   3  23
ATOM     23  N   UNL     1       3.575   2.130  -0.050  0.00  0.00    -0.098 NA
BRANCH  23  24
ATOM     24  S   UNL     1       5.021   1.323  -0.080  0.00  0.00    +0.092 S 
ATOM     25  O   UNL     1       5.128   0.636   1.160  0.00  0.00    -0.148 OA
ATOM     26  O   UNL     1       5.086   0.652  -1.330  0.00  0.00    -0.148 OA
BRANCH  24  27
ATOM     27  C   UNL     1       6.296   2.539  -0.093  0.00  0.00    +0.110 A 
ATOM     28  C   UNL     1       6.772   3.028  -1.296  0.00  0.00    +0.030 A 
ATOM     29  C   UNL     1       7.771   3.982  -1.307  0.00  0.00    +0.017 A 
ATOM     30  C   UNL     1       8.296   4.448  -0.115  0.00  0.00    +0.018 A 
ATOM     31  C   UNL     1       7.819   3.959   1.088  0.00  0.00    +0.017 A 
ATOM     32  C   UNL     1       6.816   3.008   1.098  0.00  0.00    +0.030 A 
ATOM     33 BR   UNL     1       9.664   5.753  -0.130  0.00  0.00    -0.050 Br
ENDBRANCH  24  27
ENDBRANCH  23  24
ENDBRANCH   3  23
TORSDOF 6
