REMARK  Name = ZINC39480220
REMARK  4 active torsions:
REMARK  status: ('A' for Active; 'I' for Inactive)
REMARK    1  A    between atoms: C_1  and  N_2
REMARK    2  A    between atoms: C_8  and  O_9
REMARK    3  A    between atoms: O_9  and  C_10
REMARK    4  A    between atoms: C_13  and  O_22
REMARK                            x       y       z     vdW  Elec       q    Type
REMARK                         _______ _______ _______ _____ _____    ______ ____
ROOT
ATOM      1  C   UNL     1      -0.018   1.461   0.010  0.00  0.00    +0.137 C 
ATOM      2  N   UNL     1       0.002  -0.004   0.002  0.00  0.00    -0.283 N 
ATOM      3  C   UNL     1      -1.245  -0.587   0.005  0.00  0.00    +0.081 A 
ATOM      4  C   UNL     1      -2.256   0.122   0.623  0.00  0.00    -0.013 A 
ATOM      5  C   UNL     1      -3.566   0.029   0.328  0.00  0.00    +0.021 A 
ATOM      6  C   UNL     1      -3.941  -1.084  -0.436  0.00  0.00    +0.022 A 
ATOM      7  C   UNL     1      -2.974  -1.992  -0.838  0.00  0.00    +0.062 A 
ATOM      8  C   UNL     1      -1.619  -1.763  -0.632  0.00  0.00    +0.143 A 
ATOM      9 BR   UNL     1      -5.751  -1.346  -0.914  0.00  0.00    -0.050 Br
ATOM     10  C   UNL     1      -1.768   0.588   2.033  0.00  0.00    +0.132 C 
ATOM     11  C   UNL     1      -0.376  -0.034   1.994  0.00  0.00    +0.192 C 
ATOM     12  N   UNL     1       0.756   0.586   1.905  0.00  0.00    -0.211 NA
ATOM     13  C   UNL     1       1.754  -0.137   1.323  0.00  0.00    +0.144 A 
ATOM     14  C   UNL     1       1.257  -0.549  -0.013  0.00  0.00    +0.156 A 
ATOM     15  N   UNL     1       2.017  -1.236  -0.776  0.00  0.00    -0.218 NA
ATOM     16  C   UNL     1       3.238  -1.584  -0.381  0.00  0.00    +0.225 A 
ATOM     17  N   UNL     1       3.722  -1.245   0.798  0.00  0.00    -0.222 NA
ATOM     18  C   UNL     1       3.001  -0.523   1.678  0.00  0.00    +0.160 A 
ATOM     19 CL   UNL     1       3.655  -0.088   3.226  0.00  0.00    -0.060 Cl
ENDROOT
BRANCH   8  20
ATOM     20  O   UNL     1      -0.686  -2.663  -1.043  0.00  0.00    -0.493 OA
ATOM     21  C   UNL     1      -1.166  -3.844  -1.690  0.00  0.00    +0.277 C 
ENDBRANCH   8  20
BRANCH  11  22
ATOM     22  O   UNL     1      -0.319  -1.381   2.062  0.00  0.00    -0.495 OA
ATOM     23  H   UNL     1       0.580  -1.738   2.035  0.00  0.00    +0.293 HD
ENDBRANCH  11  22
TORSDOF 2
