REMARK  Name = ZINC14356544
REMARK  5 active torsions:
REMARK  status: ('A' for Active; 'I' for Inactive)
REMARK    1  A    between atoms: N_9  and  C_12
REMARK    2  A    between atoms: C_16  and  C_18
REMARK    3  A    between atoms: N_20  and  C_21
REMARK    4  A    between atoms: C_25  and  S_27
REMARK    5  A    between atoms: S_27  and  N_30
REMARK                            x       y       z     vdW  Elec       q    Type
REMARK                         _______ _______ _______ _____ _____    ______ ____
ROOT
ATOM      1  C   UNL     1      -2.436   1.523  -0.307  0.00  0.00    +0.045 A 
ATOM      2  C   UNL     1      -2.639   0.158  -0.141  0.00  0.00    +0.024 A 
ATOM      3  C   UNL     1      -3.917  -0.338   0.038  0.00  0.00    +0.003 A 
ATOM      4  C   UNL     1      -5.000   0.517   0.042  0.00  0.00    +0.013 A 
ATOM      5  C   UNL     1      -4.807   1.889  -0.129  0.00  0.00    +0.039 A 
ATOM      6  C   UNL     1      -3.517   2.390  -0.304  0.00  0.00    +0.037 A 
ENDROOT
BRANCH   1  15
ATOM      7  C   UNL     1       3.355   3.008  -1.026  0.00  0.00    +0.001 A 
ATOM      8  C   UNL     1       2.849   4.291  -1.121  0.00  0.00    +0.001 A 
ATOM      9  C   UNL     1       1.486   4.519  -1.012  0.00  0.00    +0.014 A 
ATOM     10  C   UNL     1       0.625   3.452  -0.808  0.00  0.00    +0.050 A 
ATOM     11  C   UNL     1       1.141   2.144  -0.713  0.00  0.00    +0.050 A 
ATOM     12  C   UNL     1       2.506   1.931  -0.823  0.00  0.00    +0.014 A 
ATOM     13  C   UNL     1      -0.027   1.263  -0.500  0.00  0.00    +0.258 C 
ATOM     14  O   UNL     1       0.010   0.057  -0.369  0.00  0.00    -0.269 OA
ATOM     15  N   UNL     1      -1.138   2.022  -0.482  0.00  0.00    -0.202 N 
ATOM     16  C   UNL     1      -0.839   3.322  -0.651  0.00  0.00    +0.258 C 
ATOM     17  O   UNL     1      -1.638   4.236  -0.675  0.00  0.00    -0.269 OA
ENDBRANCH   1  15
BRANCH   5  18
ATOM     18  C   UNL     1      -5.965   2.807  -0.125  0.00  0.00    +0.248 C 
ATOM     19  O   UNL     1      -5.795   4.001  -0.274  0.00  0.00    -0.270 OA
ATOM     20  N   UNL     1      -7.211   2.320   0.044  0.00  0.00    -0.281 N 
ATOM     21  H   UNL     1      -7.355   1.362   0.087  0.00  0.00    +0.155 HD
BRANCH  20  22
ATOM     22  C   UNL     1      -8.294   3.197   0.159  0.00  0.00    +0.036 A 
ATOM     23  C   UNL     1      -9.539   2.833  -0.339  0.00  0.00    +0.023 A 
ATOM     24  C   UNL     1     -10.607   3.700  -0.224  0.00  0.00    +0.004 A 
ATOM     25  C   UNL     1     -10.439   4.930   0.386  0.00  0.00    +0.028 A 
ATOM     26  C   UNL     1      -9.201   5.295   0.883  0.00  0.00    +0.107 A 
ATOM     27  C   UNL     1      -8.130   4.430   0.775  0.00  0.00    +0.051 A 
BRANCH  26  28
ATOM     28  S   UNL     1      -8.992   6.863   1.660  0.00  0.00    +0.056 S 
ATOM     29  O   UNL     1      -7.613   7.188   1.553  0.00  0.00    -0.153 OA
ATOM     30  O   UNL     1     -10.016   7.707   1.152  0.00  0.00    -0.153 OA
BRANCH  28  31
ATOM     31  N   UNL     1      -9.306   6.656   3.273  0.00  0.00    -0.204 NA
ATOM     32  H   UNL     1      -8.859   7.213   3.929  0.00  0.00    +0.144 HD
ATOM     33  H   UNL     1      -9.936   5.977   3.561  0.00  0.00    +0.144 HD
ENDBRANCH  28  31
ENDBRANCH  26  28
ENDBRANCH  20  22
ENDBRANCH   5  18
TORSDOF 5
