REMARK  Name = ZINC39685855
REMARK  16 active torsions:
REMARK  status: ('A' for Active; 'I' for Inactive)
REMARK    1  A    between atoms: C_1  and  C_2
REMARK    2  A    between atoms: C_2  and  C_3
REMARK    3  A    between atoms: C_3  and  C_4
REMARK    4  A    between atoms: C_4  and  C_5
REMARK    5  A    between atoms: C_5  and  C_7
REMARK    6  A    between atoms: C_5  and  C_8
REMARK    7  A    between atoms: C_12  and  C_21
REMARK    8  A    between atoms: N_23  and  C_24
REMARK    9  A    between atoms: C_24  and  C_26
REMARK   10  A    between atoms: C_24  and  C_29
REMARK   11  A    between atoms: C_26  and  C_27
REMARK   12  A    between atoms: C_26  and  C_28
REMARK   13  A    between atoms: N_31  and  C_32
REMARK   14  A    between atoms: C_32  and  C_33
REMARK   15  A    between atoms: C_32  and  C_34
REMARK   16  A    between atoms: C_32  and  C_35
REMARK                            x       y       z     vdW  Elec       q    Type
REMARK                         _______ _______ _______ _____ _____    ______ ____
ROOT
ATOM      1  C   UNL     1       0.510  -5.920  -3.701  0.00  0.00    +0.218 C 
ATOM      2  O   UNL     1      -0.173  -6.814  -3.248  0.00  0.00    -0.275 OA
ATOM      3  N   UNL     1       1.270  -6.139  -4.792  0.00  0.00    -0.300 N 
ATOM      4  C   UNL     1       2.168  -5.182  -5.481  0.00  0.00    +0.121 C 
ATOM      5  C   UNL     1       3.404  -6.021  -5.875  0.00  0.00    +0.100 C 
ATOM      6  C   UNL     1       2.891  -7.470  -5.937  0.00  0.00    -0.004 C 
ATOM      7  C   UNL     1       1.402  -7.394  -5.570  0.00  0.00    +0.115 C 
ATOM      8  C   UNL     1       3.634  -8.337  -4.925  0.00  0.00    -0.010 C 
ATOM      9  C   UNL     1       3.148  -9.784  -5.044  0.00  0.00    -0.082 C 
ATOM     10  N   UNL     1       3.389 -10.272  -6.407  0.00  0.00    +0.379 N 
ATOM     11  C   UNL     1       2.599  -9.491  -7.367  0.00  0.00    -0.082 C 
ATOM     12  C   UNL     1       3.062  -8.032  -7.345  0.00  0.00    -0.010 C 
ATOM     13  H   UNL     1       4.370 -10.179  -6.627  0.00  0.00    -0.086 HD
ATOM     14  H   UNL     1       3.124 -11.244  -6.467  0.00  0.00    -0.086 HD
ENDROOT
BRANCH   5  15
ATOM     15  C   UNL     1       3.923  -5.588  -7.222  0.00  0.00    +0.219 C 
ATOM     16  O   UNL     1       3.156  -5.168  -8.062  0.00  0.00    -0.275 OA
ATOM     17  N   UNL     1       5.241  -5.668  -7.494  0.00  0.00    -0.303 N 
ATOM     18  H   UNL     1       5.855  -6.005  -6.822  0.00  0.00    +0.149 HD
BRANCH  17  19
ATOM     19  C   UNL     1       5.746  -5.248  -8.803  0.00  0.00    +0.161 C 
BRANCH  19  20
ATOM     20  C   UNL     1       7.040  -5.963  -9.096  0.00  0.00    +0.234 C 
ATOM     21  O   UNL     1       7.670  -6.471  -8.193  0.00  0.00    -0.274 OA
ATOM     22  N   UNL     1       7.497  -6.038 -10.361  0.00  0.00    -0.309 N 
ATOM     23  H   UNL     1       7.031  -5.573 -11.074  0.00  0.00    +0.149 HD
BRANCH  22  24
ATOM     24  C   UNL     1       8.698  -6.821 -10.662  0.00  0.00    +0.026 C 
ATOM     25  C   UNL     1       8.468  -8.280 -10.265  0.00  0.00    +0.031 C 
ATOM     26  C   UNL     1       8.998  -6.740 -12.160  0.00  0.00    +0.031 C 
ATOM     27  C   UNL     1       9.883  -6.259  -9.873  0.00  0.00    +0.031 C 
ENDBRANCH  22  24
ENDBRANCH  19  20
BRANCH  19  28
ATOM     28  C   UNL     1       5.989  -3.737  -8.794  0.00  0.00    +0.012 C 
ATOM     29  C   UNL     1       4.659  -3.008  -8.596  0.00  0.00    +0.009 C 
ATOM     30  C   UNL     1       6.942  -3.380  -7.652  0.00  0.00    +0.009 C 
ENDBRANCH  19  28
ENDBRANCH  17  19
ENDBRANCH   5  15
BRANCH   1  31
ATOM     31  C   UNL     1       0.509  -4.564  -3.043  0.00  0.00    +0.072 C 
ATOM     32  C   UNL     1       0.030  -3.512  -4.045  0.00  0.00    +0.017 C 
BRANCH  31  33
ATOM     33  C   UNL     1      -0.430  -4.584  -1.836  0.00  0.00    +0.012 C 
BRANCH  33  34
ATOM     34  C   UNL     1      -0.337  -3.248  -1.095  0.00  0.00    +0.000 C 
BRANCH  34  36
ATOM     35  C   UNL     1      -1.184  -1.932   0.853  0.00  0.00    +0.004 C 
ATOM     36  C   UNL     1      -1.277  -3.268   0.112  0.00  0.00    -0.003 C 
ENDBRANCH  34  36
ENDBRANCH  33  34
ENDBRANCH  31  33
ENDBRANCH   1  31
TORSDOF 9
