REMARK  Name = ZINC23286595
REMARK  4 active torsions:
REMARK  status: ('A' for Active; 'I' for Inactive)
REMARK    1  A    between atoms: C_6  and  N_7
REMARK    2  A    between atoms: C_11  and  N_15
REMARK    3  A    between atoms: N_18  and  C_21
REMARK    4  A    between atoms: C_21  and  C_22
REMARK                            x       y       z     vdW  Elec       q    Type
REMARK                         _______ _______ _______ _____ _____    ______ ____
ROOT
ATOM      1  N   UNL     1      -1.423  -1.051   0.348  0.00  0.00    -0.209 N 
ATOM      2  C   UNL     1      -2.501  -0.263   0.252  0.00  0.00    +0.228 C 
ATOM      3  O   UNL     1      -2.498   0.946   0.348  0.00  0.00    -0.275 OA
ATOM      4  C   UNL     1      -3.723  -1.120   0.005  0.00  0.00    +0.125 C 
ATOM      5  C   UNL     1      -3.158  -2.555  -0.025  0.00  0.00    +0.153 C 
ATOM      6  C   UNL     1      -1.675  -2.357   0.202  0.00  0.00    +0.244 C 
ATOM      7  O   UNL     1      -0.848  -3.242   0.247  0.00  0.00    -0.273 OA
ENDROOT
BRANCH   1  13
ATOM      8  C   UNL     1       0.512   0.186  -0.409  0.00  0.00    +0.027 A 
ATOM      9  C   UNL     1       1.782   0.680  -0.183  0.00  0.00    +0.041 A 
ATOM     10  C   UNL     1       2.412   0.445   1.027  0.00  0.00    +0.142 A 
ATOM     11  C   UNL     1       1.770  -0.287   2.014  0.00  0.00    +0.078 A 
ATOM     12  C   UNL     1       0.499  -0.783   1.790  0.00  0.00    +0.046 A 
ATOM     13  C   UNL     1      -0.133  -0.548   0.577  0.00  0.00    +0.045 A 
ATOM     14 CL   UNL     1       2.562  -0.582   3.530  0.00  0.00    -0.081 Cl
ATOM     15  F   UNL     1       3.654   0.929   1.247  0.00  0.00    -0.204 F 
ENDBRANCH   1  13
BRANCH   5  16
ATOM     16  N   UNL     1      -3.401  -3.178  -1.333  0.00  0.00    -0.289 NA
ATOM     17  C   UNL     1      -2.639  -2.498  -2.390  0.00  0.00    +0.100 C 
ATOM     18  C   UNL     1      -2.980  -3.124  -3.745  0.00  0.00    +0.100 C 
ATOM     19  N   UNL     1      -2.663  -4.559  -3.711  0.00  0.00    -0.296 NA
ATOM     20  C   UNL     1      -3.425  -5.239  -2.654  0.00  0.00    +0.100 C 
ATOM     21  C   UNL     1      -3.084  -4.612  -1.300  0.00  0.00    +0.100 C 
BRANCH  19  22
ATOM     22  C   UNL     1      -2.906  -5.182  -5.019  0.00  0.00    +0.121 C 
BRANCH  22  23
ATOM     23  C   UNL     1      -2.218  -6.522  -5.073  0.00  0.00    -0.015 A 
ATOM     24  C   UNL     1      -2.956  -7.683  -4.941  0.00  0.00    +0.008 A 
ATOM     25  C   UNL     1      -2.326  -8.912  -4.990  0.00  0.00    +0.020 A 
ATOM     26  C   UNL     1      -0.956  -8.981  -5.171  0.00  0.00    +0.042 A 
ATOM     27  C   UNL     1      -0.217  -7.819  -5.303  0.00  0.00    +0.040 A 
ATOM     28  C   UNL     1      -0.849  -6.589  -5.259  0.00  0.00    +0.047 A 
ATOM     29 CL   UNL     1       0.077  -5.131  -5.431  0.00  0.00    -0.083 Cl
ATOM     30 CL   UNL     1      -0.164 -10.525  -5.232  0.00  0.00    -0.083 Cl
ENDBRANCH  22  23
ENDBRANCH  19  22
ENDBRANCH   5  16
TORSDOF 4
