REMARK  Name = ZINC11998725
REMARK  6 active torsions:
REMARK  status: ('A' for Active; 'I' for Inactive)
REMARK    1  A    between atoms: C_3  and  C_6
REMARK    2  A    between atoms: C_6  and  C_8
REMARK    3  A    between atoms: C_6  and  O_31
REMARK    4  A    between atoms: C_13  and  C_14
REMARK    5  A    between atoms: C_13  and  N_58
REMARK    6  A    between atoms: C_22  and  N_24
REMARK                            x       y       z     vdW  Elec       q    Type
REMARK                         _______ _______ _______ _____ _____    ______ ____
ROOT
ATOM      1  C   UNL     1       3.731  -0.792  -5.946  0.00  0.00    +0.115 A 
ATOM      2  N   UNL     1       3.791  -2.094  -6.099  0.00  0.00    -0.234 NA
ATOM      3  C   UNL     1       2.948  -2.719  -6.935  0.00  0.00    +0.078 A 
ATOM      4  C   UNL     1       2.981  -4.108  -7.120  0.00  0.00    +0.048 A 
ATOM      5  C   UNL     1       2.104  -4.692  -7.987  0.00  0.00    +0.043 A 
ATOM      6  C   UNL     1       1.175  -3.929  -8.692  0.00  0.00    +0.021 A 
ATOM      7  C   UNL     1       1.117  -2.576  -8.534  0.00  0.00    +0.015 A 
ATOM      8  C   UNL     1       2.003  -1.946  -7.653  0.00  0.00    +0.040 A 
ATOM      9  C   UNL     1       1.991  -0.545  -7.448  0.00  0.00    +0.133 A 
ATOM     10  N   UNL     1       2.866  -0.029  -6.594  0.00  0.00    -0.219 NA
ATOM     11 CL   UNL     1       2.146  -6.413  -8.214  0.00  0.00    -0.083 Cl
ENDROOT
BRANCH   9  12
ATOM     12  N   UNL     1       1.095   0.261  -8.117  0.00  0.00    -0.310 N 
ATOM     13  C   UNL     1       1.795   1.228  -8.975  0.00  0.00    +0.134 C 
ATOM     14  C   UNL     1       0.764   2.061  -9.742  0.00  0.00    +0.178 C 
ATOM     15  O   UNL     1      -0.115   2.698  -8.811  0.00  0.00    -0.377 OA
ATOM     16  C   UNL     1      -0.813   1.785  -7.961  0.00  0.00    +0.178 C 
ATOM     17  C   UNL     1       0.201   0.950  -7.175  0.00  0.00    +0.134 C 
ENDBRANCH   9  12
BRANCH   1  18
ATOM     18  C   UNL     1       4.695  -0.136  -4.991  0.00  0.00    -0.001 C 
BRANCH  18  24
ATOM     19  C   UNL     1       2.872   1.152  -1.344  0.00  0.00    +0.019 C 
ATOM     20  C   UNL     1       2.070   0.294  -2.326  0.00  0.00    -0.012 C 
ATOM     21  C   UNL     1       2.705   0.388  -3.715  0.00  0.00    -0.078 C 
ATOM     22  C   UNL     1       4.897   0.758  -2.751  0.00  0.00    -0.078 C 
ATOM     23  C   UNL     1       4.327   0.676  -1.333  0.00  0.00    -0.012 C 
ATOM     24  N   UNL     1       4.096  -0.109  -3.641  0.00  0.00    +0.384 N 
ATOM     25  H   UNL     1       4.090  -1.062  -3.260  0.00  0.00    -0.081 HD
BRANCH  19  26
ATOM     26  C   UNL     1       2.278   1.015   0.059  0.00  0.00    +0.154 C 
BRANCH  26  29
ATOM     27  C   UNL     1      -1.510   1.404  -0.015  0.00  0.00    +0.008 A 
ATOM     28  C   UNL     1      -0.292   0.751  -0.009  0.00  0.00    +0.014 A 
ATOM     29  C   UNL     1       0.846   1.485   0.047  0.00  0.00    +0.018 A 
ATOM     30  S   UNL     1       0.209   3.151   0.102  0.00  0.00    -0.099 S 
ATOM     31  C   UNL     1      -1.531   2.758   0.047  0.00  0.00    +0.045 A 
ENDBRANCH  26  29
BRANCH  26  32
ATOM     32  O   UNL     1       3.033   1.811   0.976  0.00  0.00    -0.386 OA
ATOM     33  H   UNL     1       3.043   2.754   0.761  0.00  0.00    +0.210 HD
ENDBRANCH  26  32
ENDBRANCH  19  26
ENDBRANCH  18  24
ENDBRANCH   1  18
TORSDOF 6
