REMARK  Name = ZINC02656061
REMARK  6 active torsions:
REMARK  status: ('A' for Active; 'I' for Inactive)
REMARK    1  A    between atoms: C_1  and  N_2
REMARK    2  A    between atoms: N_2  and  C_3
REMARK    3  A    between atoms: N_2  and  S_9
REMARK    4  A    between atoms: S_9  and  C_12
REMARK    5  A    between atoms: C_16  and  C_18
REMARK    6  A    between atoms: C_23  and  C_26
REMARK                            x       y       z     vdW  Elec       q    Type
REMARK                         _______ _______ _______ _____ _____    ______ ____
ROOT
ATOM      1  C   UNL     1       5.859   0.859   0.496  0.00  0.00    +0.109 A 
ATOM      2  C   UNL     1       6.915   0.212   1.114  0.00  0.00    +0.029 A 
ATOM      3  C   UNL     1       7.642   0.850   2.103  0.00  0.00    +0.003 A 
ATOM      4  C   UNL     1       7.317   2.137   2.481  0.00  0.00    +0.013 A 
ATOM      5  C   UNL     1       6.253   2.795   1.862  0.00  0.00    +0.039 A 
ATOM      6  C   UNL     1       5.527   2.147   0.860  0.00  0.00    +0.042 A 
ENDROOT
BRANCH   5   7
ATOM      7  C   UNL     1       5.899   4.173   2.261  0.00  0.00    +0.250 C 
ATOM      8  O   UNL     1       4.972   4.744   1.720  0.00  0.00    -0.270 OA
ATOM      9  N   UNL     1       6.605   4.798   3.224  0.00  0.00    -0.261 N 
ATOM     10  C   UNL     1       6.273   6.093   3.599  0.00  0.00    +0.165 A 
ATOM     11  N   UNL     1       6.832   6.869   4.509  0.00  0.00    -0.225 NA
ATOM     12  C   UNL     1       6.382   8.093   4.739  0.00  0.00    +0.080 A 
ATOM     13  C   UNL     1       5.318   8.563   4.022  0.00  0.00    +0.076 A 
ATOM     14  S   UNL     1       4.979   7.155   2.972  0.00  0.00    -0.060 S 
ATOM     15  H   UNL     1       7.345   4.343   3.655  0.00  0.00    +0.157 HD
BRANCH  12  16
ATOM     16  C   UNL     1       7.027   8.946   5.767  0.00  0.00    +0.004 A 
ATOM     17  C   UNL     1       8.112   8.463   6.497  0.00  0.00    +0.013 A 
ATOM     18  C   UNL     1       8.710   9.259   7.452  0.00  0.00    +0.042 A 
ATOM     19  C   UNL     1       8.233  10.538   7.689  0.00  0.00    +0.158 A 
ATOM     20  C   UNL     1       7.153  11.024   6.966  0.00  0.00    +0.159 A 
ATOM     21  C   UNL     1       6.553  10.236   6.003  0.00  0.00    +0.051 A 
ATOM     22  F   UNL     1       6.691  12.272   7.200  0.00  0.00    -0.202 F 
ATOM     23  F   UNL     1       8.821  11.313   8.625  0.00  0.00    -0.202 F 
ENDBRANCH  12  16
ENDBRANCH   5   7
BRANCH   1  24
ATOM     24  S   UNL     1       4.941   0.036  -0.763  0.00  0.00    +0.074 S 
ATOM     25  O   UNL     1       5.843  -0.850  -1.410  0.00  0.00    -0.150 OA
ATOM     26  O   UNL     1       4.225   1.043  -1.466  0.00  0.00    -0.150 OA
BRANCH  24  28
ATOM     27  C   UNL     1       4.145  -2.278   0.389  0.00  0.00    +0.157 C 
ATOM     28  N   UNL     1       3.810  -0.908  -0.006  0.00  0.00    -0.206 N 
BRANCH  28  29
ATOM     29  C   UNL     1       2.536  -0.398   0.254  0.00  0.00    +0.051 A 
ATOM     30  C   UNL     1       1.450  -1.258   0.363  0.00  0.00    +0.025 A 
ATOM     31  C   UNL     1       0.192  -0.750   0.620  0.00  0.00    +0.002 A 
ATOM     32  C   UNL     1       0.012   0.613   0.770  0.00  0.00    +0.000 A 
ATOM     33  C   UNL     1       1.090   1.472   0.662  0.00  0.00    +0.002 A 
ATOM     34  C   UNL     1       2.351   0.971   0.405  0.00  0.00    +0.025 A 
ENDBRANCH  28  29
ENDBRANCH  24  28
ENDBRANCH   1  24
TORSDOF 5
