REMARK  Name = ZINC03450718
REMARK  11 active torsions:
REMARK  status: ('A' for Active; 'I' for Inactive)
REMARK    1  A    between atoms: C_1  and  C_2
REMARK    2  A    between atoms: C_2  and  C_3
REMARK    3  A    between atoms: C_4  and  C_35
REMARK    4  A    between atoms: N_10  and  C_27
REMARK    5  A    between atoms: C_11  and  S_13
REMARK    6  A    between atoms: S_13  and  C_14
REMARK    7  A    between atoms: C_14  and  C_15
REMARK    8  A    between atoms: N_17  and  C_18
REMARK    9  A    between atoms: N_17  and  C_19
REMARK   10  A    between atoms: C_30  and  O_34
REMARK   11  A    between atoms: C_32  and  C_33
REMARK                            x       y       z     vdW  Elec       q    Type
REMARK                         _______ _______ _______ _____ _____    ______ ____
ROOT
ATOM      1  C   UNL     1       0.000   1.080   2.488  0.00  0.00    -0.023 A 
ATOM      2  C   UNL     1      -0.331  -0.096   3.042  0.00  0.00    -0.007 A 
ATOM      3  S   UNL     1       0.791  -0.234   4.420  0.00  0.00    -0.073 S 
ATOM      4  C   UNL     1       1.667   1.296   4.218  0.00  0.00    +0.117 A 
ATOM      5  C   UNL     1       1.065   1.870   3.082  0.00  0.00    +0.076 A 
ATOM      6  C   UNL     1       1.584   3.139   2.677  0.00  0.00    +0.268 A 
ATOM      7  O   UNL     1       1.124   3.712   1.704  0.00  0.00    -0.267 OA
ATOM      8  N   UNL     1       2.586   3.694   3.384  0.00  0.00    -0.255 N 
ATOM      9  C   UNL     1       3.113   3.066   4.477  0.00  0.00    +0.178 A 
ATOM     10  N   UNL     1       2.654   1.896   4.871  0.00  0.00    -0.215 NA
ATOM     11  C   UNL     1      -1.395  -1.068   2.603  0.00  0.00    +0.052 C 
ENDROOT
BRANCH   8  12
ATOM     12  C   UNL     1       3.098   4.939   2.991  0.00  0.00    +0.055 A 
ATOM     13  C   UNL     1       4.158   5.003   2.097  0.00  0.00    +0.030 A 
ATOM     14  C   UNL     1       4.659   6.229   1.706  0.00  0.00    +0.047 A 
ATOM     15  C   UNL     1       4.110   7.397   2.216  0.00  0.00    +0.117 A 
ATOM     16  C   UNL     1       3.054   7.333   3.114  0.00  0.00    +0.050 A 
ATOM     17  C   UNL     1       2.550   6.108   3.501  0.00  0.00    -0.023 A 
ATOM     18  C   UNL     1       1.403   6.039   4.477  0.00  0.00    +0.046 C 
BRANCH  15  19
ATOM     19  O   UNL     1       4.607   8.604   1.837  0.00  0.00    -0.507 OA
ATOM     20  H   UNL     1       5.324   8.928   2.399  0.00  0.00    +0.292 HD
ENDBRANCH  15  19
ENDBRANCH   8  12
BRANCH   1  22
ATOM     21  C   UNL     1      -0.013   1.086   0.008  0.00  0.00    +0.009 C 
ATOM     22  C   UNL     1      -0.729   1.579   1.267  0.00  0.00    +0.033 C 
ENDBRANCH   1  22
BRANCH   9  23
ATOM     23  S   UNL     1       4.425   3.831   5.370  0.00  0.00    -0.078 S 
BRANCH  23  24
ATOM     24  C   UNL     1       4.698   2.587   6.656  0.00  0.00    +0.173 C 
BRANCH  24  25
ATOM     25  C   UNL     1       5.810   3.040   7.566  0.00  0.00    +0.226 C 
ATOM     26  O   UNL     1       6.364   4.100   7.366  0.00  0.00    -0.275 OA
ATOM     27  N   UNL     1       6.189   2.268   8.604  0.00  0.00    -0.299 N 
ATOM     28  C   UNL     1       5.520   0.987   8.846  0.00  0.00    +0.132 C 
BRANCH  27  29
ATOM     29  C   UNL     1       7.270   2.708   9.489  0.00  0.00    +0.098 C 
ATOM     30  C   UNL     1       8.402   1.668   9.483  0.00  0.00    +0.046 C 
ATOM     31  C   UNL     1       9.389   1.956  10.640  0.00  0.00    +0.168 C 
ATOM     32  S   UNL     1       8.319   2.781  11.888  0.00  0.00    -0.029 S 
ATOM     33  O   UNL     1       8.784   4.108  12.091  0.00  0.00    -0.174 OA
ATOM     34  O   UNL     1       8.161   1.917  13.005  0.00  0.00    -0.174 OA
ATOM     35  C   UNL     1       6.738   2.837  10.944  0.00  0.00    +0.188 C 
ENDBRANCH  27  29
ENDBRANCH  24  25
ENDBRANCH  23  24
ENDBRANCH   9  23
TORSDOF 7
