REMARK  Name = ZINC12151184
REMARK  6 active torsions:
REMARK  status: ('A' for Active; 'I' for Inactive)
REMARK    1  A    between atoms: C_4  and  C_7
REMARK    2  A    between atoms: C_7  and  N_67
REMARK    3  A    between atoms: C_9  and  S_29
REMARK    4  A    between atoms: C_12  and  C_14
REMARK    5  A    between atoms: N_19  and  C_22
REMARK    6  A    between atoms: S_29  and  C_30
REMARK                            x       y       z     vdW  Elec       q    Type
REMARK                         _______ _______ _______ _____ _____    ______ ____
ROOT
ATOM      1  C   UNL     1       6.721  -0.178   1.136  0.00  0.00    -0.063 C 
ATOM      2  C   UNL     1       6.160   0.668  -0.028  0.00  0.00    +0.037 C 
ATOM      3  C   UNL     1       4.661   0.843   0.289  0.00  0.00    +0.006 C 
ATOM      4  C   UNL     1       4.441   0.088   1.617  0.00  0.00    +0.021 C 
ATOM      5  N   UNL     1       5.545  -0.878   1.648  0.00  0.00    +0.391 N 
ATOM      6  H   UNL     1       5.326  -1.681   1.047  0.00  0.00    -0.080 HD
ENDROOT
BRANCH   4   7
ATOM      7  C   UNL     1       3.103  -0.607   1.612  0.00  0.00    +0.202 C 
ATOM      8  O   UNL     1       3.034  -1.788   1.345  0.00  0.00    -0.277 OA
ATOM      9  N   UNL     1       1.984   0.085   1.903  0.00  0.00    -0.300 N 
ATOM     10  C   UNL     1       0.659  -0.544   1.799  0.00  0.00    +0.126 C 
ATOM     11  C   UNL     1      -0.244   0.360   0.953  0.00  0.00    +0.124 C 
ATOM     12  N   UNL     1      -0.243   1.715   1.520  0.00  0.00    -0.325 N 
ATOM     13  C   UNL     1       1.097   2.314   1.468  0.00  0.00    +0.124 C 
ATOM     14  C   UNL     1       2.055   1.490   2.334  0.00  0.00    +0.126 C 
BRANCH  12  15
ATOM     15  C   UNL     1      -1.181   2.528   0.875  0.00  0.00    +0.065 A 
ATOM     16  C   UNL     1      -1.075   2.766  -0.489  0.00  0.00    +0.026 A 
ATOM     17  C   UNL     1      -2.005   3.567  -1.123  0.00  0.00    +0.002 A 
ATOM     18  C   UNL     1      -3.035   4.139  -0.401  0.00  0.00    +0.003 A 
ATOM     19  C   UNL     1      -3.143   3.909   0.958  0.00  0.00    +0.040 A 
ATOM     20  C   UNL     1      -2.218   3.106   1.600  0.00  0.00    +0.144 A 
ATOM     21  F   UNL     1      -2.322   2.881   2.928  0.00  0.00    -0.204 F 
ENDBRANCH  12  15
ENDBRANCH   4   7
BRANCH   5  22
ATOM     22  C   UNL     1       5.780  -1.360   3.046  0.00  0.00    -0.042 C 
BRANCH  22  26
ATOM     23  C   UNL     1       8.449  -4.695   3.011  0.00  0.00    +0.000 A 
ATOM     24  C   UNL     1       8.950  -3.410   3.099  0.00  0.00    +0.000 A 
ATOM     25  C   UNL     1       8.087  -2.330   3.110  0.00  0.00    +0.002 A 
ATOM     26  C   UNL     1       6.722  -2.536   3.033  0.00  0.00    -0.064 A 
ATOM     27  C   UNL     1       6.220  -3.822   2.950  0.00  0.00    +0.002 A 
ATOM     28  C   UNL     1       7.084  -4.901   2.934  0.00  0.00    +0.000 A 
ENDBRANCH  22  26
ENDBRANCH   5  22
BRANCH   2  29
ATOM     29  S   UNL     1       6.982   2.280  -0.089  0.00  0.00    -0.086 S 
BRANCH  29  30
ATOM     30  C   UNL     1       8.592   1.783  -0.604  0.00  0.00    +0.167 A 
ATOM     31  N   UNL     1       9.643   2.629  -0.820  0.00  0.00    -0.333 N 
ATOM     32  H   UNL     1       9.635   3.624  -0.717  0.00  0.00    +0.168 HD
ATOM     33  C   UNL     1      10.723   1.852  -1.207  0.00  0.00    +0.067 A 
ATOM     34  C   UNL     1      12.036   2.134  -1.552  0.00  0.00    +0.028 A 
ATOM     35  C   UNL     1      12.888   1.109  -1.908  0.00  0.00    +0.002 A 
ATOM     36  C   UNL     1      12.440  -0.203  -1.923  0.00  0.00    +0.002 A 
ATOM     37  C   UNL     1      11.140  -0.502  -1.582  0.00  0.00    +0.030 A 
ATOM     38  C   UNL     1      10.264   0.524  -1.220  0.00  0.00    +0.090 A 
ATOM     39  N   UNL     1       8.959   0.548  -0.843  0.00  0.00    -0.222 NA
ENDBRANCH  29  30
ENDBRANCH   2  29
TORSDOF 6
