REMARK  Name = ZINC37055666
REMARK  6 active torsions:
REMARK  status: ('A' for Active; 'I' for Inactive)
REMARK    1  A    between atoms: C_1  and  C_2
REMARK    2  A    between atoms: C_5  and  N_9
REMARK    3  A    between atoms: C_6  and  C_8
REMARK    4  A    between atoms: N_9  and  S_10
REMARK    5  A    between atoms: S_10  and  C_13
REMARK    6  A    between atoms: C_14  and  N_21
REMARK                            x       y       z     vdW  Elec       q    Type
REMARK                         _______ _______ _______ _____ _____    ______ ____
ROOT
ATOM      1  S   UNL     1       1.212  -5.414  -2.416  0.00  0.00    +0.075 S 
ATOM      2  O   UNL     1       1.365  -6.790  -2.737  0.00  0.00    -0.150 OA
ATOM      3  O   UNL     1       0.917  -4.431  -3.399  0.00  0.00    -0.150 OA
ENDROOT
BRANCH   1   4
ATOM      4  C   UNL     1       2.707  -4.910  -1.632  0.00  0.00    +0.143 A 
ATOM      5  C   UNL     1       3.095  -3.577  -1.667  0.00  0.00    +0.054 A 
ATOM      6  C   UNL     1       4.274  -3.183  -1.047  0.00  0.00    +0.040 A 
ATOM      7  C   UNL     1       5.058  -4.119  -0.397  0.00  0.00    +0.021 A 
ATOM      8  C   UNL     1       4.669  -5.446  -0.364  0.00  0.00    +0.032 A 
ATOM      9  C   UNL     1       3.491  -5.840  -0.976  0.00  0.00    +0.047 A 
ATOM     10 BR   UNL     1       2.960  -7.654  -0.921  0.00  0.00    -0.048 Br
ATOM     11 BR   UNL     1       6.663  -3.584   0.447  0.00  0.00    -0.050 Br
BRANCH   5  12
ATOM     12  N   UNL     1       2.302  -2.634  -2.325  0.00  0.00    -0.356 N 
ATOM     13  H   UNL     1       1.359  -2.810  -2.469  0.00  0.00    +0.142 HD
ATOM     14  H   UNL     1       2.694  -1.804  -2.637  0.00  0.00    +0.142 HD
ENDBRANCH   5  12
ENDBRANCH   1   4
BRANCH   1  15
ATOM     15  N   UNL     1       0.009  -5.324  -1.281  0.00  0.00    -0.216 N 
ATOM     16  H   UNL     1      -0.473  -6.124  -1.021  0.00  0.00    +0.174 HD
BRANCH  15  21
ATOM     17  C   UNL     1      -1.290  -0.335   1.082  0.00  0.00    +0.044 C 
ATOM     18  C   UNL     1      -0.945  -1.661   0.454  0.00  0.00    -0.050 A 
ATOM     19  C   UNL     1       0.097  -2.415   0.963  0.00  0.00    +0.005 A 
ATOM     20  C   UNL     1       0.416  -3.631   0.390  0.00  0.00    +0.025 A 
ATOM     21  C   UNL     1      -0.311  -4.095  -0.699  0.00  0.00    +0.051 A 
ATOM     22  C   UNL     1      -1.356  -3.336  -1.208  0.00  0.00    -0.028 A 
ATOM     23  C   UNL     1      -1.673  -2.123  -0.626  0.00  0.00    +0.008 A 
ATOM     24  C   UNL     1      -2.147  -3.836  -2.389  0.00  0.00    +0.046 C 
ENDBRANCH  15  21
ENDBRANCH   1  15
TORSDOF 4
