REMARK  Name = ZINC02447638
REMARK  5 active torsions:
REMARK  status: ('A' for Active; 'I' for Inactive)
REMARK    1  A    between atoms: C_1  and  C_2
REMARK    2  A    between atoms: C_4  and  N_11
REMARK    3  A    between atoms: C_5  and  O_9
REMARK    4  A    between atoms: O_9  and  C_10
REMARK    5  A    between atoms: C_31  and  C_36
REMARK                            x       y       z     vdW  Elec       q    Type
REMARK                         _______ _______ _______ _____ _____    ______ ____
ROOT
ATOM      1  N   UNL     1       0.028  -2.768  -2.429  0.00  0.00    -0.206 N 
ATOM      2  C   UNL     1      -1.096  -3.137  -3.055  0.00  0.00    +0.229 C 
ATOM      3  O   UNL     1      -2.221  -2.923  -2.658  0.00  0.00    -0.275 OA
ATOM      4  C   UNL     1      -0.744  -3.861  -4.335  0.00  0.00    +0.074 C 
ATOM      5  C   UNL     1      -1.175  -3.006  -5.540  0.00  0.00    -0.054 C 
ATOM      6  C   UNL     1      -2.317  -2.066  -5.112  0.00  0.00    -0.016 C 
ATOM      7  C   UNL     1      -1.628  -0.771  -4.638  0.00  0.00    -0.020 C 
ATOM      8  C   UNL     1      -0.117  -1.038  -4.793  0.00  0.00    -0.076 C 
ATOM      9  N   UNL     1      -0.005  -2.123  -5.833  0.00  0.00    +0.395 N 
ATOM     10  C   UNL     1       1.171  -2.966  -5.559  0.00  0.00    +0.053 C 
ATOM     11  C   UNL     1       0.809  -3.846  -4.339  0.00  0.00    +0.089 C 
ATOM     12  C   UNL     1       1.155  -3.112  -3.063  0.00  0.00    +0.230 C 
ATOM     13  O   UNL     1       2.278  -2.873  -2.674  0.00  0.00    -0.275 OA
ATOM     14  C   UNL     1       1.536  -3.809  -6.748  0.00  0.00    -0.027 A 
ATOM     15  C   UNL     1       0.863  -4.767  -7.473  0.00  0.00    +0.006 A 
ATOM     16  C   UNL     1       1.480  -5.386  -8.545  0.00  0.00    +0.020 A 
ATOM     17  C   UNL     1       2.776  -5.041  -8.887  0.00  0.00    +0.046 A 
ATOM     18  C   UNL     1       3.455  -4.081  -8.163  0.00  0.00    -0.011 A 
ATOM     19  C   UNL     1       2.840  -3.454  -7.082  0.00  0.00    +0.040 A 
ATOM     20  N   UNL     1       3.311  -2.470  -6.210  0.00  0.00    -0.286 N 
ATOM     21  C   UNL     1       2.392  -2.128  -5.287  0.00  0.00    +0.212 C 
ATOM     22  O   UNL     1       2.523  -1.305  -4.406  0.00  0.00    -0.277 OA
ATOM     23  C   UNL     1       4.866  -3.712  -8.543  0.00  0.00    +0.047 C 
ATOM     24 CL   UNL     1       3.552  -5.818 -10.232  0.00  0.00    -0.083 Cl
ATOM     25  H   UNL     1       4.196  -2.078  -6.264  0.00  0.00    +0.155 HD
ATOM     26  H   UNL     1      -0.019  -1.762  -6.776  0.00  0.00    -0.079 HD
ENDROOT
BRANCH   1  30
ATOM     27  C   UNL     1      -0.018   1.503   0.010  0.00  0.00    +0.045 C 
ATOM     28  C   UNL     1       0.002  -0.004   0.002  0.00  0.00    -0.030 A 
ATOM     29  C   UNL     1       0.006  -0.687  -1.200  0.00  0.00    +0.032 A 
ATOM     30  C   UNL     1       0.025  -2.073  -1.209  0.00  0.00    +0.086 A 
ATOM     31  C   UNL     1       0.040  -2.775  -0.006  0.00  0.00    +0.143 A 
ATOM     32  C   UNL     1       0.036  -2.084   1.195  0.00  0.00    +0.067 A 
ATOM     33  C   UNL     1       0.023  -0.701   1.197  0.00  0.00    +0.047 A 
ATOM     34 CL   UNL     1       0.026   0.163   2.703  0.00  0.00    -0.083 Cl
BRANCH  31  35
ATOM     35  O   UNL     1       0.058  -4.134  -0.010  0.00  0.00    -0.493 OA
ATOM     36  C   UNL     1       0.073  -4.787   1.261  0.00  0.00    +0.277 C 
ENDBRANCH  31  35
ENDBRANCH   1  30
TORSDOF 2
