REMARK  Name = ZINC09357914
REMARK  7 active torsions:
REMARK  status: ('A' for Active; 'I' for Inactive)
REMARK    1  A    between atoms: C_1  and  C_2
REMARK    2  A    between atoms: C_5  and  S_8
REMARK    3  A    between atoms: S_8  and  N_11
REMARK    4  A    between atoms: N_11  and  C_12
REMARK    5  A    between atoms: C_12  and  C_30
REMARK    6  A    between atoms: N_18  and  C_23
REMARK    7  A    between atoms: C_23  and  C_24
REMARK                            x       y       z     vdW  Elec       q    Type
REMARK                         _______ _______ _______ _____ _____    ______ ____
ROOT
ATOM      1  C   UNL     1       2.407  -4.555   1.004  0.00  0.00    +0.243 C 
ATOM      2  C   UNL     1       3.844  -4.954   0.769  0.00  0.00    +0.096 A 
ATOM      3  C   UNL     1       4.792  -4.613  -0.209  0.00  0.00    +0.284 A 
ATOM      4  N   UNL     1       6.025  -5.148  -0.147  0.00  0.00    -0.153 NA
ATOM      5  C   UNL     1       6.343  -5.981   0.817  0.00  0.00    +0.353 A 
ATOM      6  O   UNL     1       7.587  -6.501   0.853  0.00  0.00    -0.244 OA
ATOM      7  N   UNL     1       5.452  -6.333   1.778  0.00  0.00    -0.272 N 
ATOM      8  C   UNL     1       4.178  -5.819   1.767  0.00  0.00    +0.121 A 
ATOM      9  N   UNL     1       3.115  -6.021   2.619  0.00  0.00    -0.269 N 
ATOM     10  C   UNL     1       2.025  -5.322   2.255  0.00  0.00    +0.254 C 
ATOM     11  O   UNL     1       0.951  -5.307   2.816  0.00  0.00    -0.273 OA
ATOM     12  O   UNL     1       4.500  -3.838  -1.108  0.00  0.00    -0.265 OA
ATOM     13  H   UNL     1       3.148  -6.603   3.394  0.00  0.00    +0.156 HD
ENDROOT
BRANCH   1  14
ATOM     14  C   UNL     1       2.295  -3.048   1.240  0.00  0.00    +0.422 C 
ATOM     15  F   UNL     1       0.953  -2.706   1.440  0.00  0.00    -0.168 F 
ATOM     16  F   UNL     1       3.038  -2.697   2.372  0.00  0.00    -0.168 F 
ATOM     17  F   UNL     1       2.790  -2.363   0.126  0.00  0.00    -0.168 F 
ENDBRANCH   1  14
BRANCH   1  18
ATOM     18  N   UNL     1       1.568  -4.962  -0.126  0.00  0.00    -0.162 NA
ATOM     19  H   UNL     1       1.036  -4.302  -0.598  0.00  0.00    +0.150 HD
BRANCH  18  20
ATOM     20  S   UNL     1       1.526  -6.549  -0.597  0.00  0.00    +0.060 S 
ATOM     21  O   UNL     1       2.876  -6.991  -0.655  0.00  0.00    -0.153 OA
ATOM     22  O   UNL     1       0.654  -6.618  -1.717  0.00  0.00    -0.153 OA
BRANCH  20  27
ATOM     23  C   UNL     1      -1.120  -9.664   3.841  0.00  0.00    +0.044 C 
ATOM     24  C   UNL     1      -0.459  -8.886   2.733  0.00  0.00    -0.050 A 
ATOM     25  C   UNL     1      -1.232  -8.213   1.804  0.00  0.00    +0.005 A 
ATOM     26  C   UNL     1      -0.625  -7.500   0.787  0.00  0.00    +0.029 A 
ATOM     27  C   UNL     1       0.753  -7.458   0.699  0.00  0.00    +0.105 A 
ATOM     28  C   UNL     1       1.526  -8.130   1.628  0.00  0.00    +0.029 A 
ATOM     29  C   UNL     1       0.920  -8.840   2.648  0.00  0.00    +0.005 A 
ENDBRANCH  20  27
ENDBRANCH  18  20
ENDBRANCH   1  18
BRANCH   7  30
ATOM     30  C   UNL     1       5.851  -7.267   2.835  0.00  0.00    +0.202 C 
BRANCH  30  31
ATOM     31  C   UNL     1       6.421  -6.496   3.997  0.00  0.00    +0.125 A 
ATOM     32  C   UNL     1       5.724  -6.026   5.047  0.00  0.00    +0.046 A 
ATOM     33  C   UNL     1       6.648  -5.370   5.892  0.00  0.00    +0.041 A 
ATOM     34  C   UNL     1       7.855  -5.479   5.309  0.00  0.00    +0.195 A 
ATOM     35  O   UNL     1       7.713  -6.167   4.164  0.00  0.00    -0.466 OA
ENDBRANCH  30  31
ENDBRANCH   7  30
TORSDOF 6
