REMARK  Name = ZINC62006771
REMARK  7 active torsions:
REMARK  status: ('A' for Active; 'I' for Inactive)
REMARK    1  A    between atoms: C_1  and  C_2
REMARK    2  A    between atoms: C_2  and  N_3
REMARK    3  A    between atoms: C_4  and  C_6
REMARK    4  A    between atoms: C_7  and  N_29
REMARK    5  A    between atoms: C_8  and  C_11
REMARK    6  A    between atoms: N_16  and  C_19
REMARK    7  A    between atoms: C_23  and  C_25
REMARK                            x       y       z     vdW  Elec       q    Type
REMARK                         _______ _______ _______ _____ _____    ______ ____
ROOT
ATOM      1  C   UNL     1       2.757  -5.412  -4.677  0.00  0.00    +0.257 C 
ATOM      2  O   UNL     1       2.481  -6.433  -4.075  0.00  0.00    -0.269 OA
ATOM      3  N   UNL     1       3.455  -5.475  -5.828  0.00  0.00    -0.294 N 
ATOM      4  C   UNL     1       3.682  -4.266  -6.633  0.00  0.00    +0.127 C 
ATOM      5  C   UNL     1       5.190  -4.100  -6.854  0.00  0.00    +0.124 C 
ATOM      6  N   UNL     1       5.739  -5.379  -7.327  0.00  0.00    -0.327 N 
ATOM      7  C   UNL     1       5.512  -6.588  -6.522  0.00  0.00    +0.124 C 
ATOM      8  C   UNL     1       4.008  -6.753  -6.298  0.00  0.00    +0.127 C 
ENDROOT
BRANCH   6   9
ATOM      9  C   UNL     1       6.462  -5.444  -8.520  0.00  0.00    +0.030 A 
ATOM     10  C   UNL     1       6.875  -4.276  -9.149  0.00  0.00    +0.023 A 
ATOM     11  C   UNL     1       7.590  -4.345 -10.328  0.00  0.00    +0.002 A 
ATOM     12  C   UNL     1       7.896  -5.574 -10.883  0.00  0.00    +0.012 A 
ATOM     13  C   UNL     1       7.487  -6.738 -10.260  0.00  0.00    +0.057 A 
ATOM     14  C   UNL     1       6.776  -6.677  -9.077  0.00  0.00    +0.035 A 
BRANCH  13  15
ATOM     15  C   UNL     1       7.821  -8.075 -10.869  0.00  0.00    +0.417 C 
ATOM     16  F   UNL     1       8.544  -7.882 -12.051  0.00  0.00    -0.166 F 
ATOM     17  F   UNL     1       8.591  -8.819  -9.968  0.00  0.00    -0.166 F 
ATOM     18  F   UNL     1       6.639  -8.767 -11.153  0.00  0.00    -0.166 F 
ENDBRANCH  13  15
ENDBRANCH   6   9
BRANCH   1  21
ATOM     19  C   UNL     1       1.919  -2.321  -2.717  0.00  0.00    +0.156 A 
ATOM     20  C   UNL     1       2.439  -3.606  -2.855  0.00  0.00    +0.076 A 
ATOM     21  C   UNL     1       2.329  -4.114  -4.150  0.00  0.00    +0.115 A 
ATOM     22  S   UNL     1       1.531  -2.762  -4.991  0.00  0.00    +0.019 S 
ATOM     23  N   UNL     1       1.388  -1.721  -3.762  0.00  0.00    -0.203 NA
BRANCH  19  25
ATOM     24  N   UNL     1       1.597  -0.345  -1.313  0.00  0.00    -0.310 N 
ATOM     25  C   UNL     1       1.958  -1.640  -1.410  0.00  0.00    +0.265 C 
ATOM     26  O   UNL     1       2.315  -2.248  -0.418  0.00  0.00    -0.268 OA
ATOM     27  H   UNL     1       1.312   0.139  -2.104  0.00  0.00    +0.149 HD
BRANCH  24  29
ATOM     28  C   UNL     1       1.181   1.782  -0.181  0.00  0.00    +0.024 C 
ATOM     29  C   UNL     1       1.635   0.331  -0.014  0.00  0.00    +0.101 C 
ENDBRANCH  24  29
ENDBRANCH  19  25
BRANCH  20  30
ATOM     30  N   UNL     1       3.012  -4.312  -1.806  0.00  0.00    -0.355 N 
ATOM     31  H   UNL     1       2.967  -3.961  -0.903  0.00  0.00    +0.142 HD
ATOM     32  H   UNL     1       3.458  -5.157  -1.976  0.00  0.00    +0.142 HD
ENDBRANCH  20  30
ENDBRANCH   1  21
TORSDOF 6
