REMARK  Name = ZINC40729746
REMARK  7 active torsions:
REMARK  status: ('A' for Active; 'I' for Inactive)
REMARK    1  A    between atoms: C_1  and  N_2
REMARK    2  A    between atoms: N_2  and  C_3
REMARK    3  A    between atoms: C_10  and  N_34
REMARK    4  A    between atoms: C_11  and  N_15
REMARK    5  A    between atoms: N_18  and  C_21
REMARK    6  A    between atoms: C_21  and  C_22
REMARK    7  A    between atoms: C_21  and  C_28
REMARK                            x       y       z     vdW  Elec       q    Type
REMARK                         _______ _______ _______ _____ _____    ______ ____
ROOT
ATOM      1  N   UNL     1      -0.341   0.119  -4.894  0.00  0.00    -0.311 N 
ATOM      2  C   UNL     1      -0.264   1.587  -4.920  0.00  0.00    +0.122 C 
ATOM      3  C   UNL     1       0.771   2.001  -5.973  0.00  0.00    +0.104 C 
ATOM      4  N   UNL     1       0.436   1.373  -7.258  0.00  0.00    -0.289 NA
ATOM      5  C   UNL     1       0.507  -0.092  -7.169  0.00  0.00    +0.104 C 
ATOM      6  C   UNL     1      -0.533  -0.591  -6.167  0.00  0.00    +0.122 C 
ENDROOT
BRANCH   1  11
ATOM      7  C   UNL     1      -2.940  -1.147  -0.110  0.00  0.00    +0.137 C 
ATOM      8  N   UNL     1      -2.312  -2.071  -1.057  0.00  0.00    -0.288 N 
ATOM      9  C   UNL     1      -1.207  -1.664  -1.797  0.00  0.00    +0.128 A 
ATOM     10  C   UNL     1      -1.374  -0.964  -2.993  0.00  0.00    +0.104 A 
ATOM     11  C   UNL     1      -0.232  -0.579  -3.697  0.00  0.00    +0.147 A 
ATOM     12  N   UNL     1       0.965  -0.891  -3.204  0.00  0.00    -0.221 NA
ATOM     13  C   UNL     1       1.078  -1.554  -2.070  0.00  0.00    +0.200 A 
ATOM     14  N   UNL     1       0.026  -1.931  -1.373  0.00  0.00    -0.333 N 
ATOM     15  H   UNL     1       0.152  -2.413  -0.541  0.00  0.00    +0.168 HD
BRANCH   8  16
ATOM     16  C   UNL     1      -2.822  -3.362  -1.217  0.00  0.00    +0.035 A 
ATOM     17  C   UNL     1      -2.165  -4.275  -2.032  0.00  0.00    +0.023 A 
ATOM     18  C   UNL     1      -2.672  -5.550  -2.187  0.00  0.00    +0.002 A 
ATOM     19  C   UNL     1      -3.833  -5.919  -1.532  0.00  0.00    +0.000 A 
ATOM     20  C   UNL     1      -4.489  -5.013  -0.720  0.00  0.00    +0.002 A 
ATOM     21  C   UNL     1      -3.985  -3.738  -0.555  0.00  0.00    +0.023 A 
ENDBRANCH   8  16
BRANCH  10  22
ATOM     22  N   UNL     1      -2.656  -0.657  -3.476  0.00  0.00    -0.353 N 
ATOM     23  H   UNL     1      -3.442  -0.993  -3.016  0.00  0.00    +0.143 HD
ATOM     24  H   UNL     1      -2.757  -0.108  -4.269  0.00  0.00    +0.143 HD
ENDBRANCH  10  22
ENDBRANCH   1  11
BRANCH   4  25
ATOM     25  C   UNL     1       1.302   1.878  -8.332  0.00  0.00    +0.117 C 
BRANCH  25  26
ATOM     26  C   UNL     1       0.929   1.212  -9.632  0.00  0.00    -0.026 A 
ATOM     27  C   UNL     1      -0.401   0.997  -9.941  0.00  0.00    +0.005 A 
ATOM     28  C   UNL     1      -0.742   0.386 -11.134  0.00  0.00    +0.000 A 
ATOM     29  C   UNL     1       0.246  -0.008 -12.016  0.00  0.00    +0.000 A 
ATOM     30  C   UNL     1       1.576   0.208 -11.707  0.00  0.00    +0.000 A 
ATOM     31  C   UNL     1       1.917   0.822 -10.516  0.00  0.00    +0.005 A 
ENDBRANCH  25  26
BRANCH  25  32
ATOM     32  C   UNL     1       1.123   3.369  -8.461  0.00  0.00    -0.026 A 
ATOM     33  C   UNL     1      -0.135   3.927  -8.341  0.00  0.00    +0.005 A 
ATOM     34  C   UNL     1      -0.299   5.295  -8.460  0.00  0.00    +0.000 A 
ATOM     35  C   UNL     1       0.796   6.104  -8.699  0.00  0.00    +0.000 A 
ATOM     36  C   UNL     1       2.055   5.545  -8.819  0.00  0.00    +0.000 A 
ATOM     37  C   UNL     1       2.219   4.178  -8.695  0.00  0.00    +0.005 A 
ENDBRANCH  25  32
ENDBRANCH   4  25
TORSDOF 6
