REMARK  Name = ZINC20170824
REMARK  10 active torsions:
REMARK  status: ('A' for Active; 'I' for Inactive)
REMARK    1  A    between atoms: C_1  and  O_2
REMARK    2  A    between atoms: O_2  and  C_3
REMARK    3  A    between atoms: C_5  and  C_10
REMARK    4  A    between atoms: C_8  and  O_9
REMARK    5  A    between atoms: C_12  and  C_36
REMARK    6  A    between atoms: C_13  and  S_22
REMARK    7  A    between atoms: S_22  and  C_23
REMARK    8  A    between atoms: C_23  and  C_24
REMARK    9  A    between atoms: N_26  and  C_27
REMARK   10  A    between atoms: C_30  and  N_33
REMARK                            x       y       z     vdW  Elec       q    Type
REMARK                         _______ _______ _______ _____ _____    ______ ____
ROOT
ATOM      1  C   UNL     1      -4.864   0.237   0.038  0.00  0.00    +0.097 C 
ATOM      2  C   UNL     1      -5.626  -0.053  -1.242  0.00  0.00    +0.073 C 
ATOM      3  C   UNL     1      -6.907  -0.564  -1.116  0.00  0.00    +0.112 C 
ATOM      4  N   UNL     1      -7.466  -0.801   0.072  0.00  0.00    -0.244 NA
ATOM      5  C   UNL     1      -6.903  -0.590   1.236  0.00  0.00    +0.050 C 
ATOM      6  C   UNL     1      -5.601  -0.074   1.327  0.00  0.00    +0.029 C 
ATOM      7  C   UNL     1      -5.006   0.149   2.510  0.00  0.00    +0.162 C 
ATOM      8  C   UNL     1      -5.708  -0.150   3.808  0.00  0.00    +0.080 C 
ATOM      9  C   UNL     1      -7.219   0.013   3.614  0.00  0.00    +0.014 C 
ATOM     10  C   UNL     1      -7.672  -0.912   2.495  0.00  0.00    +0.056 C 
ATOM     11  O   UNL     1      -3.755   0.649   2.536  0.00  0.00    -0.292 OA
ENDROOT
BRANCH   1  14
ATOM     12  C   UNL     1      -1.194  -0.657  -0.005  0.00  0.00    +0.162 A 
ATOM     13  C   UNL     1      -2.367   0.080   0.012  0.00  0.00    +0.054 A 
ATOM     14  C   UNL     1      -3.589  -0.566   0.019  0.00  0.00    -0.031 A 
ATOM     15  C   UNL     1      -3.644  -1.948   0.008  0.00  0.00    +0.008 A 
ATOM     16  C   UNL     1      -2.478  -2.689  -0.009  0.00  0.00    +0.049 A 
ATOM     17  C   UNL     1      -1.249  -2.048  -0.022  0.00  0.00    +0.158 A 
BRANCH  12  19
ATOM     18  C   UNL     1      -0.010   1.405   0.006  0.00  0.00    +0.277 C 
ATOM     19  O   UNL     1       0.010  -0.023  -0.012  0.00  0.00    -0.491 OA
ENDBRANCH  12  19
BRANCH  17  20
ATOM     20  O   UNL     1      -0.101  -2.775  -0.045  0.00  0.00    -0.503 OA
ATOM     21  H   UNL     1       0.242  -2.997   0.832  0.00  0.00    +0.292 HD
ENDBRANCH  17  20
ENDBRANCH   1  14
BRANCH   2  22
ATOM     22  C   UNL     1      -5.046   0.194  -2.528  0.00  0.00    +0.098 C 
ATOM     23  N   UNL     1      -4.585   0.389  -3.548  0.00  0.00    -0.191 NA
ENDBRANCH   2  22
BRANCH   3  24
ATOM     24  S   UNL     1      -7.830  -0.915  -2.575  0.00  0.00    -0.096 S 
BRANCH  24  25
ATOM     25  C   UNL     1      -9.410  -1.552  -1.952  0.00  0.00    +0.172 C 
BRANCH  25  26
ATOM     26  C   UNL     1     -10.306  -1.896  -3.114  0.00  0.00    +0.227 C 
ATOM     27  O   UNL     1      -9.917  -1.728  -4.250  0.00  0.00    -0.275 OA
ATOM     28  N   UNL     1     -11.540  -2.390  -2.890  0.00  0.00    -0.285 N 
ATOM     29  H   UNL     1     -11.826  -2.588  -1.984  0.00  0.00    +0.155 HD
BRANCH  28  30
ATOM     30  C   UNL     1     -12.408  -2.619  -3.964  0.00  0.00    +0.034 A 
ATOM     31  C   UNL     1     -13.772  -2.408  -3.812  0.00  0.00    +0.025 A 
ATOM     32  C   UNL     1     -14.626  -2.634  -4.874  0.00  0.00    +0.034 A 
ATOM     33  C   UNL     1     -14.123  -3.070  -6.087  0.00  0.00    +0.126 A 
ATOM     34  C   UNL     1     -12.765  -3.280  -6.240  0.00  0.00    +0.034 A 
ATOM     35  C   UNL     1     -11.905  -3.050  -5.184  0.00  0.00    +0.025 A 
BRANCH  33  36
ATOM     36  N   UNL     1     -15.041  -3.311  -7.223  0.00  0.00    +0.056 N 
ATOM     37  O   UNL     1     -16.229  -3.127  -7.090  0.00  0.00    -0.126 OA
ATOM     38  O   UNL     1     -14.604  -3.692  -8.283  0.00  0.00    -0.126 OA
ENDBRANCH  33  36
ENDBRANCH  28  30
ENDBRANCH  25  26
ENDBRANCH  24  25
ENDBRANCH   3  24
TORSDOF 9
