REMARK  Name = ZINC42806791
REMARK  9 active torsions:
REMARK  status: ('A' for Active; 'I' for Inactive)
REMARK    1  A    between atoms: C_1  and  C_2
REMARK    2  A    between atoms: C_2  and  C_4
REMARK    3  A    between atoms: C_2  and  N_12
REMARK    4  A    between atoms: N_15  and  C_16
REMARK    5  A    between atoms: C_20  and  C_22
REMARK    6  A    between atoms: C_22  and  N_23
REMARK    7  A    between atoms: C_27  and  C_28
REMARK    8  A    between atoms: C_28  and  C_29
REMARK    9  A    between atoms: C_28  and  C_30
REMARK                            x       y       z     vdW  Elec       q    Type
REMARK                         _______ _______ _______ _____ _____    ______ ____
ROOT
ATOM      1  N   UNL     1      -1.296  -1.104  -0.018  0.00  0.00    -0.292 N 
ATOM      2  C   UNL     1      -1.952  -1.255   1.149  0.00  0.00    +0.304 C 
ATOM      3  O   UNL     1      -1.336  -1.512   2.165  0.00  0.00    -0.252 OA
ATOM      4  N   UNL     1      -3.293  -1.122   1.190  0.00  0.00    -0.269 N 
ATOM      5  H   UNL     1      -1.788  -0.899  -0.828  0.00  0.00    +0.151 HD
ATOM      6  H   UNL     1      -3.778  -0.851   0.395  0.00  0.00    +0.156 HD
ENDROOT
BRANCH   4   7
ATOM      7  C   UNL     1      -3.985  -1.374   2.380  0.00  0.00    +0.035 A 
ATOM      8  C   UNL     1      -3.412  -1.046   3.602  0.00  0.00    +0.023 A 
ATOM      9  C   UNL     1      -4.098  -1.296   4.774  0.00  0.00    +0.002 A 
ATOM     10  C   UNL     1      -5.354  -1.872   4.732  0.00  0.00    +0.005 A 
ATOM     11  C   UNL     1      -5.928  -2.200   3.518  0.00  0.00    -0.026 A 
ATOM     12  C   UNL     1      -5.250  -1.947   2.341  0.00  0.00    +0.028 A 
BRANCH  11  13
ATOM     13  C   UNL     1      -7.297  -2.828   3.477  0.00  0.00    +0.158 C 
BRANCH  13  14
ATOM     14  N   UNL     1      -8.315  -1.777   3.397  0.00  0.00    -0.330 N 
ATOM     15  C   UNL     1      -8.992  -1.220   4.447  0.00  0.00    +0.107 A 
ATOM     16  C   UNL     1      -9.826  -0.299   3.929  0.00  0.00    +0.130 A 
ATOM     17  N   UNL     1      -9.662  -0.293   2.598  0.00  0.00    -0.240 NA
ATOM     18  C   UNL     1      -8.754  -1.172   2.272  0.00  0.00    +0.112 A 
BRANCH  18  19
ATOM     19  C   UNL     1      -8.278  -1.466   0.873  0.00  0.00    +0.049 C 
ATOM     20  C   UNL     1      -9.459  -1.936   0.021  0.00  0.00    +0.015 C 
ATOM     21  C   UNL     1      -7.681  -0.198   0.260  0.00  0.00    +0.015 C 
ENDBRANCH  18  19
ENDBRANCH  13  14
ENDBRANCH  11  13
ENDBRANCH   4   7
BRANCH   1  23
ATOM     22  C   UNL     1       0.818   0.082   0.311  0.00  0.00    +0.033 C 
ATOM     23  C   UNL     1       0.162  -1.249  -0.062  0.00  0.00    +0.104 C 
BRANCH  23  24
ATOM     24  C   UNL     1       0.585  -1.645  -1.453  0.00  0.00    +0.008 A 
ATOM     25  C   UNL     1      -0.211  -1.320  -2.536  0.00  0.00    +0.011 A 
ATOM     26  C   UNL     1       0.176  -1.682  -3.812  0.00  0.00    +0.039 A 
ATOM     27  C   UNL     1       1.362  -2.371  -4.008  0.00  0.00    +0.126 A 
ATOM     28  C   UNL     1       2.159  -2.697  -2.924  0.00  0.00    +0.077 A 
ATOM     29  C   UNL     1       1.773  -2.329  -1.647  0.00  0.00    +0.131 A 
ATOM     30  F   UNL     1       2.553  -2.641  -0.589  0.00  0.00    -0.205 F 
ATOM     31  F   UNL     1       1.740  -2.726  -5.255  0.00  0.00    -0.205 F 
ENDBRANCH  23  24
ENDBRANCH   1  23
TORSDOF 6
