REMARK  Name = ZINC20385546
REMARK  4 active torsions:
REMARK  status: ('A' for Active; 'I' for Inactive)
REMARK    1  A    between atoms: C_1  and  C_2
REMARK    2  A    between atoms: C_12  and  C_16
REMARK    3  A    between atoms: C_18  and  N_19
REMARK    4  A    between atoms: N_22  and  C_23
REMARK                            x       y       z     vdW  Elec       q    Type
REMARK                         _______ _______ _______ _____ _____    ______ ____
ROOT
ATOM      1  C   UNL     1       4.946  -0.320  -0.059  0.00  0.00    +0.047 C 
ATOM      2  C   UNL     1       3.552  -0.894  -0.046  0.00  0.00    -0.007 A 
ATOM      3  C   UNL     1       2.395  -0.018  -0.024  0.00  0.00    +0.077 A 
ATOM      4  C   UNL     1       1.151  -0.674  -0.016  0.00  0.00    +0.117 A 
ATOM      5  N   UNL     1       0.002  -0.004   0.002  0.00  0.00    -0.226 NA
ATOM      6  C   UNL     1      -0.016   1.298   0.009  0.00  0.00    +0.114 A 
ATOM      7  N   UNL     1       1.144   2.021   0.002  0.00  0.00    -0.296 N 
ATOM      8  C   UNL     1       2.342   1.414  -0.011  0.00  0.00    +0.263 A 
ATOM      9  O   UNL     1       3.369   2.071  -0.012  0.00  0.00    -0.267 OA
ATOM     10  C   UNL     1       1.049   3.487   0.009  0.00  0.00    +0.127 C 
ATOM     11  C   UNL     1       0.626   3.955   1.400  0.00  0.00    +0.025 C 
ATOM     12  C   UNL     1      -0.887   4.024   1.519  0.00  0.00    -0.012 C 
ATOM     13  C   UNL     1      -1.535   2.655   1.414  0.00  0.00    +0.011 C 
ATOM     14  C   UNL     1      -1.325   2.052   0.019  0.00  0.00    +0.075 C 
ATOM     15  C   UNL     1      -1.250   4.641   2.871  0.00  0.00    +0.007 C 
ATOM     16  S   UNL     1       1.587  -2.394  -0.034  0.00  0.00    -0.053 S 
ATOM     17  C   UNL     1       3.362  -2.231  -0.055  0.00  0.00    +0.079 A 
ENDROOT
BRANCH  17  18
ATOM     18  N   UNL     1       4.324  -3.242  -0.076  0.00  0.00    -0.263 N 
ATOM     19  C   UNL     1       3.943  -4.535  -0.083  0.00  0.00    +0.305 C 
ATOM     20  O   UNL     1       2.761  -4.820  -0.070  0.00  0.00    -0.252 OA
ATOM     21  N   UNL     1       4.872  -5.511  -0.103  0.00  0.00    -0.292 N 
ATOM     22  H   UNL     1       5.393  -2.983  -0.087  0.00  0.00    +0.157 HD
ATOM     23  H   UNL     1       5.941  -5.253  -0.115  0.00  0.00    +0.151 HD
BRANCH  21  24
ATOM     24  C   UNL     1       4.458  -6.916  -0.110  0.00  0.00    +0.105 C 
ATOM     25  C   UNL     1       5.576  -7.774   0.477  0.00  0.00    +0.027 C 
ATOM     26  C   UNL     1       5.217  -9.249   0.264  0.00  0.00    +0.007 C 
ATOM     27  C   UNL     1       5.325  -9.560  -1.228  0.00  0.00    +0.035 C 
ATOM     28  C   UNL     1       4.549  -8.553  -2.036  0.00  0.00    -0.042 A 
ATOM     29  C   UNL     1       4.154  -7.337  -1.524  0.00  0.00    -0.024 A 
ATOM     30  C   UNL     1       3.447  -6.451  -2.326  0.00  0.00    +0.006 A 
ATOM     31  C   UNL     1       3.135  -6.779  -3.629  0.00  0.00    +0.000 A 
ATOM     32  C   UNL     1       3.527  -8.002  -4.141  0.00  0.00    +0.000 A 
ATOM     33  C   UNL     1       4.231  -8.883  -3.347  0.00  0.00    +0.004 A 
ENDBRANCH  21  24
ENDBRANCH  17  18
TORSDOF 2
