REMARK  Name = ZINC21977894
REMARK  4 active torsions:
REMARK  status: ('A' for Active; 'I' for Inactive)
REMARK    1  A    between atoms: C_1  and  C_2
REMARK    2  A    between atoms: C_2  and  C_24
REMARK    3  A    between atoms: N_5  and  C_9
REMARK    4  A    between atoms: C_9  and  C_10
REMARK                            x       y       z     vdW  Elec       q    Type
REMARK                         _______ _______ _______ _____ _____    ______ ____
ROOT
ATOM      1  C   UNL     1       1.772   2.575   1.257  0.00  0.00    +0.047 C 
ATOM      2  C   UNL     1       1.437   1.773  -0.002  0.00  0.00    +0.135 C 
ATOM      3  C   UNL     1      -0.016   1.343   0.009  0.00  0.00    +0.251 C 
ATOM      4  O   UNL     1      -0.992   2.062   0.018  0.00  0.00    -0.272 OA
ATOM      5  N   UNL     1       0.002  -0.004   0.002  0.00  0.00    -0.218 N 
ATOM      6  C   UNL     1       1.252  -0.481  -0.013  0.00  0.00    +0.310 C 
ATOM      7  O   UNL     1       1.524  -1.665  -0.021  0.00  0.00    -0.252 OA
ATOM      8  N   UNL     1       2.175   0.498  -0.016  0.00  0.00    -0.281 N 
ATOM      9  H   UNL     1       3.275   0.499  -0.026  0.00  0.00    +0.152 HD
ENDROOT
BRANCH   2  10
ATOM     10  C   UNL     1       1.743   2.576  -1.240  0.00  0.00    -0.012 A 
ATOM     11  C   UNL     1       0.752   3.340  -1.828  0.00  0.00    +0.010 A 
ATOM     12  C   UNL     1       1.026   4.080  -2.964  0.00  0.00    +0.050 A 
ATOM     13  C   UNL     1       2.297   4.054  -3.511  0.00  0.00    +0.162 A 
ATOM     14  C   UNL     1       3.292   3.287  -2.922  0.00  0.00    +0.162 A 
ATOM     15  C   UNL     1       3.016   2.551  -1.782  0.00  0.00    +0.055 A 
ATOM     16  O   UNL     1       4.542   3.267  -3.469  0.00  0.00    -0.488 OA
ATOM     17  C   UNL     1       4.656   2.627  -4.742  0.00  0.00    +0.232 C 
ATOM     18  C   UNL     1       4.302   3.591  -5.864  0.00  0.00    +0.082 C 
ATOM     19  C   UNL     1       2.845   4.025  -5.815  0.00  0.00    +0.232 C 
ATOM     20  O   UNL     1       2.581   4.780  -4.631  0.00  0.00    -0.488 OA
ENDBRANCH   2  10
BRANCH   5  21
ATOM     21  C   UNL     1      -1.199  -0.844   0.008  0.00  0.00    +0.173 C 
BRANCH  21  22
ATOM     22  C   UNL     1      -1.623  -1.124  -1.410  0.00  0.00    +0.067 A 
ATOM     23  C   UNL     1      -1.590  -2.408  -1.912  0.00  0.00    +0.095 A 
ATOM     24  C   UNL     1      -1.988  -2.648  -3.227  0.00  0.00    +0.259 A 
ATOM     25  O   UNL     1      -1.961  -3.783  -3.677  0.00  0.00    -0.267 OA
ATOM     26  N   UNL     1      -2.408  -1.610  -4.012  0.00  0.00    -0.259 N 
ATOM     27  C   UNL     1      -2.828  -1.714  -5.331  0.00  0.00    +0.039 A 
ATOM     28  C   UNL     1      -3.209  -0.599  -5.966  0.00  0.00    +0.013 A 
ATOM     29  S   UNL     1      -3.002   0.674  -4.748  0.00  0.00    -0.054 S 
ATOM     30  C   UNL     1      -2.408  -0.371  -3.435  0.00  0.00    +0.181 A 
ATOM     31  N   UNL     1      -2.041  -0.137  -2.200  0.00  0.00    -0.226 NA
ATOM     32  C   UNL     1      -3.696  -0.463  -7.373  0.00  0.00    +0.044 C 
ATOM     33  C   UNL     1      -3.360  -1.756  -8.130  0.00  0.00    +0.006 C 
ATOM     34  C   UNL     1      -3.781  -2.950  -7.266  0.00  0.00    +0.006 C 
ATOM     35  C   UNL     1      -2.861  -3.061  -6.050  0.00  0.00    +0.055 C 
ENDBRANCH  21  22
ENDBRANCH   5  21
TORSDOF 3
