REMARK  Name = ZINC13079335
REMARK  11 active torsions:
REMARK  status: ('A' for Active; 'I' for Inactive)
REMARK    1  A    between atoms: C_1  and  C_2
REMARK    2  A    between atoms: C_4  and  C_26
REMARK    3  A    between atoms: C_6  and  S_9
REMARK    4  A    between atoms: C_7  and  C_8
REMARK    5  A    between atoms: S_9  and  N_12
REMARK    6  A    between atoms: N_12  and  C_13
REMARK    7  A    between atoms: C_15  and  S_22
REMARK    8  A    between atoms: C_18  and  N_19
REMARK    9  A    between atoms: N_19  and  C_20
REMARK   10  A    between atoms: N_19  and  C_21
REMARK   11  A    between atoms: S_22  and  N_25
REMARK                            x       y       z     vdW  Elec       q    Type
REMARK                         _______ _______ _______ _____ _____    ______ ____
ROOT
ATOM      1  N   UNL     1      -6.024   1.186   1.541  0.00  0.00    -0.214 N 
ATOM      2  H   UNL     1      -6.133   0.415   2.119  0.00  0.00    +0.174 HD
ENDROOT
BRANCH   1   3
ATOM      3  C   UNL     1      -6.644   2.399   1.867  0.00  0.00    +0.071 A 
ATOM      4  C   UNL     1      -7.140   3.218   0.865  0.00  0.00    +0.054 A 
ATOM      5  C   UNL     1      -7.755   4.413   1.190  0.00  0.00    +0.107 A 
ATOM      6  C   UNL     1      -7.869   4.799   2.512  0.00  0.00    +0.030 A 
ATOM      7  C   UNL     1      -7.372   3.991   3.518  0.00  0.00    +0.027 A 
ATOM      8  C   UNL     1      -6.758   2.788   3.202  0.00  0.00    +0.052 A 
BRANCH   8   9
ATOM      9  N   UNL     1      -6.254   1.968   4.218  0.00  0.00    -0.335 N 
ATOM     10  C   UNL     1      -5.225   2.669   4.998  0.00  0.00    +0.129 C 
ATOM     11  C   UNL     1      -7.335   1.484   5.088  0.00  0.00    +0.129 C 
ENDBRANCH   8   9
BRANCH   5  12
ATOM     12  S   UNL     1      -8.391   5.449  -0.086  0.00  0.00    +0.056 S 
ATOM     13  O   UNL     1      -8.647   4.608  -1.202  0.00  0.00    -0.153 OA
ATOM     14  O   UNL     1      -9.399   6.254   0.509  0.00  0.00    -0.153 OA
BRANCH  12  15
ATOM     15  N   UNL     1      -7.171   6.475  -0.536  0.00  0.00    -0.204 NA
ATOM     16  H   UNL     1      -6.306   6.420  -0.102  0.00  0.00    +0.144 HD
ATOM     17  H   UNL     1      -7.323   7.132  -1.234  0.00  0.00    +0.144 HD
ENDBRANCH  12  15
ENDBRANCH   5  12
ENDBRANCH   1   3
BRANCH   1  18
ATOM     18  S   UNL     1      -5.106   1.069   0.167  0.00  0.00    +0.073 S 
ATOM     19  O   UNL     1      -4.582  -0.252   0.141  0.00  0.00    -0.150 OA
ATOM     20  O   UNL     1      -4.274   2.220   0.136  0.00  0.00    -0.150 OA
BRANCH  18  26
ATOM     21  C   UNL     1      -9.095  -0.720  -2.698  0.00  0.00    +0.044 C 
ATOM     22  C   UNL     1      -8.040   0.335  -2.484  0.00  0.00    -0.045 A 
ATOM     23  C   UNL     1      -7.939   1.395  -3.361  0.00  0.00    +0.018 A 
ATOM     24  C   UNL     1      -6.962   2.372  -3.161  0.00  0.00    +0.065 A 
ATOM     25  C   UNL     1      -6.088   2.265  -2.077  0.00  0.00    +0.044 A 
ATOM     26  C   UNL     1      -6.203   1.202  -1.205  0.00  0.00    +0.112 A 
ATOM     27  C   UNL     1      -7.175   0.238  -1.409  0.00  0.00    -0.021 A 
ATOM     28  C   UNL     1      -7.290  -0.923  -0.456  0.00  0.00    +0.046 C 
BRANCH  24  29
ATOM     29  C   UNL     1      -6.848   3.510  -4.096  0.00  0.00    +0.387 C 
ATOM     30  O   UNL     1      -5.996   4.358  -3.920  0.00  0.00    -0.241 OA
ATOM     31  O   UNL     1      -7.685   3.604  -5.148  0.00  0.00    -0.241 OA
ENDBRANCH  24  29
ENDBRANCH  18  26
ENDBRANCH   1  18
TORSDOF 7
