REMARK  Name = ZINC66183408
REMARK  15 active torsions:
REMARK  status: ('A' for Active; 'I' for Inactive)
REMARK    1  A    between atoms: C_1  and  C_2
REMARK    2  A    between atoms: C_2  and  C_3
REMARK    3  A    between atoms: C_3  and  C_4
REMARK    4  A    between atoms: C_4  and  C_5
REMARK    5  A    between atoms: C_5  and  C_6
REMARK    6  A    between atoms: C_6  and  O_7
REMARK    7  A    between atoms: O_7  and  C_8
REMARK    8  A    between atoms: C_12  and  N_14
REMARK    9  A    between atoms: N_14  and  C_15
REMARK   10  A    between atoms: C_15  and  C_16
REMARK   11  A    between atoms: C_16  and  N_17
REMARK   12  A    between atoms: N_17  and  C_18
REMARK   13  A    between atoms: C_21  and  O_24
REMARK   14  A    between atoms: O_24  and  C_25
REMARK   15  A    between atoms: C_25  and  C_26
REMARK                            x       y       z     vdW  Elec       q    Type
REMARK                         _______ _______ _______ _____ _____    ______ ____
ROOT
ATOM      1  N   UNL     1       3.743  -8.337   6.127  0.00  0.00    -0.342 N 
ATOM      2  H   UNL     1       4.123  -7.747   6.796  0.00  0.00    +0.146 HD
ENDROOT
BRANCH   1   7
ATOM      3  C   UNL     1       2.324  -5.897   3.768  0.00  0.00    +0.122 A 
ATOM      4  C   UNL     1       1.780  -6.746   2.812  0.00  0.00    +0.046 A 
ATOM      5  C   UNL     1       1.890  -8.115   2.959  0.00  0.00    +0.005 A 
ATOM      6  C   UNL     1       2.540  -8.645   4.057  0.00  0.00    +0.023 A 
ATOM      7  C   UNL     1       3.086  -7.801   5.017  0.00  0.00    +0.031 A 
ATOM      8  C   UNL     1       2.981  -6.425   4.868  0.00  0.00    +0.068 A 
BRANCH   3   9
ATOM      9  O   UNL     1       2.215  -4.551   3.622  0.00  0.00    -0.492 OA
BRANCH   9  10
ATOM     10  C   UNL     1       1.524  -4.077   2.464  0.00  0.00    +0.229 C 
BRANCH  10  11
ATOM     11  C   UNL     1       1.503  -2.548   2.473  0.00  0.00    +0.041 C 
BRANCH  11  12
ATOM     12  C   UNL     1       0.763  -2.041   1.233  0.00  0.00    +0.003 C 
BRANCH  12  13
ATOM     13  C   UNL     1       0.742  -0.511   1.242  0.00  0.00    -0.000 C 
BRANCH  13  15
ATOM     14  C   UNL     1      -0.019   1.526   0.010  0.00  0.00    +0.004 C 
ATOM     15  C   UNL     1       0.002  -0.004   0.002  0.00  0.00    -0.003 C 
ENDBRANCH  13  15
ENDBRANCH  12  13
ENDBRANCH  11  12
ENDBRANCH  10  11
ENDBRANCH   9  10
ENDBRANCH   3   9
ENDBRANCH   1   7
BRANCH   1  16
ATOM     16  C   UNL     1       3.858  -9.789   6.280  0.00  0.00    +0.120 C 
BRANCH  16  17
ATOM     17  C   UNL     1       4.616 -10.107   7.570  0.00  0.00    +0.120 C 
BRANCH  17  18
ATOM     18  N   UNL     1       4.731 -11.560   7.723  0.00  0.00    -0.342 N 
ATOM     19  H   UNL     1       4.351 -12.150   7.053  0.00  0.00    +0.146 HD
BRANCH  18  20
ATOM     20  C   UNL     1       5.390 -12.096   8.835  0.00  0.00    +0.027 A 
ATOM     21  C   UNL     1       5.929 -11.252   9.796  0.00  0.00    +0.026 A 
ATOM     22  C   UNL     1       6.579 -11.783  10.894  0.00  0.00    +0.047 A 
ATOM     23  C   UNL     1       6.692 -13.158  11.036  0.00  0.00    +0.121 A 
ATOM     24  C   UNL     1       6.153 -14.002  10.076  0.00  0.00    +0.047 A 
ATOM     25  C   UNL     1       5.499 -13.473   8.980  0.00  0.00    +0.026 A 
BRANCH  23  26
ATOM     26  O   UNL     1       7.332 -13.679  12.117  0.00  0.00    -0.492 OA
BRANCH  26  27
ATOM     27  C   UNL     1       7.411 -15.104  12.199  0.00  0.00    +0.225 C 
ATOM     28  C   UNL     1       8.160 -15.500  13.473  0.00  0.00    +0.048 C 
ENDBRANCH  26  27
ENDBRANCH  23  26
ENDBRANCH  18  20
ENDBRANCH  17  18
ENDBRANCH  16  17
ENDBRANCH   1  16
TORSDOF 13
