REMARK  Name = ZINC25782240
REMARK  8 active torsions:
REMARK  status: ('A' for Active; 'I' for Inactive)
REMARK    1  A    between atoms: C_1  and  C_2
REMARK    2  A    between atoms: C_2  and  C_36
REMARK    3  A    between atoms: C_6  and  C_24
REMARK    4  A    between atoms: C_8  and  C_22
REMARK    5  A    between atoms: C_9  and  N_21
REMARK    6  A    between atoms: N_10  and  C_11
REMARK    7  A    between atoms: C_15  and  C_17
REMARK    8  A    between atoms: C_27  and  N_30
REMARK                            x       y       z     vdW  Elec       q    Type
REMARK                         _______ _______ _______ _____ _____    ______ ____
ROOT
ATOM      1  C   UNL     1       3.513   0.823  -2.930  0.00  0.00    +0.011 C 
ATOM      2  C   UNL     1       4.318   1.004  -1.641  0.00  0.00    -0.023 C 
ATOM      3  C   UNL     1       3.545   1.902  -0.673  0.00  0.00    +0.058 C 
ATOM      4  C   UNL     1       2.231   1.252  -0.317  0.00  0.00    +0.025 C 
ATOM      5  C   UNL     1       2.106  -0.092  -0.285  0.00  0.00    +0.025 C 
ATOM      6  C   UNL     1       0.792  -0.740   0.073  0.00  0.00    +0.097 C 
ATOM      7  C   UNL     1      -0.120   0.230   0.764  0.00  0.00    +0.077 C 
ATOM      8  C   UNL     1       0.092   1.569   0.689  0.00  0.00    +0.107 C 
ATOM      9  N   UNL     1       1.164   2.059  -0.023  0.00  0.00    -0.260 N 
ATOM     10  C   UNL     1       3.196  -0.928  -0.585  0.00  0.00    +0.162 C 
ATOM     11  O   UNL     1       3.055  -2.134  -0.531  0.00  0.00    -0.292 OA
ATOM     12  C   UNL     1       4.533  -0.358  -0.973  0.00  0.00    +0.086 C 
ATOM     13  C   UNL     1       5.671   1.641  -1.966  0.00  0.00    +0.011 C 
ENDROOT
BRANCH   9  14
ATOM     14  C   UNL     1       1.163   3.393  -0.449  0.00  0.00    +0.040 A 
ATOM     15  C   UNL     1       1.687   4.385   0.370  0.00  0.00    +0.024 A 
ATOM     16  C   UNL     1       1.688   5.699  -0.055  0.00  0.00    +0.002 A 
ATOM     17  C   UNL     1       1.161   6.029  -1.291  0.00  0.00    +0.012 A 
ATOM     18  C   UNL     1       0.636   5.043  -2.106  0.00  0.00    +0.057 A 
ATOM     19  C   UNL     1       0.635   3.727  -1.689  0.00  0.00    +0.036 A 
BRANCH  18  20
ATOM     20  C   UNL     1       0.062   5.407  -3.452  0.00  0.00    +0.417 C 
ATOM     21  F   UNL     1      -1.300   5.695  -3.316  0.00  0.00    -0.166 F 
ATOM     22  F   UNL     1       0.728   6.530  -3.955  0.00  0.00    -0.166 F 
ATOM     23  F   UNL     1       0.226   4.333  -4.334  0.00  0.00    -0.166 F 
ENDBRANCH  18  20
ENDBRANCH   9  14
BRANCH   6  24
ATOM     24  C   UNL     1       0.127  -1.233  -1.186  0.00  0.00    -0.035 A 
ATOM     25  C   UNL     1      -0.233  -0.336  -2.174  0.00  0.00    +0.007 A 
ATOM     26  C   UNL     1      -0.839  -0.789  -3.331  0.00  0.00    +0.033 A 
ATOM     27  C   UNL     1      -1.094  -2.138  -3.495  0.00  0.00    +0.126 A 
ATOM     28  C   UNL     1      -0.739  -3.034  -2.505  0.00  0.00    +0.033 A 
ATOM     29  C   UNL     1      -0.128  -2.582  -1.350  0.00  0.00    +0.007 A 
BRANCH  27  30
ATOM     30  N   UNL     1      -1.748  -2.622  -4.731  0.00  0.00    +0.056 N 
ATOM     31  O   UNL     1      -1.974  -3.811  -4.876  0.00  0.00    -0.126 OA
ATOM     32  O   UNL     1      -2.061  -1.833  -5.604  0.00  0.00    -0.126 OA
ENDBRANCH  27  30
ENDBRANCH   6  24
BRANCH   8  33
ATOM     33  N   UNL     1      -0.768   2.437   1.319  0.00  0.00    -0.345 N 
ATOM     34  H   UNL     1      -0.597   3.522   1.258  0.00  0.00    +0.144 HD
ATOM     35  H   UNL     1      -1.627   2.046   1.884  0.00  0.00    +0.144 HD
ENDBRANCH   8  33
BRANCH   7  36
ATOM     36  C   UNL     1      -1.234  -0.265   1.516  0.00  0.00    +0.099 C 
ATOM     37  N   UNL     1      -2.117  -0.658   2.113  0.00  0.00    -0.191 NA
ENDBRANCH   7  36
TORSDOF 6
