REMARK  Name = ZINC54028929
REMARK  20 active torsions:
REMARK  status: ('A' for Active; 'I' for Inactive)
REMARK    1  A    between atoms: C_1  and  C_2
REMARK    2  A    between atoms: C_2  and  C_3
REMARK    3  A    between atoms: C_3  and  N_4
REMARK    4  A    between atoms: N_4  and  C_5
REMARK    5  A    between atoms: C_5  and  C_7
REMARK    6  A    between atoms: C_5  and  C_19
REMARK    7  A    between atoms: C_7  and  C_8
REMARK    8  A    between atoms: C_8  and  N_9
REMARK    9  A    between atoms: N_9  and  C_10
REMARK   10  A    between atoms: N_9  and  C_15
REMARK   11  A    between atoms: C_10  and  C_11
REMARK   12  A    between atoms: C_11  and  C_12
REMARK   13  A    between atoms: C_12  and  O_13
REMARK   14  A    between atoms: O_13  and  C_14
REMARK   15  A    between atoms: C_15  and  C_16
REMARK   16  A    between atoms: C_16  and  O_17
REMARK   17  A    between atoms: O_17  and  C_18
REMARK   18  A    between atoms: C_19  and  C_20
REMARK   19  A    between atoms: C_19  and  C_21
REMARK   20  A    between atoms: C_19  and  C_22
REMARK                            x       y       z     vdW  Elec       q    Type
REMARK                         _______ _______ _______ _____ _____    ______ ____
ROOT
ATOM      1  C   UNL     1       1.438  -3.519  -1.974  0.00  0.00    +0.000 C 
ENDROOT
BRANCH   1   2
ATOM      2  C   UNL     1       1.662  -2.006  -1.941  0.00  0.00    -0.065 C 
BRANCH   2   3
ATOM      3  C   UNL     1       3.152  -1.707  -2.117  0.00  0.00    -0.050 C 
ATOM      4  C   UNL     1       3.939  -2.349  -0.973  0.00  0.00    +0.009 C 
ATOM      5  C   UNL     1       3.633  -2.279  -3.452  0.00  0.00    +0.009 C 
ATOM      6  C   UNL     1       3.374  -0.193  -2.101  0.00  0.00    +0.009 C 
ENDBRANCH   2   3
BRANCH   2   7
ATOM      7  N   UNL     1       1.204  -1.471  -0.652  0.00  0.00    +0.381 N 
ATOM      8  H   UNL     1       1.409  -0.484  -0.605  0.00  0.00    -0.086 HD
ATOM      9  H   UNL     1       1.679  -1.949   0.099  0.00  0.00    -0.086 HD
BRANCH   7  10
ATOM     10  C   UNL     1      -0.245  -1.676  -0.524  0.00  0.00    -0.082 C 
BRANCH  10  12
ATOM     11  C   UNL     1      -2.255  -1.206   0.884  0.00  0.00    +0.002 C 
ATOM     12  C   UNL     1      -0.746  -0.992   0.750  0.00  0.00    -0.022 C 
ENDBRANCH  10  12
ENDBRANCH   7  10
ENDBRANCH   2   7
ENDBRANCH   1   2
BRANCH   1  13
ATOM     13  C   UNL     1       0.018  -3.814  -2.461  0.00  0.00    +0.083 C 
BRANCH  13  14
ATOM     14  N   UNL     1      -0.247  -5.255  -2.356  0.00  0.00    -0.300 NA
BRANCH  14  15
ATOM     15  C   UNL     1      -1.633  -5.565  -2.730  0.00  0.00    +0.086 C 
BRANCH  15  16
ATOM     16  C   UNL     1      -1.991  -6.970  -2.242  0.00  0.00    +0.043 C 
BRANCH  16  17
ATOM     17  C   UNL     1      -3.393  -7.338  -2.732  0.00  0.00    +0.160 C 
BRANCH  17  18
ATOM     18  O   UNL     1      -3.728  -8.650  -2.276  0.00  0.00    -0.383 OA
ATOM     19  C   UNL     1      -5.025  -9.093  -2.682  0.00  0.00    +0.193 C 
ENDBRANCH  17  18
ENDBRANCH  16  17
ENDBRANCH  15  16
ENDBRANCH  14  15
BRANCH  14  20
ATOM     20  C   UNL     1       0.703  -6.025  -3.171  0.00  0.00    +0.112 C 
BRANCH  20  21
ATOM     21  C   UNL     1       0.596  -5.585  -4.632  0.00  0.00    +0.174 C 
BRANCH  21  22
ATOM     22  O   UNL     1       1.104  -4.256  -4.768  0.00  0.00    -0.382 OA
ATOM     23  C   UNL     1       0.949  -3.706  -6.077  0.00  0.00    +0.194 C 
ENDBRANCH  21  22
ENDBRANCH  20  21
ENDBRANCH  14  20
ENDBRANCH  13  14
ENDBRANCH   1  13
TORSDOF 14
