REMARK  Name = ZINC09404572
REMARK  4 active torsions:
REMARK  status: ('A' for Active; 'I' for Inactive)
REMARK    1  A    between atoms: C_3  and  S_22
REMARK    2  A    between atoms: C_6  and  C_7
REMARK    3  A    between atoms: C_12  and  C_15
REMARK    4  A    between atoms: S_22  and  N_25
REMARK                            x       y       z     vdW  Elec       q    Type
REMARK                         _______ _______ _______ _____ _____    ______ ____
ROOT
ATOM      1  C   UNL     1       1.218  -0.688  -0.048  0.00  0.00    +0.015 A 
ATOM      2  C   UNL     1       1.230  -2.068  -0.057  0.00  0.00    +0.029 A 
ATOM      3  C   UNL     1       0.039  -2.773  -0.049  0.00  0.00    +0.106 A 
ATOM      4  C   UNL     1      -1.170  -2.101  -0.025  0.00  0.00    +0.029 A 
ATOM      5  C   UNL     1      -1.196  -0.721  -0.010  0.00  0.00    +0.015 A 
ATOM      6  C   UNL     1       0.002  -0.004  -0.018  0.00  0.00    +0.037 A 
ENDROOT
BRANCH   6   7
ATOM      7  C   UNL     1      -0.018   1.474  -0.003  0.00  0.00    +0.250 C 
ATOM      8  O   UNL     1      -1.079   2.067   0.013  0.00  0.00    -0.270 OA
ATOM      9  N   UNL     1       1.140   2.163  -0.012  0.00  0.00    -0.261 N 
ATOM     10  C   UNL     1       1.121   3.552   0.003  0.00  0.00    +0.165 A 
ATOM     11  N   UNL     1       2.137   4.391  -0.002  0.00  0.00    -0.225 NA
ATOM     12  C   UNL     1       1.944   5.702   0.014  0.00  0.00    +0.082 A 
ATOM     13  C   UNL     1       0.657   6.162   0.036  0.00  0.00    +0.077 A 
ATOM     14  S   UNL     1      -0.247   4.621   0.025  0.00  0.00    -0.060 S 
ATOM     15  H   UNL     1       1.986   1.690  -0.028  0.00  0.00    +0.157 HD
BRANCH  12  16
ATOM     16  C   UNL     1       3.092   6.644   0.008  0.00  0.00    +0.028 A 
ATOM     17  C   UNL     1       2.886   8.017  -0.093  0.00  0.00    +0.039 A 
ATOM     18  C   UNL     1       3.958   8.842  -0.090  0.00  0.00    +0.080 A 
ATOM     19  S   UNL     1       5.319   7.696   0.045  0.00  0.00    -0.065 S 
ATOM     20  C   UNL     1       4.375   6.181   0.097  0.00  0.00    +0.089 A 
ATOM     21 CL   UNL     1       4.941   4.545   0.225  0.00  0.00    -0.075 Cl
ATOM     22 CL   UNL     1       4.000  10.575  -0.196  0.00  0.00    -0.076 Cl
ENDBRANCH  12  16
ENDBRANCH   6   7
BRANCH   3  23
ATOM     23  S   UNL     1       0.063  -4.535  -0.068  0.00  0.00    +0.061 S 
ATOM     24  O   UNL     1       1.321  -4.929   0.461  0.00  0.00    -0.153 OA
ATOM     25  O   UNL     1      -1.169  -4.963   0.495  0.00  0.00    -0.153 OA
BRANCH  23  26
ATOM     26  N   UNL     1       0.048  -5.007  -1.655  0.00  0.00    -0.177 NA
ATOM     27  C   UNL     1      -1.227  -5.228  -2.300  0.00  0.00    +0.109 C 
ATOM     28  C   UNL     1      -1.669  -6.693  -2.103  0.00  0.00    +0.017 C 
ATOM     29  C   UNL     1      -0.830  -7.592  -2.909  0.00  0.00    +0.001 C 
ATOM     30  C   UNL     1       0.647  -7.587  -2.524  0.00  0.00    +0.001 C 
ATOM     31  C   UNL     1       1.344  -6.452  -3.234  0.00  0.00    +0.017 C 
ATOM     32  C   UNL     1       1.336  -5.191  -2.351  0.00  0.00    +0.109 C 
ENDBRANCH  23  26
ENDBRANCH   3  23
TORSDOF 4
