REMARK  Name = ZINC40784599
REMARK  8 active torsions:
REMARK  status: ('A' for Active; 'I' for Inactive)
REMARK    1  A    between atoms: C_1  and  C_2
REMARK    2  A    between atoms: C_5  and  S_8
REMARK    3  A    between atoms: S_8  and  N_11
REMARK    4  A    between atoms: N_11  and  N_12
REMARK    5  A    between atoms: C_14  and  N_30
REMARK    6  A    between atoms: C_15  and  N_19
REMARK    7  A    between atoms: N_19  and  N_20
REMARK    8  A    between atoms: C_21  and  C_23
REMARK                            x       y       z     vdW  Elec       q    Type
REMARK                         _______ _______ _______ _____ _____    ______ ____
ROOT
ATOM      1  N   UNL     1       2.500  -4.622   1.014  0.00  0.00    -0.244 N 
ATOM      2  C   UNL     1       3.205  -5.589   1.720  0.00  0.00    +0.159 A 
ATOM      3  C   UNL     1       4.050  -5.225   2.770  0.00  0.00    +0.108 A 
ATOM      4  C   UNL     1       4.734  -6.237   3.446  0.00  0.00    +0.161 A 
ATOM      5  N   UNL     1       4.557  -7.500   3.067  0.00  0.00    -0.217 NA
ATOM      6  C   UNL     1       3.749  -7.801   2.070  0.00  0.00    +0.225 A 
ATOM      7  N   UNL     1       3.081  -6.877   1.409  0.00  0.00    -0.218 NA
ATOM      8  H   UNL     1       2.596  -3.685   1.247  0.00  0.00    +0.169 HD
ENDROOT
BRANCH   3   9
ATOM      9  N   UNL     1       4.208  -3.878   3.136  0.00  0.00    -0.353 N 
ATOM     10  H   UNL     1       3.726  -3.186   2.656  0.00  0.00    +0.143 HD
ATOM     11  H   UNL     1       4.799  -3.641   3.868  0.00  0.00    +0.143 HD
ENDBRANCH   3   9
BRANCH   1  12
ATOM     12  N   UNL     1       1.651  -4.999  -0.034  0.00  0.00    -0.109 NA
ATOM     13  H   UNL     1       1.993  -5.536  -0.767  0.00  0.00    +0.172 HD
BRANCH  12  14
ATOM     14  S   UNL     1       0.063  -4.530  -0.023  0.00  0.00    +0.074 S 
ATOM     15  O   UNL     1      -0.476  -4.950   1.223  0.00  0.00    -0.152 OA
ATOM     16  O   UNL     1      -0.490  -4.937  -1.267  0.00  0.00    -0.152 OA
BRANCH  14  21
ATOM     17  C   UNL     1      -0.018   1.503   0.010  0.00  0.00    +0.044 C 
ATOM     18  C   UNL     1       0.002  -0.004   0.002  0.00  0.00    -0.050 A 
ATOM     19  C   UNL     1       0.006  -0.689  -1.199  0.00  0.00    +0.005 A 
ATOM     20  C   UNL     1       0.025  -2.071  -1.206  0.00  0.00    +0.029 A 
ATOM     21  C   UNL     1       0.040  -2.768  -0.013  0.00  0.00    +0.107 A 
ATOM     22  C   UNL     1       0.037  -2.084   1.188  0.00  0.00    +0.029 A 
ATOM     23  C   UNL     1       0.023  -0.702   1.195  0.00  0.00    +0.005 A 
ENDBRANCH  14  21
ENDBRANCH  12  14
ENDBRANCH   1  12
BRANCH   4  24
ATOM     24  N   UNL     1       5.588  -5.929   4.499  0.00  0.00    -0.247 N 
ATOM     25  H   UNL     1       5.713  -5.006   4.769  0.00  0.00    +0.172 HD
BRANCH  24  26
ATOM     26  N   UNL     1       6.270  -6.953   5.170  0.00  0.00    -0.231 N 
ATOM     27  C   UNL     1       7.098  -6.655   6.191  0.00  0.00    +0.260 C 
ATOM     28  O   UNL     1       7.253  -5.498   6.529  0.00  0.00    -0.269 OA
ATOM     29  H   UNL     1       6.145  -7.877   4.900  0.00  0.00    +0.173 HD
BRANCH  27  30
ATOM     30  C   UNL     1       7.816  -7.734   6.898  0.00  0.00    +0.038 A 
ATOM     31  C   UNL     1       7.643  -9.064   6.508  0.00  0.00    +0.016 A 
ATOM     32  C   UNL     1       8.316 -10.068   7.172  0.00  0.00    +0.039 A 
ATOM     33  C   UNL     1       9.164  -9.758   8.225  0.00  0.00    +0.123 A 
ATOM     34  C   UNL     1       9.338  -8.440   8.617  0.00  0.00    +0.039 A 
ATOM     35  C   UNL     1       8.675  -7.428   7.956  0.00  0.00    +0.016 A 
ATOM     36  F   UNL     1       9.821 -10.746   8.872  0.00  0.00    -0.205 F 
ENDBRANCH  27  30
ENDBRANCH  24  26
ENDBRANCH   4  24
TORSDOF 7
