REMARK  Name = ZINC13347331
REMARK  8 active torsions:
REMARK  status: ('A' for Active; 'I' for Inactive)
REMARK    1  A    between atoms: C_3  and  S_11
REMARK    2  A    between atoms: C_6  and  C_7
REMARK    3  A    between atoms: C_8  and  C_9
REMARK    4  A    between atoms: S_11  and  N_14
REMARK    5  A    between atoms: N_14  and  C_15
REMARK    6  A    between atoms: C_15  and  C_17
REMARK    7  A    between atoms: C_15  and  C_20
REMARK    8  A    between atoms: C_17  and  C_18
REMARK                            x       y       z     vdW  Elec       q    Type
REMARK                         _______ _______ _______ _____ _____    ______ ____
ROOT
ATOM      1  S   UNL     1       2.814   3.802  -0.362  0.00  0.00    +0.059 S 
ATOM      2  O   UNL     1       2.352   4.984   0.277  0.00  0.00    -0.153 OA
ATOM      3  O   UNL     1       3.892   3.031   0.151  0.00  0.00    -0.153 OA
ENDROOT
BRANCH   1   6
ATOM      4  C   UNL     1       0.553   0.499  -0.678  0.00  0.00    +0.010 A 
ATOM      5  C   UNL     1       1.632   1.353  -0.585  0.00  0.00    +0.029 A 
ATOM      6  C   UNL     1       1.430   2.719  -0.479  0.00  0.00    +0.105 A 
ATOM      7  C   UNL     1       0.147   3.237  -0.465  0.00  0.00    +0.029 A 
ATOM      8  C   UNL     1      -0.942   2.396  -0.557  0.00  0.00    +0.010 A 
ATOM      9  C   UNL     1      -0.746   1.015  -0.669  0.00  0.00    -0.025 A 
BRANCH   9  10
ATOM     10  C   UNL     1      -1.902   0.111  -0.774  0.00  0.00    +0.015 C 
ATOM     11  C   UNL     1      -3.155   0.613  -0.766  0.00  0.00    +0.096 C 
BRANCH  11  12
ATOM     12  C   UNL     1      -4.303  -0.286  -0.869  0.00  0.00    +0.380 C 
ATOM     13  O   UNL     1      -4.130  -1.486  -0.963  0.00  0.00    -0.241 OA
ATOM     14  O   UNL     1      -5.556   0.216  -0.861  0.00  0.00    -0.241 OA
ENDBRANCH  11  12
ENDBRANCH   9  10
ENDBRANCH   1   6
BRANCH   1  15
ATOM     15  N   UNL     1       3.233   4.231  -1.906  0.00  0.00    -0.182 NA
ATOM     16  H   UNL     1       4.087   3.953  -2.272  0.00  0.00    +0.149 HD
BRANCH  15  17
ATOM     17  C   UNL     1       2.313   5.031  -2.719  0.00  0.00    +0.117 C 
BRANCH  17  18
ATOM     18  C   UNL     1       2.419   4.607  -4.161  0.00  0.00    -0.028 A 
ATOM     19  C   UNL     1       3.656   4.319  -4.707  0.00  0.00    +0.006 A 
ATOM     20  C   UNL     1       3.753   3.924  -6.028  0.00  0.00    +0.020 A 
ATOM     21  C   UNL     1       2.614   3.830  -6.807  0.00  0.00    +0.041 A 
ATOM     22  C   UNL     1       1.377   4.124  -6.262  0.00  0.00    +0.020 A 
ATOM     23  C   UNL     1       1.280   4.513  -4.939  0.00  0.00    +0.006 A 
ATOM     24 CL   UNL     1       2.736   3.342  -8.469  0.00  0.00    -0.084 Cl
ENDBRANCH  17  18
BRANCH  17  25
ATOM     25  C   UNL     1       2.678   6.511  -2.594  0.00  0.00    +0.150 C 
BRANCH  25  26
ATOM     26  C   UNL     1       1.631   7.347  -3.285  0.00  0.00    +0.358 C 
ATOM     27  O   UNL     1       0.630   6.825  -3.717  0.00  0.00    -0.246 OA
ATOM     28  O   UNL     1       1.810   8.670  -3.421  0.00  0.00    -0.246 OA
ENDBRANCH  25  26
ENDBRANCH  17  25
ENDBRANCH  15  17
ENDBRANCH   1  15
TORSDOF 8
