REMARK  Name = ZINC41071228
REMARK  4 active torsions:
REMARK  status: ('A' for Active; 'I' for Inactive)
REMARK    1  A    between atoms: C_5  and  N_8
REMARK    2  A    between atoms: N_8  and  S_9
REMARK    3  A    between atoms: S_9  and  C_12
REMARK    4  A    between atoms: N_18  and  N_19
REMARK                            x       y       z     vdW  Elec       q    Type
REMARK                         _______ _______ _______ _____ _____    ______ ____
ROOT
ATOM      1  S   UNL     1      -0.182  -2.932  -0.013  0.00  0.00    +0.095 S 
ATOM      2  O   UNL     1      -0.801  -2.676   1.241  0.00  0.00    -0.148 OA
ATOM      3  O   UNL     1      -0.826  -2.661  -1.250  0.00  0.00    -0.148 OA
ENDROOT
BRANCH   1   4
ATOM      4  C   UNL     1       0.236  -4.644  -0.027  0.00  0.00    +0.146 A 
ATOM      5  C   UNL     1       0.397  -5.323  -1.224  0.00  0.00    +0.144 A 
ATOM      6  N   UNL     1       0.710  -6.608  -1.200  0.00  0.00    -0.220 NA
ATOM      7  C   UNL     1       0.870  -7.245  -0.049  0.00  0.00    +0.229 A 
ATOM      8  N   UNL     1       0.723  -6.625   1.112  0.00  0.00    -0.220 NA
ATOM      9  C   UNL     1       0.416  -5.339   1.158  0.00  0.00    +0.144 A 
ATOM     10  N   UNL     1       1.198  -8.589  -0.061  0.00  0.00    -0.252 N 
ATOM     11  H   UNL     1       1.308  -9.054  -0.905  0.00  0.00    +0.169 HD
BRANCH  10  12
ATOM     12  N   UNL     1       1.367  -9.261   1.117  0.00  0.00    -0.254 NA
ATOM     13  H   UNL     1       0.546  -9.184   1.698  0.00  0.00    +0.140 HD
ATOM     14  H   UNL     1       1.602 -10.228   0.951  0.00  0.00    +0.140 HD
ENDBRANCH  10  12
ENDBRANCH   1   4
BRANCH   1  15
ATOM     15  N   UNL     1       1.239  -2.082  -0.022  0.00  0.00    -0.094 NA
BRANCH  15  20
ATOM     16  C   UNL     1      -0.017   1.379   0.010  0.00  0.00    +0.078 A 
ATOM     17  C   UNL     1       1.173   2.088   0.002  0.00  0.00    +0.127 A 
ATOM     18  C   UNL     1       2.382   1.416  -0.013  0.00  0.00    +0.055 A 
ATOM     19  C   UNL     1       2.407   0.033  -0.022  0.00  0.00    +0.048 A 
ATOM     20  C   UNL     1       1.216  -0.681  -0.014  0.00  0.00    +0.123 A 
ATOM     21  C   UNL     1       0.002  -0.004   0.002  0.00  0.00    +0.152 A 
ATOM     22  F   UNL     1      -1.158  -0.696   0.009  0.00  0.00    -0.203 F 
ATOM     23 BR   UNL     1       4.060  -0.884  -0.044  0.00  0.00    -0.048 Br
ATOM     24  F   UNL     1       1.152   3.439   0.009  0.00  0.00    -0.205 F 
ENDBRANCH  15  20
ENDBRANCH   1  15
TORSDOF 4
