REMARK  Name = ZINC08653567
REMARK  8 active torsions:
REMARK  status: ('A' for Active; 'I' for Inactive)
REMARK    1  A    between atoms: C_3  and  N_29
REMARK    2  A    between atoms: C_6  and  C_7
REMARK    3  A    between atoms: C_7  and  C_9
REMARK    4  A    between atoms: C_7  and  O_28
REMARK    5  A    between atoms: C_9  and  C_14
REMARK    6  A    between atoms: N_10  and  N_11
REMARK    7  A    between atoms: C_15  and  O_27
REMARK    8  A    between atoms: C_19  and  N_24
REMARK                            x       y       z     vdW  Elec       q    Type
REMARK                         _______ _______ _______ _____ _____    ______ ____
ROOT
ATOM      1  C   UNL     1       4.698   2.339  -0.046  0.00  0.00    +0.125 C 
ATOM      2  N   UNL     1       5.984   2.499   0.043  0.00  0.00    -0.171 NA
ENDROOT
BRANCH   1   3
ATOM      3  C   UNL     1       3.822   3.508  -0.224  0.00  0.00    +0.151 A 
ATOM      4  C   UNL     1       4.369   4.814  -0.171  0.00  0.00    +0.241 A 
ATOM      5  N   UNL     1       3.596   5.866  -0.329  0.00  0.00    -0.210 NA
ATOM      6  C   UNL     1       2.282   5.703  -0.541  0.00  0.00    +0.095 A 
ATOM      7  C   UNL     1       1.438   6.812  -0.713  0.00  0.00    +0.062 A 
ATOM      8  C   UNL     1       0.106   6.622  -0.927  0.00  0.00    +0.128 A 
ATOM      9  C   UNL     1      -0.434   5.339  -0.984  0.00  0.00    +0.035 A 
ATOM     10  C   UNL     1       0.353   4.241  -0.817  0.00  0.00    +0.032 A 
ATOM     11  C   UNL     1       1.732   4.398  -0.594  0.00  0.00    +0.090 A 
ATOM     12  N   UNL     1       2.526   3.334  -0.431  0.00  0.00    -0.238 NA
BRANCH   8  13
ATOM     13  N   UNL     1      -0.778   7.795  -1.108  0.00  0.00    +0.056 N 
ATOM     14  O   UNL     1      -0.315   8.920  -1.065  0.00  0.00    -0.126 OA
ATOM     15  O   UNL     1      -1.971   7.635  -1.300  0.00  0.00    -0.126 OA
ENDBRANCH   8  13
BRANCH   4  16
ATOM     16  O   UNL     1       5.697   4.980   0.043  0.00  0.00    -0.491 OA
ATOM     17  H   UNL     1       5.938   5.054   0.977  0.00  0.00    +0.294 HD
ENDBRANCH   4  16
ENDBRANCH   1   3
BRANCH   2  18
ATOM     18  N   UNL     1       6.827   1.381   0.095  0.00  0.00    -0.248 N 
ATOM     19  C   UNL     1       8.194   1.549   0.093  0.00  0.00    +0.187 C 
ATOM     20  N   UNL     1       9.022   0.452   0.144  0.00  0.00    -0.370 N 
ATOM     21  H   UNL     1       6.448   0.489   0.131  0.00  0.00    +0.192 HD
ATOM     22  H   UNL     1       9.654   2.968   0.039  0.00  0.00    +0.159 HD
ATOM     23  H   UNL     1       8.643  -0.441   0.181  0.00  0.00    +0.159 HD
ATOM     24  H   UNL     1       9.984   0.570   0.143  0.00  0.00    +0.159 HD
ATOM     25  N   UNL     1       8.649   2.792   0.042  0.00  0.00    -0.370 N 
ATOM     26  H   UNL     1       7.990   3.579   0.005  0.00  0.00    +0.159 HD
ENDBRANCH   2  18
BRANCH   1  27
ATOM     27  C   UNL     1       4.103   0.957   0.034  0.00  0.00    +0.197 C 
BRANCH  27  33
ATOM     28  C   UNL     1       2.747   0.764  -2.061  0.00  0.00    +0.009 A 
ATOM     29  C   UNL     1       2.551   0.278  -3.340  0.00  0.00    +0.033 A 
ATOM     30  C   UNL     1       3.491  -0.559  -3.913  0.00  0.00    +0.126 A 
ATOM     31  C   UNL     1       4.628  -0.906  -3.208  0.00  0.00    +0.033 A 
ATOM     32  C   UNL     1       4.826  -0.415  -1.931  0.00  0.00    +0.009 A 
ATOM     33  C   UNL     1       3.887   0.422  -1.359  0.00  0.00    -0.013 A 
BRANCH  30  34
ATOM     34  N   UNL     1       3.279  -1.084  -5.280  0.00  0.00    +0.056 N 
ATOM     35  O   UNL     1       4.106  -1.821  -5.785  0.00  0.00    -0.126 OA
ATOM     36  O   UNL     1       2.276  -0.778  -5.901  0.00  0.00    -0.126 OA
ENDBRANCH  30  34
ENDBRANCH  27  33
BRANCH  27  37
ATOM     37  O   UNL     1       2.851   1.015   0.721  0.00  0.00    -0.381 OA
ATOM     38  H   UNL     1       2.160   1.488   0.238  0.00  0.00    +0.211 HD
ENDBRANCH  27  37
ENDBRANCH   1  27
TORSDOF 8
