REMARK  Name = ZINC23125685
REMARK  10 active torsions:
REMARK  status: ('A' for Active; 'I' for Inactive)
REMARK    1  A    between atoms: C_1  and  C_2
REMARK    2  A    between atoms: C_4  and  C_32
REMARK    3  A    between atoms: C_5  and  N_9
REMARK    4  A    between atoms: C_6  and  C_8
REMARK    5  A    between atoms: C_10  and  C_12
REMARK    6  A    between atoms: C_12  and  N_13
REMARK    7  A    between atoms: C_14  and  N_31
REMARK    8  A    between atoms: C_15  and  C_20
REMARK    9  A    between atoms: N_18  and  C_19
REMARK   10  A    between atoms: C_22  and  C_25
REMARK                            x       y       z     vdW  Elec       q    Type
REMARK                         _______ _______ _______ _____ _____    ______ ____
ROOT
ATOM      1  N   UNL     1      -5.999   2.899  -1.138  0.00  0.00    -0.262 N 
ATOM      2  C   UNL     1      -6.809   2.146  -0.365  0.00  0.00    +0.127 A 
ATOM      3  C   UNL     1      -7.607   1.390  -1.217  0.00  0.00    +0.117 A 
ATOM      4  C   UNL     1      -7.234   1.728  -2.543  0.00  0.00    +0.127 A 
ATOM      5  N   UNL     1      -6.285   2.627  -2.480  0.00  0.00    -0.282 N 
ATOM      6  N   UNL     1      -7.787   1.200  -3.711  0.00  0.00    -0.332 N 
ATOM      7  C   UNL     1      -7.299   1.645  -5.019  0.00  0.00    +0.127 C 
ATOM      8  H   UNL     1      -8.589   0.450  -3.649  0.00  0.00    +0.147 HD
ATOM      9  H   UNL     1      -5.733   3.149  -3.276  0.00  0.00    +0.188 HD
ENDROOT
BRANCH   3  10
ATOM     10  C   UNL     1      -8.641   0.424  -0.819  0.00  0.00    +0.265 A 
ATOM     11  N   UNL     1      -9.405  -0.292  -1.629  0.00  0.00    -0.187 NA
ATOM     12  C   UNL     1     -10.193  -1.030  -0.820  0.00  0.00    +0.202 A 
ATOM     13  N   UNL     1      -9.881  -0.727   0.414  0.00  0.00    -0.056 NA
ATOM     14  O   UNL     1      -8.997   0.102   0.436  0.00  0.00    -0.332 OA
BRANCH  12  15
ATOM     15  C   UNL     1     -11.228  -2.004  -1.250  0.00  0.00    +0.022 A 
ATOM     16  C   UNL     1     -11.459  -2.224  -2.606  0.00  0.00    +0.012 A 
ATOM     17  C   UNL     1     -12.418  -3.135  -3.001  0.00  0.00    +0.001 A 
ATOM     18  C   UNL     1     -13.157  -3.819  -2.053  0.00  0.00    +0.000 A 
ATOM     19  C   UNL     1     -12.936  -3.600  -0.706  0.00  0.00    +0.001 A 
ATOM     20  C   UNL     1     -11.975  -2.696  -0.300  0.00  0.00    +0.012 A 
ENDBRANCH  12  15
ENDBRANCH   3  10
BRANCH   2  21
ATOM     21  N   UNL     1      -6.840   2.129   1.018  0.00  0.00    -0.343 N 
ATOM     22  H   UNL     1      -7.547   1.471   1.544  0.00  0.00    +0.144 HD
ATOM     23  H   UNL     1      -6.157   2.773   1.591  0.00  0.00    +0.144 HD
ENDBRANCH   2  21
BRANCH   1  24
ATOM     24  C   UNL     1      -4.993   3.846  -0.652  0.00  0.00    +0.239 C 
BRANCH  24  26
ATOM     25  N   UNL     1      -2.597   3.812  -0.036  0.00  0.00    -0.284 N 
ATOM     26  C   UNL     1      -3.676   3.135  -0.477  0.00  0.00    +0.239 C 
ATOM     27  O   UNL     1      -3.587   1.952  -0.732  0.00  0.00    -0.273 OA
ATOM     28  H   UNL     1      -2.696   4.864   0.271  0.00  0.00    +0.155 HD
BRANCH  25  33
ATOM     29  C   UNL     1       2.452   1.240   0.233  0.00  0.00    +0.044 C 
ATOM     30  C   UNL     1       1.111   1.923   0.162  0.00  0.00    -0.050 A 
ATOM     31  C   UNL     1       0.499   2.116  -1.063  0.00  0.00    +0.008 A 
ATOM     32  C   UNL     1      -0.728   2.746  -1.133  0.00  0.00    -0.029 A 
ATOM     33  C   UNL     1      -1.352   3.178   0.030  0.00  0.00    +0.039 A 
ATOM     34  C   UNL     1      -0.735   2.982   1.259  0.00  0.00    -0.029 A 
ATOM     35  C   UNL     1       0.494   2.356   1.321  0.00  0.00    +0.008 A 
ATOM     36  C   UNL     1      -1.406   3.454   2.523  0.00  0.00    +0.045 C 
ATOM     37  C   UNL     1      -1.391   2.962  -2.469  0.00  0.00    +0.045 C 
ENDBRANCH  25  33
ENDBRANCH  24  26
ENDBRANCH   1  24
TORSDOF 6
