REMARK  Name = ZINC35374608
REMARK  5 active torsions:
REMARK  status: ('A' for Active; 'I' for Inactive)
REMARK    1  A    between atoms: C_1  and  C_2
REMARK    2  A    between atoms: N_25  and  C_28
REMARK    3  A    between atoms: C_30  and  C_37
REMARK    4  A    between atoms: C_33  and  O_34
REMARK    5  A    between atoms: O_34  and  C_35
REMARK                            x       y       z     vdW  Elec       q    Type
REMARK                         _______ _______ _______ _____ _____    ______ ____
ROOT
ATOM      1  C   UNL     1      -0.018   1.503   0.010  0.00  0.00    +0.044 C 
ATOM      2  C   UNL     1       0.002  -0.004   0.002  0.00  0.00    -0.049 A 
ATOM      3  C   UNL     1       0.006  -0.691  -1.199  0.00  0.00    +0.011 A 
ATOM      4  C   UNL     1       0.025  -2.068  -1.206  0.00  0.00    +0.005 A 
ATOM      5  C   UNL     1       0.040  -2.783  -0.013  0.00  0.00    +0.057 A 
ATOM      6  C   UNL     1       0.037  -2.084   1.193  0.00  0.00    +0.063 A 
ATOM      7  C   UNL     1       0.023  -0.703   1.195  0.00  0.00    +0.025 A 
ATOM      8 CL   UNL     1       0.057  -2.951   2.697  0.00  0.00    -0.082 Cl
ATOM      9  N   UNL     1       0.057  -4.156  -0.273  0.00  0.00    -0.282 N 
ATOM     10  C   UNL     1       0.053  -4.423  -1.593  0.00  0.00    +0.243 C 
ATOM     11  O   UNL     1       0.064  -5.520  -2.109  0.00  0.00    -0.273 OA
ATOM     12  C   UNL     1       0.033  -3.096  -2.303  0.00  0.00    +0.138 C 
ATOM     13  C   UNL     1       1.255  -2.931  -3.213  0.00  0.00    +0.123 C 
ATOM     14  C   UNL     1       0.738  -3.284  -4.635  0.00  0.00    +0.107 C 
ATOM     15  C   UNL     1      -0.747  -3.645  -4.445  0.00  0.00    +0.071 C 
ATOM     16  N   UNL     1      -1.151  -2.967  -3.169  0.00  0.00    -0.281 NA
ATOM     17  C   UNL     1      -1.356  -1.545  -3.531  0.00  0.00    +0.086 C 
ATOM     18  C   UNL     1      -1.992  -1.571  -4.936  0.00  0.00    +0.017 C 
ATOM     19  C   UNL     1      -1.581  -2.967  -5.548  0.00  0.00    +0.021 C 
ATOM     20  C   UNL     1       0.858  -1.976  -5.384  0.00  0.00    +0.232 C 
ATOM     21  O   UNL     1       0.554  -1.803  -6.545  0.00  0.00    -0.274 OA
ATOM     22  N   UNL     1       1.353  -1.039  -4.567  0.00  0.00    -0.206 N 
ATOM     23  C   UNL     1       1.624  -1.468  -3.313  0.00  0.00    +0.233 C 
ATOM     24  O   UNL     1       2.082  -0.798  -2.412  0.00  0.00    -0.274 OA
ATOM     25  H   UNL     1       0.069  -4.837   0.418  0.00  0.00    +0.155 HD
ENDROOT
BRANCH  22  26
ATOM     26  C   UNL     1       1.580   0.284  -4.978  0.00  0.00    +0.086 A 
ATOM     27  C   UNL     1       0.581   1.236  -4.840  0.00  0.00    +0.032 A 
ATOM     28  C   UNL     1       0.806   2.537  -5.245  0.00  0.00    -0.030 A 
ATOM     29  C   UNL     1       2.028   2.895  -5.789  0.00  0.00    +0.047 A 
ATOM     30  C   UNL     1       3.029   1.950  -5.929  0.00  0.00    +0.067 A 
ATOM     31  C   UNL     1       2.812   0.644  -5.519  0.00  0.00    +0.143 A 
ATOM     32 CL   UNL     1       2.304   4.532  -6.297  0.00  0.00    -0.083 Cl
ATOM     33  C   UNL     1      -0.281   3.570  -5.094  0.00  0.00    +0.045 C 
BRANCH  31  34
ATOM     34  O   UNL     1       3.796  -0.284  -5.651  0.00  0.00    -0.493 OA
ATOM     35  C   UNL     1       5.033   0.158  -6.215  0.00  0.00    +0.277 C 
ENDBRANCH  31  34
ENDBRANCH  22  26
TORSDOF 2
