REMARK  Name = ZINC24144912
REMARK  9 active torsions:
REMARK  status: ('A' for Active; 'I' for Inactive)
REMARK    1  A    between atoms: C_1  and  C_2
REMARK    2  A    between atoms: C_4  and  S_27
REMARK    3  A    between atoms: C_6  and  N_9
REMARK    4  A    between atoms: C_7  and  C_8
REMARK    5  A    between atoms: C_10  and  C_12
REMARK    6  A    between atoms: C_12  and  S_13
REMARK    7  A    between atoms: S_13  and  C_14
REMARK    8  A    between atoms: C_20  and  C_23
REMARK    9  A    between atoms: S_27  and  N_30
REMARK                            x       y       z     vdW  Elec       q    Type
REMARK                         _______ _______ _______ _____ _____    ______ ____
ROOT
ATOM      1  N   UNL     1      -3.492   0.539   3.694  0.00  0.00    -0.285 N 
ATOM      2  C   UNL     1      -3.768  -0.635   3.092  0.00  0.00    +0.227 C 
ATOM      3  O   UNL     1      -3.146  -0.973   2.108  0.00  0.00    -0.275 OA
ATOM      4  H   UNL     1      -4.005   0.812   4.628  0.00  0.00    +0.155 HD
ENDROOT
BRANCH   1  10
ATOM      5  C   UNL     1      -1.998   5.132   2.777  0.00  0.00    +0.044 C 
ATOM      6  C   UNL     1      -1.804   3.641   2.671  0.00  0.00    -0.044 A 
ATOM      7  C   UNL     1      -0.694   3.133   2.021  0.00  0.00    +0.032 A 
ATOM      8  C   UNL     1      -0.516   1.766   1.917  0.00  0.00    +0.107 A 
ATOM      9  C   UNL     1      -1.441   0.903   2.473  0.00  0.00    +0.052 A 
ATOM     10  C   UNL     1      -2.554   1.410   3.131  0.00  0.00    +0.038 A 
ATOM     11  C   UNL     1      -2.733   2.784   3.229  0.00  0.00    -0.026 A 
ATOM     12  C   UNL     1      -3.939   3.339   3.942  0.00  0.00    +0.046 C 
BRANCH   8  13
ATOM     13  S   UNL     1       0.896   1.123   1.082  0.00  0.00    +0.056 S 
ATOM     14  O   UNL     1       1.116  -0.181   1.601  0.00  0.00    -0.153 OA
ATOM     15  O   UNL     1       1.890   2.138   1.126  0.00  0.00    -0.153 OA
BRANCH  13  16
ATOM     16  N   UNL     1       0.480   0.936  -0.510  0.00  0.00    -0.204 NA
ATOM     17  H   UNL     1       1.339   0.535  -1.068  0.00  0.00    +0.144 HD
ATOM     18  H   UNL     1       0.192   1.911  -0.930  0.00  0.00    +0.144 HD
ENDBRANCH  13  16
ENDBRANCH   8  13
ENDBRANCH   1  10
BRANCH   2  19
ATOM     19  C   UNL     1      -4.851  -1.527   3.642  0.00  0.00    +0.173 C 
BRANCH  19  20
ATOM     20  S   UNL     1      -4.981  -3.021   2.621  0.00  0.00    -0.076 S 
BRANCH  20  21
ATOM     21  C   UNL     1      -6.271  -3.948   3.382  0.00  0.00    +0.196 A 
ATOM     22  N   UNL     1      -6.953  -3.601   4.451  0.00  0.00    -0.122 NA
ATOM     23  N   UNL     1      -7.823  -4.504   4.738  0.00  0.00    -0.129 NA
ATOM     24  C   UNL     1      -7.741  -5.493   3.868  0.00  0.00    +0.162 A 
ATOM     25  N   UNL     1      -6.743  -5.161   2.976  0.00  0.00    -0.277 N 
ATOM     26  C   UNL     1      -6.425  -6.004   1.948  0.00  0.00    +0.107 A 
ATOM     27  C   UNL     1      -7.083  -7.170   1.792  0.00  0.00    +0.071 A 
ATOM     28  C   UNL     1      -8.106  -7.537   2.686  0.00  0.00    +0.017 A 
ATOM     29  C   UNL     1      -8.435  -6.710   3.714  0.00  0.00    +0.049 A 
BRANCH  27  30
ATOM     30  C   UNL     1      -6.720  -8.088   0.653  0.00  0.00    +0.419 C 
ATOM     31  F   UNL     1      -7.531  -9.227   0.695  0.00  0.00    -0.166 F 
ATOM     32  F   UNL     1      -6.914  -7.422  -0.562  0.00  0.00    -0.166 F 
ATOM     33  F   UNL     1      -5.378  -8.466   0.768  0.00  0.00    -0.166 F 
ENDBRANCH  27  30
ENDBRANCH  20  21
ENDBRANCH  19  20
ENDBRANCH   2  19
TORSDOF 7
