REMARK  Name = ZINC35397158
REMARK  12 active torsions:
REMARK  status: ('A' for Active; 'I' for Inactive)
REMARK    1  A    between atoms: C_1  and  C_2
REMARK    2  A    between atoms: C_2  and  C_3
REMARK    3  A    between atoms: C_2  and  C_4
REMARK    4  A    between atoms: C_2  and  C_5
REMARK    5  A    between atoms: C_8  and  C_11
REMARK    6  A    between atoms: N_16  and  C_19
REMARK    7  A    between atoms: C_21  and  S_22
REMARK    8  A    between atoms: S_22  and  C_23
REMARK    9  A    between atoms: C_23  and  C_24
REMARK   10  A    between atoms: N_26  and  C_27
REMARK   11  A    between atoms: C_30  and  O_34
REMARK   12  A    between atoms: O_34  and  C_35
REMARK                            x       y       z     vdW  Elec       q    Type
REMARK                         _______ _______ _______ _____ _____    ______ ____
ROOT
ATOM      1  C   UNL     1       2.664  -1.773  -4.806  0.00  0.00    +0.100 C 
ATOM      2  N   UNL     1       3.871  -1.447  -5.161  0.00  0.00    -0.251 NA
ATOM      3  C   UNL     1       4.172  -2.175  -6.397  0.00  0.00    +0.150 C 
ATOM      4  C   UNL     1       5.375  -3.095  -6.186  0.00  0.00    +0.035 C 
ATOM      5  C   UNL     1       6.618  -2.245  -5.913  0.00  0.00    -0.075 C 
ATOM      6  N   UNL     1       6.864  -1.352  -7.051  0.00  0.00    +0.378 N 
ATOM      7  C   UNL     1       5.745  -0.414  -7.202  0.00  0.00    -0.075 C 
ATOM      8  C   UNL     1       4.466  -1.190  -7.529  0.00  0.00    +0.035 C 
ATOM      9  C   UNL     1       8.104  -0.599  -6.822  0.00  0.00    -0.096 C 
ATOM     10  N   UNL     1       2.981  -2.967  -6.715  0.00  0.00    -0.246 NA
ATOM     11  C   UNL     1       2.104  -2.736  -5.782  0.00  0.00    +0.120 C 
ATOM     12  H   UNL     1       6.957  -1.901  -7.893  0.00  0.00    -0.082 HD
ENDROOT
BRANCH   1  16
ATOM     13  C   UNL     1       0.642  -0.314  -1.365  0.00  0.00    -0.042 A 
ATOM     14  C   UNL     1      -0.084  -0.712  -2.473  0.00  0.00    +0.005 A 
ATOM     15  C   UNL     1       0.566  -1.186  -3.594  0.00  0.00    +0.010 A 
ATOM     16  C   UNL     1       1.959  -1.264  -3.607  0.00  0.00    +0.003 A 
ATOM     17  C   UNL     1       2.686  -0.862  -2.486  0.00  0.00    +0.010 A 
ATOM     18  C   UNL     1       2.023  -0.384  -1.373  0.00  0.00    +0.005 A 
BRANCH  13  20
ATOM     19  C   UNL     1       0.371   1.639   0.140  0.00  0.00    +0.015 C 
ATOM     20  C   UNL     1      -0.075   0.203  -0.144  0.00  0.00    -0.013 C 
ATOM     21  C   UNL     1       0.259  -0.682   1.058  0.00  0.00    +0.015 C 
ATOM     22  C   UNL     1      -1.585   0.178  -0.391  0.00  0.00    +0.015 C 
ENDBRANCH  13  20
ENDBRANCH   1  16
BRANCH  11  23
ATOM     23  S   UNL     1       0.497  -3.454  -5.696  0.00  0.00    -0.095 S 
BRANCH  23  24
ATOM     24  C   UNL     1       0.417  -4.528  -7.156  0.00  0.00    +0.172 C 
BRANCH  24  25
ATOM     25  C   UNL     1      -0.925  -5.212  -7.204  0.00  0.00    +0.227 C 
ATOM     26  O   UNL     1      -1.747  -4.996  -6.338  0.00  0.00    -0.275 OA
ATOM     27  N   UNL     1      -1.212  -6.063  -8.209  0.00  0.00    -0.285 N 
ATOM     28  H   UNL     1      -0.530  -6.293  -8.859  0.00  0.00    +0.155 HD
BRANCH  27  29
ATOM     29  C   UNL     1      -2.495  -6.615  -8.314  0.00  0.00    +0.035 A 
ATOM     30  C   UNL     1      -2.659  -7.904  -8.803  0.00  0.00    +0.027 A 
ATOM     31  C   UNL     1      -3.924  -8.449  -8.907  0.00  0.00    +0.049 A 
ATOM     32  C   UNL     1      -5.032  -7.708  -8.521  0.00  0.00    +0.138 A 
ATOM     33  C   UNL     1      -4.870  -6.420  -8.032  0.00  0.00    +0.084 A 
ATOM     34  C   UNL     1      -3.604  -5.876  -7.923  0.00  0.00    +0.047 A 
ATOM     35 CL   UNL     1      -6.256  -5.493  -7.550  0.00  0.00    -0.080 Cl
BRANCH  32  36
ATOM     36  O   UNL     1      -6.277  -8.245  -8.623  0.00  0.00    -0.494 OA
ATOM     37  C   UNL     1      -6.370  -9.576  -9.135  0.00  0.00    +0.277 C 
ENDBRANCH  32  36
ENDBRANCH  27  29
ENDBRANCH  24  25
ENDBRANCH  23  24
ENDBRANCH  11  23
TORSDOF 7
