REMARK  Name = ZINC39534296
REMARK  10 active torsions:
REMARK  status: ('A' for Active; 'I' for Inactive)
REMARK    1  A    between atoms: C_1  and  S_2
REMARK    2  A    between atoms: S_2  and  N_3
REMARK    3  A    between atoms: N_3  and  C_4
REMARK    4  A    between atoms: C_4  and  C_5
REMARK    5  A    between atoms: C_5  and  C_7
REMARK    6  A    between atoms: C_5  and  N_23
REMARK    7  A    between atoms: C_10  and  S_13
REMARK    8  A    between atoms: S_13  and  O_16
REMARK    9  A    between atoms: O_16  and  C_17
REMARK   10  A    between atoms: C_27  and  O_30
REMARK                            x       y       z     vdW  Elec       q    Type
REMARK                         _______ _______ _______ _____ _____    ______ ____
ROOT
ATOM      1  C   UNL     1       1.348  -2.190  -3.099  0.00  0.00    +0.101 C 
ENDROOT
BRANCH   1   2
ATOM      2  N   UNL     1       2.594  -1.429  -3.259  0.00  0.00    -0.295 NA
ATOM      3  C   UNL     1       3.345  -1.376  -1.997  0.00  0.00    +0.066 C 
ATOM      4  C   UNL     1       4.660  -0.628  -2.221  0.00  0.00    -0.063 C 
ATOM      5  N   UNL     1       4.375   0.732  -2.698  0.00  0.00    +0.398 N 
ATOM      6  C   UNL     1       3.646   0.663  -3.971  0.00  0.00    +0.073 C 
ATOM      7  C   UNL     1       2.322  -0.075  -3.762  0.00  0.00    +0.096 C 
ATOM      8  H   UNL     1       3.813   1.217  -2.014  0.00  0.00    -0.082 HD
ATOM      9  H   UNL     1       5.243   1.230  -2.833  0.00  0.00    -0.082 HD
BRANCH   6  10
ATOM     10  O   UNL     1       3.385   1.987  -4.442  0.00  0.00    -0.409 OA
ATOM     11  H   UNL     1       4.181   2.514  -4.597  0.00  0.00    +0.207 HD
ENDBRANCH   6  10
ENDBRANCH   1   2
BRANCH   1  12
ATOM     12  C   UNL     1       1.592  -3.635  -3.454  0.00  0.00    -0.029 A 
ATOM     13  C   UNL     1       2.809  -4.222  -3.160  0.00  0.00    +0.007 A 
ATOM     14  C   UNL     1       3.033  -5.546  -3.485  0.00  0.00    +0.031 A 
ATOM     15  C   UNL     1       2.041  -6.284  -4.104  0.00  0.00    +0.128 A 
ATOM     16  C   UNL     1       0.825  -5.697  -4.398  0.00  0.00    +0.031 A 
ATOM     17  C   UNL     1       0.599  -4.373  -4.068  0.00  0.00    +0.007 A 
BRANCH  15  18
ATOM     18  S   UNL     1       2.328  -7.972  -4.520  0.00  0.00    +0.151 S 
ATOM     19  O   UNL     1       1.438  -8.285  -5.583  0.00  0.00    -0.131 OA
ATOM     20  O   UNL     1       3.736  -8.129  -4.634  0.00  0.00    -0.131 OA
BRANCH  18  21
ATOM     21  O   UNL     1       1.892  -8.810  -3.326  0.00  0.00    -0.342 OA
BRANCH  21  22
ATOM     22  C   UNL     1       0.544  -8.922  -3.192  0.00  0.00    +0.157 A 
ATOM     23  C   UNL     1      -0.159  -7.990  -2.442  0.00  0.00    +0.048 A 
ATOM     24  C   UNL     1      -1.529  -8.106  -2.308  0.00  0.00    +0.004 A 
ATOM     25  C   UNL     1      -2.199  -9.149  -2.920  0.00  0.00    +0.000 A 
ATOM     26  C   UNL     1      -1.500 -10.079  -3.668  0.00  0.00    +0.004 A 
ATOM     27  C   UNL     1      -0.131  -9.964  -3.811  0.00  0.00    +0.048 A 
ENDBRANCH  21  22
ENDBRANCH  18  21
ENDBRANCH  15  18
ENDBRANCH   1  12
BRANCH   1  28
ATOM     28  C   UNL     1       0.875  -2.095  -1.647  0.00  0.00    +0.117 C 
BRANCH  28  29
ATOM     29  N   UNL     1       0.659  -0.686  -1.294  0.00  0.00    -0.262 NA
ATOM     30  H   UNL     1       0.214  -0.187  -2.050  0.00  0.00    +0.135 HD
BRANCH  29  32
ATOM     31  C   UNL     1      -0.429   1.247   0.448  0.00  0.00    +0.102 C 
ATOM     32  S   UNL     1      -0.278  -0.543   0.195  0.00  0.00    -0.084 S 
ENDBRANCH  29  32
ENDBRANCH  28  29
ENDBRANCH   1  28
TORSDOF 9
