REMARK  Name = ZINC44546621
REMARK  8 active torsions:
REMARK  status: ('A' for Active; 'I' for Inactive)
REMARK    1  A    between atoms: C_4  and  C_7
REMARK    2  A    between atoms: C_7  and  C_9
REMARK    3  A    between atoms: C_7  and  N_15
REMARK    4  A    between atoms: C_9  and  C_11
REMARK    5  A    between atoms: C_9  and  O_14
REMARK    6  A    between atoms: C_16  and  O_18
REMARK    7  A    between atoms: O_18  and  C_19
REMARK    8  A    between atoms: C_19  and  C_20
REMARK                            x       y       z     vdW  Elec       q    Type
REMARK                         _______ _______ _______ _____ _____    ______ ____
ROOT
ATOM      1  N   UNL     1       3.630  -1.873   0.845  0.00  0.00    -0.271 N 
ATOM      2  C   UNL     1       4.751  -2.385   1.391  0.00  0.00    +0.401 C 
ATOM      3  O   UNL     1       5.830  -1.879   1.150  0.00  0.00    -0.226 OA
ATOM      4  H   UNL     1       2.769  -2.277   1.038  0.00  0.00    +0.153 HD
ENDROOT
BRANCH   1   5
ATOM      5  C   UNL     1       3.711  -0.707  -0.038  0.00  0.00    +0.146 C 
BRANCH   5   9
ATOM      6  C   UNL     1      -0.017   1.378   0.010  0.00  0.00    +0.000 A 
ATOM      7  C   UNL     1       1.171   2.086   0.002  0.00  0.00    +0.000 A 
ATOM      8  C   UNL     1       2.377   1.411  -0.013  0.00  0.00    +0.005 A 
ATOM      9  C   UNL     1       2.396   0.029  -0.020  0.00  0.00    -0.024 A 
ATOM     10  C   UNL     1       1.208  -0.679  -0.012  0.00  0.00    +0.005 A 
ATOM     11  C   UNL     1       0.002  -0.004   0.002  0.00  0.00    +0.000 A 
ENDBRANCH   5   9
BRANCH   5  12
ATOM     12  C   UNL     1       4.019  -1.168  -1.464  0.00  0.00    +0.252 C 
BRANCH  12  13
ATOM     13  C   UNL     1       5.270  -2.008  -1.461  0.00  0.00    +0.386 C 
ATOM     14  O   UNL     1       5.213  -3.188  -1.762  0.00  0.00    -0.243 OA
ATOM     15  O   UNL     1       6.340  -1.507  -1.159  0.00  0.00    -0.243 OA
ENDBRANCH  12  13
BRANCH  12  16
ATOM     16  O   UNL     1       2.926  -1.943  -1.960  0.00  0.00    -0.379 OA
ATOM     17  H   UNL     1       2.737  -2.735  -1.440  0.00  0.00    +0.211 HD
ENDBRANCH  12  16
ENDBRANCH   5  12
ENDBRANCH   1   5
BRANCH   2  18
ATOM     18  O   UNL     1       4.677  -3.457   2.202  0.00  0.00    -0.449 OA
BRANCH  18  19
ATOM     19  C   UNL     1       5.905  -3.946   2.745  0.00  0.00    +0.246 C 
BRANCH  19  20
ATOM     20  C   UNL     1       5.622  -5.158   3.635  0.00  0.00    +0.088 C 
ATOM     21  C   UNL     1       5.158  -6.323   2.795  0.00  0.00    -0.029 A 
ATOM     22  C   UNL     1       4.070  -6.490   1.966  0.00  0.00    +0.005 A 
ATOM     23  C   UNL     1       3.883  -7.690   1.302  0.00  0.00    +0.000 A 
ATOM     24  C   UNL     1       4.787  -8.723   1.470  0.00  0.00    +0.001 A 
ATOM     25  C   UNL     1       5.879  -8.564   2.297  0.00  0.00    +0.009 A 
ATOM     26  C   UNL     1       6.074  -7.357   2.970  0.00  0.00    -0.014 A 
ATOM     27  C   UNL     1       7.141  -6.919   3.904  0.00  0.00    -0.014 A 
ATOM     28  C   UNL     1       6.891  -5.612   4.313  0.00  0.00    -0.029 A 
ATOM     29  C   UNL     1       7.749  -4.982   5.189  0.00  0.00    +0.005 A 
ATOM     30  C   UNL     1       8.865  -5.648   5.666  0.00  0.00    +0.000 A 
ATOM     31  C   UNL     1       9.121  -6.947   5.265  0.00  0.00    +0.001 A 
ATOM     32  C   UNL     1       8.268  -7.585   4.390  0.00  0.00    +0.009 A 
ENDBRANCH  19  20
ENDBRANCH  18  19
ENDBRANCH   2  18
TORSDOF 8
