REMARK  Name = ZINC25382049
REMARK  11 active torsions:
REMARK  status: ('A' for Active; 'I' for Inactive)
REMARK    1  A    between atoms: C_1  and  C_2
REMARK    2  A    between atoms: N_5  and  C_8
REMARK    3  A    between atoms: C_8  and  C_10
REMARK    4  A    between atoms: C_8  and  C_30
REMARK    5  A    between atoms: C_10  and  N_11
REMARK    6  A    between atoms: C_12  and  C_14
REMARK    7  A    between atoms: C_14  and  C_16
REMARK    8  A    between atoms: C_14  and  N_19
REMARK    9  A    between atoms: C_16  and  C_17
REMARK   10  A    between atoms: C_16  and  C_18
REMARK   11  A    between atoms: C_20  and  C_22
REMARK                            x       y       z     vdW  Elec       q    Type
REMARK                         _______ _______ _______ _____ _____    ______ ____
ROOT
ATOM      1  N   UNL     1      -1.010   3.003  -3.313  0.00  0.00    -0.315 N 
ATOM      2  C   UNL     1      -1.718   3.674  -4.243  0.00  0.00    +0.234 C 
ATOM      3  O   UNL     1      -2.474   3.075  -4.979  0.00  0.00    -0.274 OA
ATOM      4  H   UNL     1      -0.382   3.553  -2.598  0.00  0.00    +0.149 HD
ENDROOT
BRANCH   1   5
ATOM      5  C   UNL     1      -1.077   1.540  -3.256  0.00  0.00    +0.094 C 
BRANCH   5   6
ATOM      6  C   UNL     1      -0.095   1.026  -2.201  0.00  0.00    -0.013 C 
BRANCH   6  11
ATOM      7  C   UNL     1      -1.374   2.633   3.133  0.00  0.00    +0.007 C 
ATOM      8  C   UNL     1      -1.114   1.795   1.879  0.00  0.00    -0.018 C 
ATOM      9  C   UNL     1      -2.075   2.225   0.768  0.00  0.00    -0.015 C 
ATOM     10  C   UNL     1      -1.771   1.426  -0.501  0.00  0.00    -0.078 C 
ATOM     11  N   UNL     1      -0.382   1.667  -0.911  0.00  0.00    +0.386 N 
ATOM     12  C   UNL     1       0.562   1.218   0.121  0.00  0.00    -0.078 C 
ATOM     13  C   UNL     1       0.327   2.011   1.409  0.00  0.00    -0.015 C 
ATOM     14  H   UNL     1      -0.252   2.752  -1.035  0.00  0.00    -0.081 HD
ENDBRANCH   6  11
BRANCH   6  15
ATOM     15  C   UNL     1      -0.242  -0.468  -2.064  0.00  0.00    -0.022 A 
ATOM     16  C   UNL     1       0.656  -1.443  -2.346  0.00  0.00    +0.009 A 
ATOM     17  C   UNL     1       0.299  -2.763  -2.139  0.00  0.00    +0.008 A 
ATOM     18  C   UNL     1      -0.938  -3.042  -1.660  0.00  0.00    +0.045 A 
ATOM     19  S   UNL     1      -1.641  -1.411  -1.480  0.00  0.00    -0.103 S 
ENDBRANCH   6  15
ENDBRANCH   5   6
ENDBRANCH   1   5
BRANCH   2  20
ATOM     20  C   UNL     1      -1.571   5.168  -4.369  0.00  0.00    +0.162 C 
BRANCH  20  21
ATOM     21  N   UNL     1      -2.803   5.735  -4.922  0.00  0.00    -0.300 N 
ATOM     22  C   UNL     1      -3.124   7.020  -4.673  0.00  0.00    +0.250 C 
ATOM     23  O   UNL     1      -2.392   7.709  -3.989  0.00  0.00    -0.270 OA
ATOM     24  H   UNL     1      -3.466   5.113  -5.541  0.00  0.00    +0.150 HD
BRANCH  22  25
ATOM     25  C   UNL     1      -4.366   7.592  -5.229  0.00  0.00    +0.107 A 
ATOM     26  C   UNL     1      -5.561   7.516  -4.506  0.00  0.00    +0.138 A 
ATOM     27  C   UNL     1      -6.718   8.058  -5.033  0.00  0.00    +0.039 A 
ATOM     28  C   UNL     1      -6.699   8.665  -6.276  0.00  0.00    +0.006 A 
ATOM     29  C   UNL     1      -5.523   8.739  -7.000  0.00  0.00    +0.039 A 
ATOM     30  C   UNL     1      -4.355   8.207  -6.486  0.00  0.00    +0.138 A 
ATOM     31  F   UNL     1      -3.208   8.281  -7.194  0.00  0.00    -0.205 F 
ATOM     32  F   UNL     1      -5.583   6.919  -3.295  0.00  0.00    -0.205 F 
ENDBRANCH  22  25
ENDBRANCH  20  21
BRANCH  20  33
ATOM     33  C   UNL     1      -0.399   5.489  -5.300  0.00  0.00    +0.012 C 
ATOM     34  C   UNL     1      -0.176   7.002  -5.337  0.00  0.00    +0.009 C 
ATOM     35  C   UNL     1       0.865   4.799  -4.785  0.00  0.00    +0.009 C 
ENDBRANCH  20  33
ENDBRANCH   2  20
TORSDOF 8
