REMARK  Name = ZINC09580174
REMARK  4 active torsions:
REMARK  status: ('A' for Active; 'I' for Inactive)
REMARK    1  A    between atoms: C_6  and  C_7
REMARK    2  A    between atoms: C_7  and  C_8
REMARK    3  A    between atoms: C_8  and  N_10
REMARK    4  A    between atoms: N_12  and  C_23
REMARK                            x       y       z     vdW  Elec       q    Type
REMARK                         _______ _______ _______ _____ _____    ______ ____
ROOT
ATOM      1  N   UNL     1      -2.574  -2.079  -1.779  0.00  0.00    -0.159 NA
ATOM      2  C   UNL     1      -3.136  -2.106  -2.982  0.00  0.00    +0.154 C 
ATOM      3  N   UNL     1      -4.381  -2.568  -3.319  0.00  0.00    -0.276 N 
ATOM      4  C   UNL     1      -4.948  -2.181  -4.585  0.00  0.00    +0.116 C 
ATOM      5  C   UNL     1      -6.367  -1.617  -4.481  0.00  0.00    +0.190 C 
ATOM      6  S   UNL     1      -6.091   0.191  -4.652  0.00  0.00    -0.028 S 
ATOM      7  O   UNL     1      -6.072   0.777  -3.357  0.00  0.00    -0.174 OA
ATOM      8  O   UNL     1      -6.979   0.702  -5.636  0.00  0.00    -0.174 OA
ATOM      9  C   UNL     1      -4.386   0.194  -5.330  0.00  0.00    +0.182 C 
ATOM     10  C   UNL     1      -4.033  -1.291  -5.442  0.00  0.00    +0.097 C 
ATOM     11  S   UNL     1      -2.445  -1.541  -4.530  0.00  0.00    -0.086 S 
ENDROOT
BRANCH   3  12
ATOM     12  C   UNL     1      -5.090  -3.404  -2.447  0.00  0.00    +0.039 A 
ATOM     13  C   UNL     1      -5.334  -4.726  -2.797  0.00  0.00    +0.027 A 
ATOM     14  C   UNL     1      -6.033  -5.551  -1.938  0.00  0.00    +0.051 A 
ATOM     15  C   UNL     1      -6.492  -5.064  -0.725  0.00  0.00    +0.166 A 
ATOM     16  C   UNL     1      -6.250  -3.739  -0.371  0.00  0.00    +0.168 A 
ATOM     17  C   UNL     1      -5.544  -2.913  -1.231  0.00  0.00    +0.073 A 
ATOM     18  O   UNL     1      -6.799  -3.507   0.857  0.00  0.00    -0.453 OA
ATOM     19  C   UNL     1      -7.731  -4.583   1.070  0.00  0.00    +0.466 C 
ATOM     20  O   UNL     1      -7.194  -5.662   0.283  0.00  0.00    -0.453 OA
ENDBRANCH   3  12
BRANCH   1  21
ATOM     21  C   UNL     1      -1.348  -1.586  -1.629  0.00  0.00    +0.243 C 
ATOM     22  O   UNL     1      -0.742  -1.160  -2.592  0.00  0.00    -0.273 OA
BRANCH  21  23
ATOM     23  C   UNL     1      -0.710  -1.555  -0.264  0.00  0.00    +0.133 C 
BRANCH  23  29
ATOM     24  C   UNL     1       0.838   0.411  -0.222  0.00  0.00    +0.007 A 
ATOM     25  C   UNL     1       2.100   0.965  -0.316  0.00  0.00    +0.038 A 
ATOM     26  C   UNL     1       3.196   0.152  -0.554  0.00  0.00    +0.123 A 
ATOM     27  C   UNL     1       3.024  -1.214  -0.699  0.00  0.00    +0.038 A 
ATOM     28  C   UNL     1       1.760  -1.765  -0.604  0.00  0.00    +0.007 A 
ATOM     29  C   UNL     1       0.667  -0.953  -0.366  0.00  0.00    -0.038 A 
ATOM     30  F   UNL     1       4.431   0.692  -0.647  0.00  0.00    -0.205 F 
ENDBRANCH  23  29
ENDBRANCH  21  23
ENDBRANCH   1  21
TORSDOF 4
