REMARK  Name = ZINC13362213
REMARK  7 active torsions:
REMARK  status: ('A' for Active; 'I' for Inactive)
REMARK    1  A    between atoms: C_1  and  C_2
REMARK    2  A    between atoms: C_17  and  C_38
REMARK    3  A    between atoms: C_25  and  C_27
REMARK    4  A    between atoms: C_25  and  C_28
REMARK    5  A    between atoms: C_29  and  C_31
REMARK    6  A    between atoms: C_31  and  S_32
REMARK    7  A    between atoms: S_32  and  C_33
REMARK                            x       y       z     vdW  Elec       q    Type
REMARK                         _______ _______ _______ _____ _____    ______ ____
ROOT
ATOM      1  C   UNL     1      -0.019   1.527   0.010  0.00  0.00    +0.012 C 
ATOM      2  C   UNL     1       0.002  -0.004   0.002  0.00  0.00    -0.026 C 
ATOM      3  C   UNL     1      -1.442  -0.518   0.014  0.00  0.00    +0.007 C 
ATOM      4  C   UNL     1      -2.151  -0.099   1.300  0.00  0.00    +0.001 C 
ATOM      5  C   UNL     1      -1.397  -0.642   2.515  0.00  0.00    +0.000 C 
ATOM      6  C   UNL     1       0.036  -0.106   2.512  0.00  0.00    +0.004 C 
ATOM      7  C   UNL     1       0.734  -0.544   1.227  0.00  0.00    -0.005 C 
ATOM      8  C   UNL     1       2.189  -0.085   1.230  0.00  0.00    +0.004 C 
ATOM      9  C   UNL     1       2.883  -0.617  -0.029  0.00  0.00    +0.004 C 
ATOM     10  C   UNL     1       2.176  -0.103  -1.277  0.00  0.00    -0.004 C 
ATOM     11  C   UNL     1       0.701  -0.485  -1.272  0.00  0.00    -0.001 C 
ATOM     12  C   UNL     1       0.586  -2.006  -1.395  0.00  0.00    +0.005 C 
ATOM     13  C   UNL     1       1.111  -2.408  -2.771  0.00  0.00    +0.010 C 
ATOM     14  C   UNL     1       2.547  -1.998  -2.984  0.00  0.00    +0.002 C 
ATOM     15  C   UNL     1       2.869  -0.562  -2.550  0.00  0.00    +0.001 C 
ATOM     16  C   UNL     1       4.404  -0.605  -2.301  0.00  0.00    +0.007 C 
ATOM     17  C   UNL     1       4.651  -2.013  -1.706  0.00  0.00    +0.037 C 
ATOM     18  C   UNL     1       3.571  -2.911  -2.323  0.00  0.00    +0.093 C 
ATOM     19  C   UNL     1       2.957  -3.846  -1.273  0.00  0.00    +0.146 C 
ATOM     20  N   UNL     1       3.926  -4.971  -1.255  0.00  0.00    -0.270 N 
ATOM     21  C   UNL     1       4.464  -5.032  -2.624  0.00  0.00    +0.133 C 
ATOM     22  O   UNL     1       4.154  -3.799  -3.293  0.00  0.00    -0.348 OA
ATOM     23  C   UNL     1       5.979  -5.237  -2.576  0.00  0.00    +0.063 C 
ATOM     24  C   UNL     1       3.816  -6.200  -3.375  0.00  0.00    +0.063 C 
ATOM     25  C   UNL     1       4.241  -5.759  -0.213  0.00  0.00    +0.228 C 
ATOM     26  O   UNL     1       5.057  -6.646  -0.347  0.00  0.00    -0.275 OA
ATOM     27  C   UNL     1       2.804  -2.076  -4.506  0.00  0.00    +0.014 C 
ENDROOT
BRANCH  25  28
ATOM     28  C   UNL     1       3.579  -5.541   1.124  0.00  0.00    +0.173 C 
BRANCH  28  29
ATOM     29  S   UNL     1       4.209  -6.755   2.316  0.00  0.00    -0.083 S 
BRANCH  29  30
ATOM     30  C   UNL     1       3.351  -6.373   3.807  0.00  0.00    +0.128 C 
ATOM     31  N   UNL     1       2.465  -5.393   3.891  0.00  0.00    -0.366 N 
ATOM     32  C   UNL     1       1.933  -5.337   5.262  0.00  0.00    +0.133 C 
ATOM     33  C   UNL     1       2.679  -6.478   5.983  0.00  0.00    +0.124 C 
ATOM     34  N   UNL     1       3.537  -7.046   4.932  0.00  0.00    -0.324 N 
ATOM     35  H   UNL     1       4.144  -7.793   5.045  0.00  0.00    +0.148 HD
ATOM     36  H   UNL     1       2.206  -4.805   3.164  0.00  0.00    +0.161 HD
ENDBRANCH  29  30
ENDBRANCH  28  29
ENDBRANCH  25  28
TORSDOF 3
