REMARK  Name = ZINC28710160
REMARK  14 active torsions:
REMARK  status: ('A' for Active; 'I' for Inactive)
REMARK    1  A    between atoms: C_1  and  C_2
REMARK    2  A    between atoms: C_4  and  C_39
REMARK    3  A    between atoms: C_5  and  S_9
REMARK    4  A    between atoms: C_6  and  C_8
REMARK    5  A    between atoms: S_9  and  N_12
REMARK    6  A    between atoms: N_12  and  C_13
REMARK    7  A    between atoms: C_13  and  C_15
REMARK    8  A    between atoms: C_13  and  C_36
REMARK    9  A    between atoms: C_15  and  N_16
REMARK   10  A    between atoms: C_17  and  C_19
REMARK   11  A    between atoms: C_19  and  O_20
REMARK   12  A    between atoms: O_20  and  C_21
REMARK   13  A    between atoms: C_24  and  C_28
REMARK   14  A    between atoms: C_28  and  N_29
REMARK                            x       y       z     vdW  Elec       q    Type
REMARK                         _______ _______ _______ _____ _____    ______ ____
ROOT
ATOM      1  N   UNL     1      -0.468  -0.235   0.647  0.00  0.00    -0.311 N 
ATOM      2  C   UNL     1      -1.748   0.162   0.789  0.00  0.00    +0.239 C 
ATOM      3  O   UNL     1      -1.997   1.240   1.286  0.00  0.00    -0.273 OA
ATOM      4  H   UNL     1      -0.243  -1.215   0.200  0.00  0.00    +0.149 HD
ENDROOT
BRANCH   1   5
ATOM      5  C   UNL     1       0.623   0.638   1.087  0.00  0.00    +0.136 C 
BRANCH   5   6
ATOM      6  C   UNL     1       1.964  -0.042   0.808  0.00  0.00    +0.206 C 
BRANCH   6   7
ATOM      7  C   UNL     1       3.081   0.799   1.371  0.00  0.00    +0.376 C 
ATOM      8  O   UNL     1       3.816   0.341   2.214  0.00  0.00    -0.244 OA
ATOM      9  O   UNL     1       3.258   2.057   0.937  0.00  0.00    -0.244 OA
ENDBRANCH   6   7
BRANCH   6  10
ATOM     10  N   UNL     1       1.983  -1.364   1.440  0.00  0.00    -0.174 NA
ATOM     11  H   UNL     1       1.657  -1.479   2.484  0.00  0.00    +0.149 HD
BRANCH  10  12
ATOM     12  S   UNL     1       2.719  -2.636   0.677  0.00  0.00    +0.060 S 
ATOM     13  O   UNL     1       2.583  -3.759   1.537  0.00  0.00    -0.153 OA
ATOM     14  O   UNL     1       2.241  -2.639  -0.661  0.00  0.00    -0.153 OA
BRANCH  12  19
ATOM     15  C   UNL     1       8.614  -1.380   0.401  0.00  0.00    +0.044 C 
ATOM     16  C   UNL     1       7.142  -1.695   0.469  0.00  0.00    -0.050 A 
ATOM     17  C   UNL     1       6.605  -2.244   1.619  0.00  0.00    +0.008 A 
ATOM     18  C   UNL     1       5.255  -2.532   1.682  0.00  0.00    -0.024 A 
ATOM     19  C   UNL     1       4.441  -2.270   0.596  0.00  0.00    +0.111 A 
ATOM     20  C   UNL     1       4.978  -1.725  -0.555  0.00  0.00    -0.024 A 
ATOM     21  C   UNL     1       6.328  -1.433  -0.617  0.00  0.00    +0.008 A 
ATOM     22  C   UNL     1       4.092  -1.445  -1.741  0.00  0.00    +0.046 C 
ATOM     23  C   UNL     1       4.670  -3.131   2.935  0.00  0.00    +0.046 C 
ENDBRANCH  12  19
ENDBRANCH  10  12
ENDBRANCH   6  10
ENDBRANCH   5   6
ENDBRANCH   1   5
BRANCH   2  24
ATOM     24  C   UNL     1      -2.870  -0.734   0.330  0.00  0.00    +0.255 C 
BRANCH  24  25
ATOM     25  O   UNL     1      -4.123  -0.096   0.586  0.00  0.00    -0.369 OA
BRANCH  25  26
ATOM     26  C   UNL     1      -5.259  -0.866   0.186  0.00  0.00    +0.100 C 
ATOM     27  C   UNL     1      -6.430   0.059  -0.220  0.00  0.00    +0.015 C 
ATOM     28  C   UNL     1      -7.693  -0.622   0.342  0.00  0.00    -0.052 C 
ATOM     29  N   UNL     1      -7.256  -1.873   0.998  0.00  0.00    +0.384 N 
ATOM     30  C   UNL     1      -5.839  -1.653   1.388  0.00  0.00    -0.050 C 
ATOM     31  H   UNL     1      -7.886  -2.065   1.879  0.00  0.00    -0.085 HD
ATOM     32  H   UNL     1      -7.349  -2.710   0.291  0.00  0.00    -0.085 HD
BRANCH  28  33
ATOM     33  C   UNL     1      -8.663  -0.942  -0.797  0.00  0.00    +0.087 C 
BRANCH  33  34
ATOM     34  N   UNL     1      -9.804  -1.694  -0.269  0.00  0.00    -0.332 N 
ATOM     35  C   UNL     1     -10.823  -2.099  -1.123  0.00  0.00    +0.096 A 
ATOM     36  C   UNL     1     -10.754  -1.788  -2.477  0.00  0.00    +0.041 A 
ATOM     37  C   UNL     1     -11.775  -2.197  -3.315  0.00  0.00    +0.005 A 
ATOM     38  C   UNL     1     -12.836  -2.908  -2.768  0.00  0.00    +0.018 A 
ATOM     39  C   UNL     1     -12.841  -3.182  -1.416  0.00  0.00    +0.084 A 
ATOM     40  N   UNL     1     -11.849  -2.784  -0.641  0.00  0.00    -0.350 N 
ATOM     41  H   UNL     1      -9.854  -1.938   0.802  0.00  0.00    +0.147 HD
ATOM     42  H   UNL     1     -11.890  -3.033   0.430  0.00  0.00    +0.166 HD
ENDBRANCH  33  34
ENDBRANCH  28  33
ENDBRANCH  25  26
ENDBRANCH  24  25
ENDBRANCH   2  24
TORSDOF 11
