REMARK  Name = ZINC39685990
REMARK  7 active torsions:
REMARK  status: ('A' for Active; 'I' for Inactive)
REMARK    1  A    between atoms: C_1  and  C_2
REMARK    2  A    between atoms: C_2  and  C_3
REMARK    3  A    between atoms: C_2  and  C_4
REMARK    4  A    between atoms: C_9  and  N_12
REMARK    5  A    between atoms: C_13  and  C_15
REMARK    6  A    between atoms: C_26  and  C_28
REMARK    7  A    between atoms: C_30  and  C_35
REMARK                            x       y       z     vdW  Elec       q    Type
REMARK                         _______ _______ _______ _____ _____    ______ ____
ROOT
ATOM      1  C   UNL     1       5.707   2.941  -4.969  0.00  0.00    +0.100 C 
ATOM      2  C   UNL     1       4.873   3.800  -5.945  0.00  0.00    +0.121 C 
ATOM      3  N   UNL     1       5.801   4.110  -7.058  0.00  0.00    -0.296 N 
ATOM      4  C   UNL     1       6.565   2.856  -7.260  0.00  0.00    +0.115 C 
ATOM      5  C   UNL     1       6.816   2.322  -5.836  0.00  0.00    -0.004 C 
ATOM      6  C   UNL     1       6.714   0.800  -5.818  0.00  0.00    -0.010 C 
ATOM      7  C   UNL     1       7.862   0.206  -6.639  0.00  0.00    -0.082 C 
ATOM      8  N   UNL     1       9.146   0.637  -6.073  0.00  0.00    +0.379 N 
ATOM      9  C   UNL     1       9.275   2.096  -6.180  0.00  0.00    -0.082 C 
ATOM     10  C   UNL     1       8.187   2.769  -5.339  0.00  0.00    -0.010 C 
ATOM     11  C   UNL     1       5.922   5.270  -7.733  0.00  0.00    +0.247 C 
ATOM     12  O   UNL     1       5.308   6.253  -7.368  0.00  0.00    -0.270 OA
ATOM     13  H   UNL     1       9.191   0.367  -5.102  0.00  0.00    -0.086 HD
ATOM     14  H   UNL     1       9.900   0.196  -6.578  0.00  0.00    -0.086 HD
ENDROOT
BRANCH  11  15
ATOM     15  C   UNL     1       6.804   5.347  -8.918  0.00  0.00    +0.040 A 
ATOM     16  C   UNL     1       7.281   6.583  -9.357  0.00  0.00    +0.025 A 
ATOM     17  C   UNL     1       8.104   6.649 -10.462  0.00  0.00    +0.058 A 
ATOM     18  C   UNL     1       8.457   5.494 -11.136  0.00  0.00    +0.050 A 
ATOM     19  C   UNL     1       7.987   4.263 -10.707  0.00  0.00    +0.125 A 
ATOM     20  C   UNL     1       7.167   4.183  -9.597  0.00  0.00    +0.051 A 
ATOM     21  F   UNL     1       8.335   3.139 -11.370  0.00  0.00    -0.205 F 
BRANCH  17  22
ATOM     22  C   UNL     1       8.618   7.983 -10.937  0.00  0.00    +0.418 C 
ATOM     23  F   UNL     1       9.835   8.266 -10.306  0.00  0.00    -0.166 F 
ATOM     24  F   UNL     1       8.811   7.943 -12.322  0.00  0.00    -0.166 F 
ATOM     25  F   UNL     1       7.688   8.980 -10.625  0.00  0.00    -0.166 F 
ENDBRANCH  17  22
ENDBRANCH  11  15
BRANCH   1  27
ATOM     26  N   UNL     1       5.124   1.403  -3.121  0.00  0.00    -0.312 N 
ATOM     27  C   UNL     1       4.853   1.859  -4.360  0.00  0.00    +0.218 C 
ATOM     28  O   UNL     1       3.920   1.399  -4.984  0.00  0.00    -0.275 OA
ATOM     29  H   UNL     1       5.870   1.771  -2.621  0.00  0.00    +0.149 HD
BRANCH  26  35
ATOM     30  C   UNL     1       2.600  -1.166   0.892  0.00  0.00    +0.218 C 
ATOM     31  O   UNL     1       1.528  -0.747   1.276  0.00  0.00    -0.275 OA
ATOM     32  N   UNL     1       2.994  -0.947  -0.378  0.00  0.00    -0.301 N 
ATOM     33  C   UNL     1       4.245  -1.528  -0.885  0.00  0.00    +0.109 C 
ATOM     34  C   UNL     1       5.105  -0.408  -1.477  0.00  0.00    +0.041 C 
ATOM     35  C   UNL     1       4.293   0.352  -2.529  0.00  0.00    +0.076 C 
ATOM     36  C   UNL     1       3.065   0.983  -1.870  0.00  0.00    +0.041 C 
ATOM     37  C   UNL     1       2.179  -0.127  -1.284  0.00  0.00    +0.109 C 
BRANCH  30  39
ATOM     38  C   UNL     1       4.547  -0.991   2.418  0.00  0.00    +0.017 C 
ATOM     39  C   UNL     1       3.491  -1.933   1.836  0.00  0.00    +0.069 C 
ATOM     40  C   UNL     1       2.648  -2.518   2.971  0.00  0.00    +0.017 C 
ENDBRANCH  30  39
ENDBRANCH  26  35
ENDBRANCH   1  27
TORSDOF 5
