REMARK  Name = ZINC06902396
REMARK  4 active torsions:
REMARK  status: ('A' for Active; 'I' for Inactive)
REMARK    1  A    between atoms: C_1  and  C_2
REMARK    2  A    between atoms: C_3  and  C_21
REMARK    3  A    between atoms: N_9  and  N_12
REMARK    4  A    between atoms: C_13  and  C_14
REMARK                            x       y       z     vdW  Elec       q    Type
REMARK                         _______ _______ _______ _____ _____    ______ ____
ROOT
ATOM      1  C   UNL     1      -1.039   6.192   0.022  0.00  0.00    +0.045 C 
ATOM      2  C   UNL     1       0.147   5.262   0.013  0.00  0.00    -0.026 A 
ATOM      3  C   UNL     1       1.396   5.753   0.004  0.00  0.00    -0.008 A 
ATOM      4  S   UNL     1       2.416   4.291  -0.003  0.00  0.00    -0.073 S 
ATOM      5  C   UNL     1       1.135   3.063   0.006  0.00  0.00    +0.116 A 
ATOM      6  C   UNL     1      -0.049   3.824   0.014  0.00  0.00    +0.077 A 
ATOM      7  C   UNL     1      -1.268   3.072   0.023  0.00  0.00    +0.283 A 
ATOM      8  O   UNL     1      -2.346   3.642   0.030  0.00  0.00    -0.265 OA
ATOM      9  N   UNL     1      -1.206   1.728   0.016  0.00  0.00    -0.185 N 
ATOM     10  C   UNL     1      -0.013   1.076   0.013  0.00  0.00    +0.227 A 
ATOM     11  N   UNL     1       1.117   1.734   0.006  0.00  0.00    -0.228 NA
ATOM     12  C   UNL     1       1.832   7.196   0.001  0.00  0.00    +0.052 C 
ENDROOT
BRANCH   9  13
ATOM     13  N   UNL     1      -2.394   0.986   0.018  0.00  0.00    -0.170 NA
ATOM     14  C   UNL     1      -2.351  -0.308  -0.087  0.00  0.00    +0.141 C 
BRANCH  14  15
ATOM     15  C   UNL     1      -3.602  -1.080  -0.197  0.00  0.00    -0.005 A 
ATOM     16  C   UNL     1      -4.835  -0.423  -0.182  0.00  0.00    +0.012 A 
ATOM     17  C   UNL     1      -6.002  -1.150  -0.291  0.00  0.00    +0.039 A 
ATOM     18  C   UNL     1      -5.953  -2.531  -0.403  0.00  0.00    +0.123 A 
ATOM     19  C   UNL     1      -4.733  -3.189  -0.413  0.00  0.00    +0.039 A 
ATOM     20  C   UNL     1      -3.559  -2.472  -0.311  0.00  0.00    +0.012 A 
ATOM     21  F   UNL     1      -7.099  -3.239  -0.504  0.00  0.00    -0.205 F 
ENDBRANCH  14  15
ENDBRANCH   9  13
TORSDOF 2
