REMARK  Name = ZINC39727103
REMARK  3 active torsions:
REMARK  status: ('A' for Active; 'I' for Inactive)
REMARK    1  A    between atoms: C_6  and  C_7
REMARK    2  A    between atoms: N_12  and  C_13
REMARK    3  A    between atoms: C_13  and  C_14
REMARK                            x       y       z     vdW  Elec       q    Type
REMARK                         _______ _______ _______ _____ _____    ______ ____
ROOT
ATOM      1  C   UNL     1      -1.173  -0.583  -0.037  0.00  0.00    -0.037 C 
ATOM      2  C   UNL     1      -1.757  -0.669   1.395  0.00  0.00    -0.013 C 
ATOM      3  C   UNL     1      -3.231  -1.062   1.110  0.00  0.00    -0.020 C 
ATOM      4  C   UNL     1      -3.549  -0.297  -0.192  0.00  0.00    -0.077 C 
ATOM      5  N   UNL     1      -2.263  -0.012  -0.858  0.00  0.00    +0.390 N 
ATOM      6  H   UNL     1      -2.137   0.986  -0.941  0.00  0.00    -0.080 HD
ENDROOT
BRANCH   1  12
ATOM      7  C   UNL     1      -0.138   1.694  -0.034  0.00  0.00    +0.006 A 
ATOM      8  C   UNL     1       0.963   2.532  -0.054  0.00  0.00    +0.049 A 
ATOM      9  C   UNL     1       2.236   1.991  -0.101  0.00  0.00    +0.162 A 
ATOM     10  C   UNL     1       2.406   0.613  -0.127  0.00  0.00    +0.162 A 
ATOM     11  C   UNL     1       1.302  -0.222  -0.106  0.00  0.00    +0.051 A 
ATOM     12  C   UNL     1       0.031   0.322  -0.060  0.00  0.00    -0.057 A 
ATOM     13  O   UNL     1       3.665   0.090  -0.172  0.00  0.00    -0.488 OA
ATOM     14  C   UNL     1       4.390   0.308  -1.384  0.00  0.00    +0.232 C 
ATOM     15  C   UNL     1       5.075   1.665  -1.367  0.00  0.00    +0.082 C 
ATOM     16  C   UNL     1       4.081   2.816  -1.336  0.00  0.00    +0.232 C 
ATOM     17  O   UNL     1       3.331   2.805  -0.120  0.00  0.00    -0.488 OA
ENDBRANCH   1  12
BRANCH   5  18
ATOM     18  C   UNL     1      -2.248  -0.624  -2.193  0.00  0.00    +0.020 C 
BRANCH  18  19
ATOM     19  C   UNL     1      -3.279   0.047  -3.064  0.00  0.00    +0.201 C 
ATOM     20  O   UNL     1      -3.959   0.947  -2.616  0.00  0.00    -0.278 OA
ATOM     21  N   UNL     1      -3.446  -0.352  -4.341  0.00  0.00    -0.286 N 
ATOM     22  C   UNL     1      -3.340   0.521  -5.324  0.00  0.00    +0.050 C 
ATOM     23  C   UNL     1      -2.905   1.905  -5.040  0.00  0.00    +0.054 C 
ATOM     24  C   UNL     1      -2.799   2.795  -6.059  0.00  0.00    +0.097 C 
ATOM     25  N   UNL     1      -2.439   4.108  -6.151  0.00  0.00    -0.190 NA
ATOM     26  C   UNL     1      -2.519   4.466  -7.412  0.00  0.00    +0.369 C 
ATOM     27  O   UNL     1      -2.232   5.707  -7.871  0.00  0.00    -0.243 OA
ATOM     28  N   UNL     1      -2.922   3.446  -8.189  0.00  0.00    -0.190 NA
ATOM     29  C   UNL     1      -3.118   2.378  -7.439  0.00  0.00    +0.096 C 
ATOM     30  C   UNL     1      -3.549   1.004  -7.711  0.00  0.00    +0.047 C 
ATOM     31  C   UNL     1      -3.649   0.116  -6.702  0.00  0.00    +0.041 C 
ATOM     32 BR   UNL     1      -4.198  -1.657  -7.062  0.00  0.00    -0.048 Br
ATOM     33  H   UNL     1      -3.643  -1.281  -4.537  0.00  0.00    +0.155 HD
ENDBRANCH  18  19
ENDBRANCH   5  18
TORSDOF 3
