REMARK  Name = ZINC59941833
REMARK  8 active torsions:
REMARK  status: ('A' for Active; 'I' for Inactive)
REMARK    1  A    between atoms: C_1  and  C_2
REMARK    2  A    between atoms: C_5  and  S_21
REMARK    3  A    between atoms: C_7  and  N_8
REMARK    4  A    between atoms: C_9  and  C_11
REMARK    5  A    between atoms: C_11  and  S_12
REMARK    6  A    between atoms: S_12  and  C_13
REMARK    7  A    between atoms: C_17  and  N_19
REMARK    8  A    between atoms: S_21  and  N_24
REMARK                            x       y       z     vdW  Elec       q    Type
REMARK                         _______ _______ _______ _____ _____    ______ ____
ROOT
ATOM      1  N   UNL     1       0.025  -0.015   2.417  0.00  0.00    -0.285 N 
ATOM      2  C   UNL     1      -0.056  -0.694   3.578  0.00  0.00    +0.227 C 
ATOM      3  O   UNL     1      -0.040  -1.907   3.573  0.00  0.00    -0.275 OA
ATOM      4  H   UNL     1       0.078   0.954   2.425  0.00  0.00    +0.155 HD
ENDROOT
BRANCH   1  11
ATOM      5  C   UNL     1      -1.264   1.184   0.181  0.00  0.00    +0.045 C 
ATOM      6  C   UNL     1      -0.584  -0.158   0.084  0.00  0.00    -0.029 A 
ATOM      7  C   UNL     1      -0.568  -0.840  -1.117  0.00  0.00    +0.007 A 
ATOM      8  C   UNL     1       0.055  -2.071  -1.206  0.00  0.00    +0.029 A 
ATOM      9  C   UNL     1       0.666  -2.622  -0.095  0.00  0.00    +0.107 A 
ATOM     10  C   UNL     1       0.655  -1.945   1.108  0.00  0.00    +0.052 A 
ATOM     11  C   UNL     1       0.034  -0.706   1.201  0.00  0.00    +0.038 A 
BRANCH   9  12
ATOM     12  S   UNL     1       1.460  -4.191  -0.214  0.00  0.00    +0.056 S 
ATOM     13  O   UNL     1       1.482  -4.736   1.098  0.00  0.00    -0.153 OA
ATOM     14  O   UNL     1       0.858  -4.868  -1.310  0.00  0.00    -0.153 OA
BRANCH  12  15
ATOM     15  N   UNL     1       3.036  -3.912  -0.638  0.00  0.00    -0.204 NA
ATOM     16  H   UNL     1       3.349  -3.003  -0.769  0.00  0.00    +0.144 HD
ATOM     17  H   UNL     1       3.646  -4.657  -0.755  0.00  0.00    +0.144 HD
ENDBRANCH  12  15
ENDBRANCH   9  12
ENDBRANCH   1  11
BRANCH   2  18
ATOM     18  C   UNL     1      -0.168   0.052   4.882  0.00  0.00    +0.173 C 
BRANCH  18  19
ATOM     19  S   UNL     1      -0.259  -1.133   6.252  0.00  0.00    -0.077 S 
BRANCH  19  20
ATOM     20  C   UNL     1      -0.384  -0.118   7.687  0.00  0.00    +0.192 A 
ATOM     21  N   UNL     1      -0.396   1.199   7.546  0.00  0.00    -0.207 NA
ATOM     22  C   UNL     1      -0.489   1.997   8.607  0.00  0.00    +0.122 A 
ATOM     23  C   UNL     1      -0.576   1.430   9.876  0.00  0.00    +0.086 A 
ATOM     24  C   UNL     1      -0.560   0.043   9.984  0.00  0.00    +0.122 A 
ATOM     25  N   UNL     1      -0.469  -0.692   8.878  0.00  0.00    -0.207 NA
ATOM     26  N   UNL     1      -0.501   3.375   8.451  0.00  0.00    -0.343 N 
ATOM     27  H   UNL     1      -0.440   3.763   7.565  0.00  0.00    +0.144 HD
ATOM     28  H   UNL     1      -0.569   3.950   9.229  0.00  0.00    +0.144 HD
BRANCH  24  29
ATOM     29  N   UNL     1      -0.643  -0.566  11.227  0.00  0.00    -0.343 N 
ATOM     30  H   UNL     1      -0.713  -0.024  12.028  0.00  0.00    +0.144 HD
ATOM     31  H   UNL     1      -0.632  -1.533  11.295  0.00  0.00    +0.144 HD
ENDBRANCH  24  29
ENDBRANCH  19  20
ENDBRANCH  18  19
ENDBRANCH   2  18
TORSDOF 7
