REMARK  Name = ZINC03669168
REMARK  4 active torsions:
REMARK  status: ('A' for Active; 'I' for Inactive)
REMARK    1  A    between atoms: C_8  and  C_12
REMARK    2  A    between atoms: N_17  and  N_18
REMARK    3  A    between atoms: N_18  and  S_19
REMARK    4  A    between atoms: S_19  and  C_22
REMARK                            x       y       z     vdW  Elec       q    Type
REMARK                         _______ _______ _______ _____ _____    ______ ____
ROOT
ATOM      1  C   UNL     1       2.620  -4.182   0.289  0.00  0.00    +0.257 C 
ATOM      2  O   UNL     1       1.637  -4.881   0.132  0.00  0.00    -0.270 OA
ATOM      3  N   UNL     1       3.825  -4.750   0.493  0.00  0.00    -0.259 N 
ATOM      4  C   UNL     1       3.945  -6.135   0.525  0.00  0.00    +0.190 C 
ATOM      5  S   UNL     1       2.520  -7.148   0.297  0.00  0.00    -0.012 SA
ATOM      6  N   UNL     1       5.106  -6.683   0.721  0.00  0.00    -0.143 NA
ATOM      7  H   UNL     1       4.609  -4.193   0.619  0.00  0.00    +0.157 HD
ENDROOT
BRANCH   1  15
ATOM      8  C   UNL     1      -0.016   1.361   0.009  0.00  0.00    +0.001 A 
ATOM      9  C   UNL     1       1.169   2.083   0.002  0.00  0.00    +0.004 A 
ATOM     10  C   UNL     1       2.386   1.435  -0.025  0.00  0.00    +0.047 A 
ATOM     11  C   UNL     1       2.430   0.048  -0.039  0.00  0.00    +0.139 A 
ATOM     12  C   UNL     1       1.229  -0.684  -0.003  0.00  0.00    +0.018 A 
ATOM     13  C   UNL     1       0.002  -0.004   0.002  0.00  0.00    +0.011 A 
ATOM     14  C   UNL     1       1.266  -2.102   0.048  0.00  0.00    +0.031 A 
ATOM     15  C   UNL     1       2.494  -2.716   0.256  0.00  0.00    +0.122 A 
ATOM     16  C   UNL     1       3.666  -1.841   0.443  0.00  0.00    +0.350 A 
ATOM     17  O   UNL     1       4.643  -2.222   1.061  0.00  0.00    -0.244 OA
ATOM     18  O   UNL     1       3.619  -0.600  -0.095  0.00  0.00    -0.422 OA
ENDBRANCH   1  15
BRANCH   6  19
ATOM     19  N   UNL     1       6.239  -5.878   0.902  0.00  0.00    -0.134 N 
ATOM     20  H   UNL     1       6.155  -4.912   0.880  0.00  0.00    +0.197 HD
BRANCH  19  21
ATOM     21  S   UNL     1       7.719  -6.576   1.153  0.00  0.00    +0.087 S 
ATOM     22  O   UNL     1       8.671  -5.521   1.154  0.00  0.00    -0.149 OA
ATOM     23  O   UNL     1       7.568  -7.466   2.250  0.00  0.00    -0.149 OA
BRANCH  21  24
ATOM     24  C   UNL     1       8.072  -7.571  -0.258  0.00  0.00    +0.110 A 
ATOM     25  C   UNL     1       7.675  -8.895  -0.287  0.00  0.00    +0.030 A 
ATOM     26  C   UNL     1       7.952  -9.675  -1.393  0.00  0.00    +0.022 A 
ATOM     27  C   UNL     1       8.626  -9.132  -2.472  0.00  0.00    +0.041 A 
ATOM     28  C   UNL     1       9.023  -7.807  -2.443  0.00  0.00    +0.022 A 
ATOM     29  C   UNL     1       8.741  -7.025  -1.338  0.00  0.00    +0.030 A 
ATOM     30 CL   UNL     1       8.974 -10.112  -3.862  0.00  0.00    -0.084 Cl
ENDBRANCH  21  24
ENDBRANCH  19  21
ENDBRANCH   6  19
TORSDOF 4
