REMARK  Name = ZINC65182233
REMARK  10 active torsions:
REMARK  status: ('A' for Active; 'I' for Inactive)
REMARK    1  A    between atoms: C_1  and  C_2
REMARK    2  A    between atoms: C_7  and  C_12
REMARK    3  A    between atoms: C_15  and  C_18
REMARK    4  A    between atoms: C_18  and  C_19
REMARK    5  A    between atoms: C_19  and  N_20
REMARK    6  A    between atoms: N_20  and  C_21
REMARK    7  A    between atoms: C_22  and  C_24
REMARK    8  A    between atoms: C_24  and  C_25
REMARK    9  A    between atoms: C_28  and  O_32
REMARK   10  A    between atoms: O_32  and  C_33
REMARK                            x       y       z     vdW  Elec       q    Type
REMARK                         _______ _______ _______ _____ _____    ______ ____
ROOT
ATOM      1  C   UNL     1      -1.175  -5.213   1.858  0.00  0.00    +0.318 C 
ATOM      2  N   UNL     1      -1.169  -6.523   1.189  0.00  0.00    -0.291 N 
ATOM      3  C   UNL     1      -1.143  -7.476   2.180  0.00  0.00    +0.139 C 
ATOM      4  N   UNL     1      -1.132  -6.942   3.347  0.00  0.00    -0.072 NA
ATOM      5  O   UNL     1      -1.152  -5.527   3.260  0.00  0.00    -0.367 OA
ATOM      6  H   UNL     1      -1.182  -6.684   0.232  0.00  0.00    +0.151 HD
ENDROOT
BRANCH   1  13
ATOM      7  C   UNL     1      -0.018   1.503   0.010  0.00  0.00    +0.044 C 
ATOM      8  C   UNL     1       0.002  -0.004   0.002  0.00  0.00    -0.050 A 
ATOM      9  C   UNL     1       0.005  -0.680  -1.226  0.00  0.00    +0.005 A 
ATOM     10  C   UNL     1       0.023  -2.026  -1.317  0.00  0.00    +0.026 A 
ATOM     11  C   UNL     1       0.039  -2.826  -0.141  0.00  0.00    +0.043 A 
ATOM     12  N   UNL     1       0.057  -4.126   0.030  0.00  0.00    -0.373 N 
ATOM     13  C   UNL     1       0.067  -4.408   1.470  0.00  0.00    +0.165 C 
ATOM     14  C   UNL     1       0.052  -3.060   2.156  0.00  0.00    +0.012 C 
ATOM     15  C   UNL     1       0.036  -2.137   1.168  0.00  0.00    -0.004 A 
ATOM     16  C   UNL     1       0.022  -0.669   1.180  0.00  0.00    +0.013 A 
ATOM     17  H   UNL     1       0.062  -4.790  -0.677  0.00  0.00    +0.160 HD
ENDBRANCH   1  13
BRANCH   3  18
ATOM     18  C   UNL     1      -1.129  -8.962   1.927  0.00  0.00    +0.094 C 
BRANCH  18  19
ATOM     19  C   UNL     1      -1.100  -9.706   3.264  0.00  0.00    +0.115 C 
BRANCH  19  20
ATOM     20  N   UNL     1      -1.086 -11.150   3.018  0.00  0.00    -0.304 N 
ATOM     21  C   UNL     1       0.189 -11.857   2.876  0.00  0.00    +0.132 C 
ATOM     22  C   UNL     1      -2.247 -11.829   2.923  0.00  0.00    +0.220 C 
ATOM     23  O   UNL     1      -3.303 -11.243   3.041  0.00  0.00    -0.275 OA
BRANCH  22  24
ATOM     24  C   UNL     1      -2.233 -13.314   2.670  0.00  0.00    +0.132 C 
BRANCH  24  25
ATOM     25  C   UNL     1      -3.649 -13.826   2.608  0.00  0.00    -0.020 A 
ATOM     26  C   UNL     1      -4.244 -14.352   3.740  0.00  0.00    +0.009 A 
ATOM     27  C   UNL     1      -5.541 -14.823   3.685  0.00  0.00    +0.046 A 
ATOM     28  C   UNL     1      -6.249 -14.767   2.493  0.00  0.00    +0.121 A 
ATOM     29  C   UNL     1      -5.652 -14.239   1.358  0.00  0.00    +0.066 A 
ATOM     30  C   UNL     1      -4.355 -13.764   1.419  0.00  0.00    +0.048 A 
ATOM     31 CL   UNL     1      -3.608 -13.096   0.001  0.00  0.00    -0.083 Cl
BRANCH  28  32
ATOM     32  O   UNL     1      -7.526 -15.230   2.437  0.00  0.00    -0.495 OA
ATOM     33  C   UNL     1      -8.194 -15.141   1.177  0.00  0.00    +0.277 C 
ENDBRANCH  28  32
ENDBRANCH  24  25
ENDBRANCH  22  24
ENDBRANCH  19  20
ENDBRANCH  18  19
ENDBRANCH   3  18
TORSDOF 7
