REMARK  Name = ZINC09805663
REMARK  5 active torsions:
REMARK  status: ('A' for Active; 'I' for Inactive)
REMARK    1  A    between atoms: C_5  and  C_7
REMARK    2  A    between atoms: C_13  and  S_15
REMARK    3  A    between atoms: S_15  and  C_16
REMARK    4  A    between atoms: C_16  and  C_17
REMARK    5  A    between atoms: N_22  and  C_25
REMARK                            x       y       z     vdW  Elec       q    Type
REMARK                         _______ _______ _______ _____ _____    ______ ____
ROOT
ATOM      1  S   UNL     1      -0.862   1.671   1.500  0.00  0.00    -0.088 S 
ENDROOT
BRANCH   1   8
ATOM      2  C   UNL     1       2.904  -0.909   6.417  0.00  0.00    +0.251 C 
ATOM      3  O   UNL     1       3.475  -1.302   5.418  0.00  0.00    -0.270 OA
ATOM      4  N   UNL     1       1.797  -0.149   6.306  0.00  0.00    -0.259 N 
ATOM      5  C   UNL     1       1.306   0.186   5.048  0.00  0.00    +0.189 A 
ATOM      6  N   UNL     1       1.762  -0.128   3.846  0.00  0.00    -0.125 NA
ATOM      7  N   UNL     1       1.191   0.263   2.792  0.00  0.00    -0.133 NA
ATOM      8  C   UNL     1       0.099   1.013   2.823  0.00  0.00    +0.160 A 
ATOM      9  S   UNL     1      -0.118   1.172   4.593  0.00  0.00    -0.024 S 
ATOM     10  H   UNL     1       1.342   0.164   7.104  0.00  0.00    +0.157 HD
BRANCH   2  15
ATOM     11  C   UNL     1       3.264  -1.151  10.147  0.00  0.00    +0.001 A 
ATOM     12  C   UNL     1       4.402  -1.931  10.258  0.00  0.00    +0.001 A 
ATOM     13  C   UNL     1       5.054  -2.381   9.125  0.00  0.00    +0.021 A 
ATOM     14  C   UNL     1       4.573  -2.052   7.872  0.00  0.00    +0.053 A 
ATOM     15  C   UNL     1       3.425  -1.265   7.753  0.00  0.00    +0.055 A 
ATOM     16  C   UNL     1       2.776  -0.811   8.903  0.00  0.00    +0.014 A 
ATOM     17 CL   UNL     1       5.393  -2.616   6.449  0.00  0.00    -0.083 Cl
ENDBRANCH   2  15
ENDBRANCH   1   8
BRANCH   1  18
ATOM     18  C   UNL     1      -0.013   1.086   0.008  0.00  0.00    +0.172 C 
BRANCH  18  19
ATOM     19  C   UNL     1      -0.742   1.585  -1.213  0.00  0.00    +0.226 C 
ATOM     20  O   UNL     1      -1.736   2.268  -1.088  0.00  0.00    -0.275 OA
ATOM     21  N   UNL     1      -0.288   1.272  -2.443  0.00  0.00    -0.298 N 
ATOM     22  C   UNL     1       0.919   0.450  -2.616  0.00  0.00    +0.126 C 
ATOM     23  C   UNL     1       0.584  -0.702  -3.577  0.00  0.00    +0.124 C 
ATOM     24  N   UNL     1       0.025  -0.150  -4.819  0.00  0.00    -0.327 N 
ATOM     25  C   UNL     1      -1.242   0.551  -4.568  0.00  0.00    +0.124 C 
ATOM     26  C   UNL     1      -0.985   1.749  -3.648  0.00  0.00    +0.126 C 
BRANCH  24  27
ATOM     27  C   UNL     1      -0.138  -1.149  -5.781  0.00  0.00    +0.031 A 
ATOM     28  C   UNL     1      -1.385  -1.366  -6.355  0.00  0.00    +0.023 A 
ATOM     29  C   UNL     1      -1.542  -2.351  -7.310  0.00  0.00    +0.003 A 
ATOM     30  C   UNL     1      -0.463  -3.128  -7.689  0.00  0.00    +0.020 A 
ATOM     31  C   UNL     1       0.779  -2.919  -7.116  0.00  0.00    +0.043 A 
ATOM     32  C   UNL     1       0.944  -1.931  -6.163  0.00  0.00    +0.043 A 
ATOM     33 CL   UNL     1       2.131  -3.897  -7.594  0.00  0.00    -0.083 Cl
ENDBRANCH  24  27
ENDBRANCH  18  19
ENDBRANCH   1  18
TORSDOF 5
