REMARK  Name = ZINC39021036
REMARK  8 active torsions:
REMARK  status: ('A' for Active; 'I' for Inactive)
REMARK    1  A    between atoms: C_4  and  C_7
REMARK    2  A    between atoms: C_12  and  N_13
REMARK    3  A    between atoms: C_14  and  C_16
REMARK    4  A    between atoms: C_16  and  S_17
REMARK    5  A    between atoms: S_17  and  C_18
REMARK    6  A    between atoms: C_22  and  C_26
REMARK    7  A    between atoms: N_24  and  N_25
REMARK    8  A    between atoms: C_29  and  C_32
REMARK                            x       y       z     vdW  Elec       q    Type
REMARK                         _______ _______ _______ _____ _____    ______ ____
ROOT
ATOM      1  C   UNL     1       1.223  -5.404   5.587  0.00  0.00    +0.214 C 
ATOM      2  N   UNL     1       0.858  -4.235   6.420  0.00  0.00    -0.228 NA
ATOM      3  N   UNL     1      -0.612  -4.274   6.484  0.00  0.00    -0.234 NA
ATOM      4  C   UNL     1      -0.996  -4.719   5.119  0.00  0.00    +0.185 C 
ATOM      5  N   UNL     1       0.041  -5.714   4.755  0.00  0.00    -0.197 NA
ATOM      6  H   UNL     1       1.262  -4.308   7.342  0.00  0.00    +0.143 HD
ATOM      7  H   UNL     1      -0.989  -3.361   6.686  0.00  0.00    +0.143 HD
ENDROOT
BRANCH   4   8
ATOM      8  C   UNL     1      -2.381  -5.369   5.137  0.00  0.00    +0.187 C 
ATOM      9  C   UNL     1      -3.442  -4.358   5.534  0.00  0.00    +0.034 C 
ATOM     10  C   UNL     1      -3.959  -4.863   6.671  0.00  0.00    +0.091 C 
ATOM     11  N   UNL     1      -3.345  -6.032   6.993  0.00  0.00    -0.154 NA
ATOM     12  N   UNL     1      -2.465  -6.384   6.200  0.00  0.00    -0.176 NA
BRANCH  10  13
ATOM     13  C   UNL     1      -5.046  -4.231   7.460  0.00  0.00    +0.002 A 
ATOM     14  C   UNL     1      -5.611  -3.031   7.035  0.00  0.00    +0.011 A 
ATOM     15  C   UNL     1      -6.621  -2.447   7.772  0.00  0.00    +0.020 A 
ATOM     16  C   UNL     1      -7.073  -3.053   8.932  0.00  0.00    +0.041 A 
ATOM     17  C   UNL     1      -6.515  -4.246   9.358  0.00  0.00    +0.020 A 
ATOM     18  C   UNL     1      -5.508  -4.840   8.625  0.00  0.00    +0.011 A 
ATOM     19 CL   UNL     1      -8.344  -2.314   9.856  0.00  0.00    -0.084 Cl
ENDBRANCH  10  13
ENDBRANCH   4   8
BRANCH   5  20
ATOM     20  N   UNL     1      -0.426  -7.069   5.000  0.00  0.00    -0.264 NA
ATOM     21  H   UNL     1       0.292  -7.744   4.785  0.00  0.00    +0.137 HD
ATOM     22  H   UNL     1      -0.749  -7.175   5.950  0.00  0.00    +0.137 HD
ENDBRANCH   5  20
BRANCH   1  23
ATOM     23  S   UNL     1       2.638  -4.995   4.529  0.00  0.00    -0.115 S 
BRANCH  23  24
ATOM     24  C   UNL     1       2.070  -3.565   3.569  0.00  0.00    +0.168 C 
BRANCH  24  26
ATOM     25  N   UNL     1       2.968  -2.064   1.819  0.00  0.00    -0.284 N 
ATOM     26  C   UNL     1       3.166  -3.118   2.636  0.00  0.00    +0.227 C 
ATOM     27  O   UNL     1       4.226  -3.707   2.621  0.00  0.00    -0.275 OA
ATOM     28  H   UNL     1       2.146  -1.553   1.877  0.00  0.00    +0.155 HD
BRANCH  25  34
ATOM     29  C   UNL     1       3.577  -1.201  -0.362  0.00  0.00    +0.003 A 
ATOM     30  C   UNL     1       4.562  -0.844  -1.280  0.00  0.00    +0.010 A 
ATOM     31  C   UNL     1       5.894  -0.997  -0.956  0.00  0.00    +0.001 A 
ATOM     32  C   UNL     1       6.258  -1.505   0.279  0.00  0.00    +0.002 A 
ATOM     33  C   UNL     1       5.291  -1.863   1.198  0.00  0.00    +0.024 A 
ATOM     34  C   UNL     1       3.948  -1.708   0.889  0.00  0.00    +0.041 A 
BRANCH  29  38
ATOM     35  C   UNL     1      -0.532  -0.735  -1.346  0.00  0.00    +0.000 A 
ATOM     36  C   UNL     1       0.345   0.317  -1.538  0.00  0.00    +0.001 A 
ATOM     37  C   UNL     1       1.681   0.171  -1.220  0.00  0.00    +0.008 A 
ATOM     38  C   UNL     1       2.144  -1.038  -0.705  0.00  0.00    -0.016 A 
ATOM     39  C   UNL     1       1.255  -2.095  -0.514  0.00  0.00    +0.008 A 
ATOM     40  C   UNL     1      -0.078  -1.938  -0.836  0.00  0.00    +0.001 A 
ENDBRANCH  29  38
ENDBRANCH  25  34
ENDBRANCH  24  26
ENDBRANCH  23  24
ENDBRANCH   1  23
TORSDOF 8
