REMARK  Name = ZINC01891439
REMARK  4 active torsions:
REMARK  status: ('A' for Active; 'I' for Inactive)
REMARK    1  A    between atoms: C_5  and  C_7
REMARK    2  A    between atoms: N_9  and  C_10
REMARK    3  A    between atoms: C_10  and  C_29
REMARK    4  A    between atoms: N_16  and  C_21
REMARK                            x       y       z     vdW  Elec       q    Type
REMARK                         _______ _______ _______ _____ _____    ______ ____
ROOT
ATOM      1  C   UNL     1       0.093  -5.632  -0.866  0.00  0.00    +0.240 C 
ATOM      2  C   UNL     1      -1.289  -5.467  -0.280  0.00  0.00    +0.097 A 
ATOM      3  C   UNL     1      -2.420  -4.746  -0.682  0.00  0.00    +0.262 A 
ATOM      4  N   UNL     1      -3.539  -4.796   0.071  0.00  0.00    -0.274 N 
ATOM      5  C   UNL     1      -3.562  -5.534   1.197  0.00  0.00    +0.335 A 
ATOM      6  O   UNL     1      -4.578  -5.569   1.864  0.00  0.00    -0.246 OA
ATOM      7  N   UNL     1      -2.487  -6.232   1.599  0.00  0.00    -0.249 N 
ATOM      8  C   UNL     1      -1.320  -6.211   0.862  0.00  0.00    +0.125 A 
ATOM      9  N   UNL     1      -0.115  -6.836   1.074  0.00  0.00    -0.269 N 
ATOM     10  C   UNL     1       0.785  -6.559   0.113  0.00  0.00    +0.256 C 
ATOM     11  O   UNL     1       1.923  -6.970   0.044  0.00  0.00    -0.272 OA
ATOM     12  O   UNL     1      -2.395  -4.079  -1.702  0.00  0.00    -0.267 OA
ATOM     13  H   UNL     1       0.068  -7.412   1.833  0.00  0.00    +0.156 HD
ATOM     14  H   UNL     1      -4.327  -4.300  -0.199  0.00  0.00    +0.173 HD
ENDROOT
BRANCH   7  15
ATOM     15  C   UNL     1      -2.550  -6.989   2.778  0.00  0.00    +0.053 A 
ATOM     16  C   UNL     1      -2.961  -8.314   2.732  0.00  0.00    +0.029 A 
ATOM     17  C   UNL     1      -3.023  -9.057   3.894  0.00  0.00    +0.040 A 
ATOM     18  C   UNL     1      -2.676  -8.482   5.105  0.00  0.00    +0.124 A 
ATOM     19  C   UNL     1      -2.268  -7.159   5.153  0.00  0.00    +0.040 A 
ATOM     20  C   UNL     1      -2.198  -6.415   3.992  0.00  0.00    +0.029 A 
ATOM     21  F   UNL     1      -2.738  -9.210   6.241  0.00  0.00    -0.205 F 
ENDBRANCH   7  15
BRANCH   1  24
ATOM     22  C   UNL     1       2.067  -4.284  -1.341  0.00  0.00    +0.248 C 
ATOM     23  O   UNL     1       2.651  -5.302  -1.657  0.00  0.00    -0.270 OA
ATOM     24  N   UNL     1       0.784  -4.342  -0.931  0.00  0.00    -0.287 N 
ATOM     25  H   UNL     1       0.318  -3.529  -0.678  0.00  0.00    +0.151 HD
BRANCH  22  30
ATOM     26  C   UNL     1       2.751  -0.600  -1.107  0.00  0.00    +0.001 A 
ATOM     27  C   UNL     1       4.069  -0.542  -1.528  0.00  0.00    +0.003 A 
ATOM     28  C   UNL     1       4.738  -1.696  -1.889  0.00  0.00    +0.039 A 
ATOM     29  C   UNL     1       4.094  -2.919  -1.830  0.00  0.00    +0.135 A 
ATOM     30  C   UNL     1       2.763  -2.983  -1.406  0.00  0.00    +0.072 A 
ATOM     31  C   UNL     1       2.096  -1.811  -1.044  0.00  0.00    +0.016 A 
ATOM     32  F   UNL     1       4.748  -4.047  -2.183  0.00  0.00    -0.205 F 
ENDBRANCH  22  30
ENDBRANCH   1  24
BRANCH   1  33
ATOM     33  C   UNL     1       0.021  -6.272  -2.254  0.00  0.00    +0.424 C 
ATOM     34  F   UNL     1       1.315  -6.460  -2.750  0.00  0.00    -0.167 F 
ATOM     35  F   UNL     1      -0.628  -7.508  -2.164  0.00  0.00    -0.167 F 
ATOM     36  F   UNL     1      -0.692  -5.433  -3.118  0.00  0.00    -0.167 F 
ENDBRANCH   1  33
TORSDOF 4
