REMARK  Name = ZINC40891567
REMARK  9 active torsions:
REMARK  status: ('A' for Active; 'I' for Inactive)
REMARK    1  A    between atoms: C_1  and  C_2
REMARK    2  A    between atoms: C_2  and  S_3
REMARK    3  A    between atoms: S_3  and  C_4
REMARK    4  A    between atoms: C_7  and  N_20
REMARK    5  A    between atoms: C_8  and  C_10
REMARK    6  A    between atoms: C_21  and  C_23
REMARK    7  A    between atoms: C_26  and  C_29
REMARK    8  A    between atoms: N_31  and  C_32
REMARK    9  A    between atoms: N_31  and  C_33
REMARK                            x       y       z     vdW  Elec       q    Type
REMARK                         _______ _______ _______ _____ _____    ______ ____
ROOT
ATOM      1  C   UNL     1      -1.004  -2.413  -1.979  0.00  0.00    +0.009 A 
ATOM      2  C   UNL     1       0.169  -2.990  -1.500  0.00  0.00    +0.016 A 
ATOM      3  C   UNL     1       0.252  -4.355  -1.323  0.00  0.00    +0.025 A 
ATOM      4  C   UNL     1      -0.836  -5.165  -1.620  0.00  0.00    +0.046 A 
ATOM      5  C   UNL     1      -2.022  -4.591  -2.102  0.00  0.00    +0.059 A 
ATOM      6  C   UNL     1      -2.100  -3.207  -2.274  0.00  0.00    +0.029 A 
ENDROOT
BRANCH   5   7
ATOM      7  C   UNL     1      -3.182  -5.444  -2.421  0.00  0.00    +0.251 C 
ATOM      8  O   UNL     1      -3.148  -6.634  -2.171  0.00  0.00    -0.270 OA
ATOM      9  N   UNL     1      -4.279  -4.905  -2.987  0.00  0.00    -0.266 N 
ATOM     10  C   UNL     1      -5.414  -5.688  -3.191  0.00  0.00    +0.125 A 
ATOM     11  C   UNL     1      -6.577  -5.101  -3.678  0.00  0.00    +0.045 A 
ATOM     12  C   UNL     1      -7.697  -5.890  -3.876  0.00  0.00    +0.025 A 
ATOM     13  C   UNL     1      -7.614  -7.244  -3.579  0.00  0.00    +0.059 A 
ATOM     14  C   UNL     1      -6.426  -7.760  -3.099  0.00  0.00    +0.132 A 
ATOM     15  N   UNL     1      -5.373  -6.984  -2.925  0.00  0.00    -0.239 NA
ATOM     16 CL   UNL     1      -8.990  -8.278  -3.809  0.00  0.00    -0.082 Cl
ATOM     17  H   UNL     1      -4.279  -3.973  -3.253  0.00  0.00    +0.157 HD
ENDBRANCH   5   7
BRANCH   4  18
ATOM     18  N   UNL     1      -0.750  -6.545  -1.440  0.00  0.00    -0.281 N 
ATOM     19  C   UNL     1       0.117  -7.054  -0.543  0.00  0.00    +0.248 C 
ATOM     20  O   UNL     1       0.753  -6.311   0.178  0.00  0.00    -0.270 OA
ATOM     21  H   UNL     1      -1.314  -7.138  -1.961  0.00  0.00    +0.155 HD
BRANCH  19  22
ATOM     22  C   UNL     1       0.294  -8.519  -0.436  0.00  0.00    +0.037 A 
ATOM     23  C   UNL     1      -0.432  -9.373  -1.268  0.00  0.00    +0.014 A 
ATOM     24  C   UNL     1      -0.267 -10.737  -1.168  0.00  0.00    +0.012 A 
ATOM     25  C   UNL     1       0.626 -11.265  -0.235  0.00  0.00    +0.013 A 
ATOM     26  C   UNL     1       1.352 -10.412   0.597  0.00  0.00    +0.012 A 
ATOM     27  C   UNL     1       1.192  -9.047   0.493  0.00  0.00    +0.014 A 
BRANCH  25  28
ATOM     28  C   UNL     1       0.803 -12.732  -0.127  0.00  0.00    +0.099 C 
ATOM     29  N   UNL     1       1.986 -13.231   0.087  0.00  0.00    -0.386 N 
ATOM     30  N   UNL     1      -0.285 -13.568  -0.253  0.00  0.00    -0.323 N 
ATOM     31  C   UNL     1      -1.633 -13.005  -0.362  0.00  0.00    +0.130 C 
ATOM     32  C   UNL     1      -0.093 -15.020  -0.278  0.00  0.00    +0.130 C 
ATOM     33  H   UNL     1       2.102 -14.191   0.158  0.00  0.00    +0.157 HD
ATOM     34  H   UNL     1       2.752 -12.642   0.176  0.00  0.00    +0.157 HD
ENDBRANCH  25  28
ENDBRANCH  19  22
ENDBRANCH   4  18
BRANCH   1  35
ATOM     35  S   UNL     1      -1.099  -0.668  -2.202  0.00  0.00    -0.125 S 
BRANCH  35  37
ATOM     36  C   UNL     1       0.595   1.450  -1.842  0.00  0.00    +0.015 C 
ATOM     37  C   UNL     1       0.538  -0.072  -1.696  0.00  0.00    +0.071 C 
ENDBRANCH  35  37
ENDBRANCH   1  35
TORSDOF 6
