REMARK  Name = ZINC00707061
REMARK  10 active torsions:
REMARK  status: ('A' for Active; 'I' for Inactive)
REMARK    1  A    between atoms: C_1  and  C_2
REMARK    2  A    between atoms: C_2  and  O_3
REMARK    3  A    between atoms: O_3  and  C_4
REMARK    4  A    between atoms: C_4  and  C_6
REMARK    5  A    between atoms: C_7  and  C_22
REMARK    6  A    between atoms: C_10  and  N_11
REMARK    7  A    between atoms: C_12  and  C_14
REMARK    8  A    between atoms: C_14  and  N_49
REMARK    9  A    between atoms: C_15  and  C_16
REMARK   10  A    between atoms: C_15  and  N_49
REMARK                            x       y       z     vdW  Elec       q    Type
REMARK                         _______ _______ _______ _____ _____    ______ ____
ROOT
ATOM      1  C   UNL     1      -1.248  -2.095   0.003  0.00  0.00    +0.095 A 
ATOM      2  C   UNL     1      -1.290  -2.848  -1.236  0.00  0.00    +0.005 A 
ATOM      3  C   UNL     1      -1.340  -4.200  -1.127  0.00  0.00    +0.056 A 
ATOM      4  S   UNL     1      -1.333  -4.469   0.633  0.00  0.00    -0.080 S 
ATOM      5  C   UNL     1      -1.259  -2.829   1.181  0.00  0.00    +0.086 A 
ENDROOT
BRANCH   2   6
ATOM      6  C   UNL     1      -1.277  -2.175  -2.557  0.00  0.00    -0.016 A 
ATOM      7  C   UNL     1      -2.169  -1.136  -2.820  0.00  0.00    +0.011 A 
ATOM      8  C   UNL     1      -2.151  -0.509  -4.049  0.00  0.00    +0.039 A 
ATOM      9  C   UNL     1      -1.255  -0.918  -5.024  0.00  0.00    +0.123 A 
ATOM     10  C   UNL     1      -0.371  -1.953  -4.769  0.00  0.00    +0.039 A 
ATOM     11  C   UNL     1      -0.378  -2.583  -3.541  0.00  0.00    +0.011 A 
ATOM     12  F   UNL     1      -1.245  -0.305  -6.229  0.00  0.00    -0.205 F 
ENDBRANCH   2   6
BRANCH   5  13
ATOM     13  N   UNL     1      -1.222  -2.360   2.485  0.00  0.00    -0.281 N 
ATOM     14  C   UNL     1      -1.241  -3.230   3.514  0.00  0.00    +0.201 C 
ATOM     15  O   UNL     1      -1.290  -4.423   3.300  0.00  0.00    -0.278 OA
ATOM     16  H   UNL     1      -1.183  -1.407   2.656  0.00  0.00    +0.155 HD
BRANCH  14  17
ATOM     17  C   UNL     1      -1.201  -2.720   4.932  0.00  0.00    +0.016 C 
BRANCH  17  18
ATOM     18  N   UNL     1      -1.231  -3.868   5.859  0.00  0.00    +0.387 N 
ATOM     19  H   UNL     1      -0.418  -4.468   5.681  0.00  0.00    -0.085 HD
ATOM     20  H   UNL     1      -2.093  -4.404   5.706  0.00  0.00    -0.085 HD
BRANCH  18  21
ATOM     21  C   UNL     1      -1.193  -3.398   7.257  0.00  0.00    -0.046 C 
BRANCH  21  22
ATOM     22  C   UNL     1      -1.225  -4.589   8.179  0.00  0.00    -0.064 A 
ATOM     23  C   UNL     1      -2.436  -5.086   8.624  0.00  0.00    +0.002 A 
ATOM     24  C   UNL     1      -2.466  -6.181   9.467  0.00  0.00    +0.000 A 
ATOM     25  C   UNL     1      -1.284  -6.774   9.872  0.00  0.00    +0.000 A 
ATOM     26  C   UNL     1      -0.073  -6.273   9.432  0.00  0.00    +0.000 A 
ATOM     27  C   UNL     1      -0.044  -5.181   8.585  0.00  0.00    +0.002 A 
ENDBRANCH  21  22
ENDBRANCH  18  21
ENDBRANCH  17  18
ENDBRANCH  14  17
ENDBRANCH   5  13
BRANCH   1  28
ATOM     28  C   UNL     1      -1.191  -0.633   0.010  0.00  0.00    +0.342 C 
ATOM     29  O   UNL     1      -2.220   0.016   0.023  0.00  0.00    -0.245 OA
BRANCH  28  30
ATOM     30  O   UNL     1       0.002  -0.004   0.002  0.00  0.00    -0.461 OA
BRANCH  30  32
ATOM     31  C   UNL     1       1.418   1.977  -0.001  0.00  0.00    +0.048 C 
ATOM     32  C   UNL     1      -0.018   1.448   0.010  0.00  0.00    +0.229 C 
ENDBRANCH  30  32
ENDBRANCH  28  30
ENDBRANCH   1  28
TORSDOF 9
