REMARK  Name = ZINC02412049
REMARK  2 active torsions:
REMARK  status: ('A' for Active; 'I' for Inactive)
REMARK    1  A    between atoms: C_6  and  C_7
REMARK    2  A    between atoms: C_19  and  C_21
REMARK                            x       y       z     vdW  Elec       q    Type
REMARK                         _______ _______ _______ _____ _____    ______ ____
ROOT
ATOM      1  C   UNL     1      -1.293  -0.775   0.011  0.00  0.00    +0.140 C 
ATOM      2  C   UNL     1      -1.587  -1.278   1.429  0.00  0.00    +0.127 C 
ATOM      3  C   UNL     1      -0.739  -2.476   1.756  0.00  0.00    +0.241 C 
ATOM      4  O   UNL     1      -0.364  -2.637   2.902  0.00  0.00    -0.274 OA
ATOM      5  N   UNL     1      -0.387  -3.362   0.833  0.00  0.00    -0.148 NA
ATOM      6  C   UNL     1      -0.741  -3.147  -0.434  0.00  0.00    +0.222 C 
ATOM      7  N   UNL     1      -1.181  -1.940  -0.870  0.00  0.00    -0.184 N 
ATOM      8  N   UNL     1      -1.472  -2.059  -2.225  0.00  0.00    -0.143 NA
ATOM      9  C   UNL     1      -1.194  -3.281  -2.593  0.00  0.00    +0.229 C 
ATOM     10  N   UNL     1      -0.724  -3.978  -1.499  0.00  0.00    -0.149 NA
ATOM     11  N   UNL     1      -1.347  -3.795  -3.875  0.00  0.00    -0.251 N 
ATOM     12  C   UNL     1      -1.024  -5.078  -4.130  0.00  0.00    +0.250 C 
ATOM     13  O   UNL     1      -0.599  -5.786  -3.238  0.00  0.00    -0.270 OA
ATOM     14  H   UNL     1      -1.686  -3.229  -4.586  0.00  0.00    +0.158 HD
ENDROOT
BRANCH   1  20
ATOM     15  C   UNL     1      -0.017   1.378   0.010  0.00  0.00    +0.007 A 
ATOM     16  C   UNL     1       1.171   2.086   0.002  0.00  0.00    +0.020 A 
ATOM     17  C   UNL     1       2.378   1.410  -0.013  0.00  0.00    +0.041 A 
ATOM     18  C   UNL     1       2.396   0.027  -0.021  0.00  0.00    +0.020 A 
ATOM     19  C   UNL     1       1.208  -0.679  -0.013  0.00  0.00    +0.007 A 
ATOM     20  C   UNL     1       0.002  -0.004   0.002  0.00  0.00    -0.025 A 
ATOM     21 CL   UNL     1       3.870   2.298  -0.023  0.00  0.00    -0.084 Cl
ENDBRANCH   1  20
BRANCH  12  22
ATOM     22  C   UNL     1      -1.187  -5.624  -5.493  0.00  0.00    +0.037 A 
ATOM     23  C   UNL     1      -1.669  -4.811  -6.520  0.00  0.00    +0.014 A 
ATOM     24  C   UNL     1      -1.819  -5.327  -7.790  0.00  0.00    +0.021 A 
ATOM     25  C   UNL     1      -1.492  -6.648  -8.048  0.00  0.00    +0.041 A 
ATOM     26  C   UNL     1      -1.013  -7.459  -7.032  0.00  0.00    +0.021 A 
ATOM     27  C   UNL     1      -0.853  -6.953  -5.760  0.00  0.00    +0.014 A 
ATOM     28 CL   UNL     1      -1.684  -7.290  -9.649  0.00  0.00    -0.084 Cl
ENDBRANCH  12  22
TORSDOF 2
