REMARK  Name = ZINC21324745
REMARK  7 active torsions:
REMARK  status: ('A' for Active; 'I' for Inactive)
REMARK    1  A    between atoms: C_1  and  C_2
REMARK    2  A    between atoms: C_2  and  C_4
REMARK    3  A    between atoms: C_2  and  N_17
REMARK    4  A    between atoms: N_6  and  C_7
REMARK    5  A    between atoms: C_10  and  S_13
REMARK    6  A    between atoms: S_13  and  N_16
REMARK    7  A    between atoms: C_26  and  C_29
REMARK                            x       y       z     vdW  Elec       q    Type
REMARK                         _______ _______ _______ _____ _____    ______ ____
ROOT
ATOM      1  C   UNL     1      -4.705   2.360   8.473  0.00  0.00    -0.004 C 
ATOM      2  C   UNL     1      -5.466   3.504   7.800  0.00  0.00    +0.017 C 
ENDROOT
BRANCH   2   3
ATOM      3  N   UNL     1      -5.332   3.389   6.341  0.00  0.00    +0.389 N 
ATOM      4  C   UNL     1      -5.875   4.577   5.668  0.00  0.00    -0.059 C 
ATOM      5  C   UNL     1      -5.790   4.384   4.152  0.00  0.00    +0.088 C 
ATOM      6  N   UNL     1      -4.389   4.157   3.768  0.00  0.00    -0.319 N 
ATOM      7  C   UNL     1      -3.847   2.969   4.441  0.00  0.00    +0.088 C 
ATOM      8  C   UNL     1      -3.932   3.163   5.957  0.00  0.00    -0.059 C 
ATOM      9  C   UNL     1      -4.263   4.048   2.388  0.00  0.00    +0.121 A 
ATOM     10  C   UNL     1      -3.009   3.831   1.825  0.00  0.00    +0.044 A 
ATOM     11  C   UNL     1      -2.897   3.725   0.451  0.00  0.00    +0.017 A 
ATOM     12  C   UNL     1      -4.048   3.840  -0.318  0.00  0.00    +0.073 A 
ATOM     13  C   UNL     1      -5.259   4.060   0.306  0.00  0.00    +0.125 A 
ATOM     14  N   UNL     1      -5.337   4.152   1.620  0.00  0.00    -0.240 NA
ATOM     15  H   UNL     1      -5.919   2.517   6.017  0.00  0.00    -0.081 HD
BRANCH  12  16
ATOM     16  C   UNL     1      -3.974   3.731  -1.820  0.00  0.00    +0.419 C 
ATOM     17  F   UNL     1      -4.138   2.394  -2.199  0.00  0.00    -0.166 F 
ATOM     18  F   UNL     1      -2.728   4.191  -2.260  0.00  0.00    -0.166 F 
ATOM     19  F   UNL     1      -4.987   4.506  -2.394  0.00  0.00    -0.166 F 
ENDBRANCH  12  16
ENDBRANCH   2   3
BRANCH   2  20
ATOM     20  C   UNL     1      -4.896   4.823   8.254  0.00  0.00    +0.203 C 
ATOM     21  O   UNL     1      -4.022   5.360   7.608  0.00  0.00    -0.277 OA
ATOM     22  N   UNL     1      -5.357   5.405   9.379  0.00  0.00    -0.287 N 
ATOM     23  H   UNL     1      -6.079   4.874  10.017  0.00  0.00    +0.155 HD
BRANCH  22  24
ATOM     24  C   UNL     1      -4.918   6.685   9.735  0.00  0.00    +0.033 A 
ATOM     25  C   UNL     1      -3.611   7.072   9.468  0.00  0.00    +0.025 A 
ATOM     26  C   UNL     1      -3.183   8.337   9.816  0.00  0.00    +0.030 A 
ATOM     27  C   UNL     1      -4.050   9.216  10.439  0.00  0.00    +0.105 A 
ATOM     28  C   UNL     1      -5.350   8.832  10.711  0.00  0.00    +0.030 A 
ATOM     29  C   UNL     1      -5.787   7.569  10.361  0.00  0.00    +0.025 A 
BRANCH  27  30
ATOM     30  S   UNL     1      -3.497  10.828  10.887  0.00  0.00    +0.056 S 
ATOM     31  O   UNL     1      -2.402  11.133  10.034  0.00  0.00    -0.153 OA
ATOM     32  O   UNL     1      -4.655  11.648  10.964  0.00  0.00    -0.153 OA
BRANCH  30  33
ATOM     33  N   UNL     1      -2.886  10.727  12.423  0.00  0.00    -0.204 NA
ATOM     34  H   UNL     1      -2.528  11.717  12.741  0.00  0.00    +0.144 HD
ATOM     35  H   UNL     1      -2.049  10.012  12.438  0.00  0.00    +0.144 HD
ENDBRANCH  30  33
ENDBRANCH  27  30
ENDBRANCH  22  24
ENDBRANCH   2  20
TORSDOF 6
