REMARK  Name = ZINC45124473
REMARK  2 active torsions:
REMARK  status: ('A' for Active; 'I' for Inactive)
REMARK    1  A    between atoms: C_8  and  N_13
REMARK    2  A    between atoms: C_24  and  C_28
REMARK                            x       y       z     vdW  Elec       q    Type
REMARK                         _______ _______ _______ _____ _____    ______ ____
ROOT
ATOM      1  N   UNL     1       2.444  -3.048  -1.180  0.00  0.00    -0.292 N 
ATOM      2  C   UNL     1       2.855  -3.107   0.102  0.00  0.00    +0.303 C 
ATOM      3  O   UNL     1       3.478  -2.182   0.584  0.00  0.00    -0.253 OA
ATOM      4  N   UNL     1       2.574  -4.193   0.850  0.00  0.00    -0.283 N 
ATOM      5  C   UNL     1       2.912  -4.223   2.280  0.00  0.00    +0.128 C 
ATOM      6  C   UNL     1       1.641  -4.540   3.078  0.00  0.00    +0.125 C 
ATOM      7  N   UNL     1       0.991  -5.714   2.478  0.00  0.00    -0.312 N 
ATOM      8  C   UNL     1       0.653  -5.684   1.048  0.00  0.00    +0.125 C 
ATOM      9  C   UNL     1       1.919  -5.364   0.252  0.00  0.00    +0.128 C 
ATOM     10  C   UNL     1       0.702  -6.834   3.250  0.00  0.00    +0.123 A 
ATOM     11  C   UNL     1       0.833  -6.769   4.633  0.00  0.00    +0.062 A 
ATOM     12  C   UNL     1       0.538  -7.902   5.393  0.00  0.00    +0.056 A 
ATOM     13  C   UNL     1       0.121  -9.060   4.723  0.00  0.00    +0.038 A 
ATOM     14  C   UNL     1       0.018  -9.040   3.348  0.00  0.00    +0.114 A 
ATOM     15  N   UNL     1       0.300  -7.949   2.661  0.00  0.00    -0.240 NA
ATOM     16  H   UNL     1       2.002  -3.812  -1.584  0.00  0.00    +0.151 HD
ENDROOT
BRANCH   1  24
ATOM     17  C   UNL     1       6.690  -2.002  -3.428  0.00  0.00    +0.039 A 
ATOM     18  C   UNL     1       5.717  -1.431  -4.220  0.00  0.00    +0.018 A 
ATOM     19  C   UNL     1       4.393  -1.371  -3.786  0.00  0.00    +0.013 A 
ATOM     20  C   UNL     1       4.045  -1.880  -2.549  0.00  0.00    -0.011 A 
ATOM     21  C   UNL     1       5.034  -2.466  -1.762  0.00  0.00    +0.045 A 
ATOM     22  C   UNL     1       6.343  -2.526  -2.194  0.00  0.00    +0.124 A 
ATOM     23  F   UNL     1       7.286  -3.097  -1.413  0.00  0.00    -0.205 F 
ATOM     24  C   UNL     1       2.664  -1.831  -1.965  0.00  0.00    +0.107 C 
ATOM     25  C   UNL     1       1.564  -1.722  -3.006  0.00  0.00    +0.038 C 
ATOM     26  C   UNL     1       1.749  -0.419  -3.797  0.00  0.00    +0.076 C 
ATOM     27  S   UNL     1       3.202  -0.643  -4.866  0.00  0.00    -0.125 S 
ENDBRANCH   1  24
BRANCH  12  28
ATOM     28  C   UNL     1       0.658  -7.881   6.820  0.00  0.00    +0.099 C 
ATOM     29  N   UNL     1       0.754  -7.865   7.952  0.00  0.00    -0.191 NA
ENDBRANCH  12  28
TORSDOF 2
