REMARK  Name = ZINC02788970
REMARK  3 active torsions:
REMARK  status: ('A' for Active; 'I' for Inactive)
REMARK    1  A    between atoms: N_9  and  N_13
REMARK    2  A    between atoms: C_10  and  S_12
REMARK    3  A    between atoms: C_14  and  C_16
REMARK                            x       y       z     vdW  Elec       q    Type
REMARK                         _______ _______ _______ _____ _____    ______ ____
ROOT
ATOM      1  C   UNL     1       2.381   1.422  -0.013  0.00  0.00    +0.001 A 
ATOM      2  C   UNL     1       1.161   2.086   0.002  0.00  0.00    +0.002 A 
ATOM      3  C   UNL     1      -0.017   1.394   0.010  0.00  0.00    +0.028 A 
ATOM      4  C   UNL     1       0.002  -0.004   0.002  0.00  0.00    +0.079 A 
ATOM      5  C   UNL     1       1.245  -0.677  -0.013  0.00  0.00    +0.066 A 
ATOM      6  C   UNL     1       2.432   0.055  -0.021  0.00  0.00    +0.015 A 
ATOM      7  C   UNL     1       1.239  -2.146  -0.021  0.00  0.00    +0.280 A 
ATOM      8  O   UNL     1       2.277  -2.782  -0.035  0.00  0.00    -0.265 OA
ATOM      9  N   UNL     1       0.036  -2.766  -0.012  0.00  0.00    -0.199 N 
ATOM     10  C   UNL     1      -1.119  -2.036   0.002  0.00  0.00    +0.187 A 
ATOM     11  N   UNL     1      -1.136  -0.726   0.009  0.00  0.00    -0.222 NA
ENDROOT
BRANCH   9  12
ATOM     12  N   UNL     1      -0.025  -4.165  -0.019  0.00  0.00    -0.214 N 
ATOM     13  C   UNL     1      -0.346  -4.831   1.109  0.00  0.00    +0.269 C 
ATOM     14  O   UNL     1      -0.582  -4.216   2.132  0.00  0.00    -0.268 OA
ATOM     15  H   UNL     1       0.163  -4.655  -0.834  0.00  0.00    +0.176 HD
BRANCH  13  16
ATOM     16  C   UNL     1      -0.410  -6.295   1.102  0.00  0.00    +0.078 A 
ATOM     17  C   UNL     1      -0.711  -7.161   2.142  0.00  0.00    +0.037 A 
ATOM     18  C   UNL     1      -0.704  -8.504   1.859  0.00  0.00    +0.040 A 
ATOM     19  C   UNL     1      -0.397  -8.915   0.599  0.00  0.00    +0.070 A 
ATOM     20  S   UNL     1      -0.114  -7.427  -0.245  0.00  0.00    -0.076 S 
ATOM     21 BR   UNL     1      -0.304 -10.681  -0.071  0.00  0.00    -0.041 Br
ATOM     22 BR   UNL     1      -1.107  -9.768   3.206  0.00  0.00    -0.049 Br
ENDBRANCH  13  16
ENDBRANCH   9  12
BRANCH  10  23
ATOM     23  S   UNL     1      -2.656  -2.897   0.013  0.00  0.00    -0.104 S 
ATOM     24  H   UNL     1      -3.548  -1.805   0.026  0.00  0.00    +0.110 HD
ENDBRANCH  10  23
TORSDOF 3
