REMARK  Name = ZINC15835964
REMARK  3 active torsions:
REMARK  status: ('A' for Active; 'I' for Inactive)
REMARK    1  A    between atoms: C_3  and  O_30
REMARK    2  A    between atoms: C_6  and  C_7
REMARK    3  A    between atoms: N_8  and  N_9
REMARK                            x       y       z     vdW  Elec       q    Type
REMARK                         _______ _______ _______ _____ _____    ______ ____
ROOT
ATOM      1  N   UNL     1       0.479   3.953  -3.209  0.00  0.00    -0.127 N 
ATOM      2  C   UNL     1       1.172   3.250  -2.245  0.00  0.00    +0.246 C 
ATOM      3  O   UNL     1       2.368   3.201  -2.068  0.00  0.00    -0.273 OA
ATOM      4  C   UNL     1       0.108   2.577  -1.491  0.00  0.00    +0.097 C 
ATOM      5  C   UNL     1       0.048   1.778  -0.247  0.00  0.00    +0.027 C 
ATOM      6  C   UNL     1      -1.194   0.912  -0.613  0.00  0.00    -0.026 C 
ATOM      7  C   UNL     1      -2.269   1.651  -0.845  0.00  0.00    -0.026 C 
ATOM      8  C   UNL     1      -2.189   3.183  -0.779  0.00  0.00    +0.027 C 
ATOM      9  C   UNL     1      -0.967   3.683  -1.505  0.00  0.00    +0.097 C 
ATOM     10  C   UNL     1      -0.870   4.019  -2.955  0.00  0.00    +0.246 C 
ATOM     11  O   UNL     1      -1.770   4.284  -3.714  0.00  0.00    -0.273 OA
ATOM     12  C   UNL     1      -1.733   3.365   0.711  0.00  0.00    +0.001 C 
ATOM     13  C   UNL     1      -0.456   2.535   0.997  0.00  0.00    +0.001 C 
ATOM     14  C   UNL     1      -0.438   4.054   1.049  0.00  0.00    +0.009 C 
ENDROOT
BRANCH   1  16
ATOM     15  C   UNL     1       0.997   5.761  -4.595  0.00  0.00    +0.139 C 
ATOM     16  N   UNL     1       1.086   4.490  -4.350  0.00  0.00    -0.178 NA
BRANCH  15  22
ATOM     17  C   UNL     1       0.538   6.245  -2.197  0.00  0.00    +0.013 A 
ATOM     18  C   UNL     1       0.190   7.122  -1.193  0.00  0.00    +0.047 A 
ATOM     19  C   UNL     1      -0.090   8.448  -1.492  0.00  0.00    +0.131 A 
ATOM     20  C   UNL     1      -0.015   8.900  -2.805  0.00  0.00    +0.060 A 
ATOM     21  C   UNL     1       0.338   8.031  -3.815  0.00  0.00    +0.028 A 
ATOM     22  C   UNL     1       0.620   6.694  -3.518  0.00  0.00    -0.004 A 
ATOM     23 BR   UNL     1      -0.397  10.708  -3.206  0.00  0.00    -0.047 Br
BRANCH  19  24
ATOM     24  O   UNL     1      -0.438   9.308  -0.500  0.00  0.00    -0.506 OA
ATOM     25  H   UNL     1      -1.389   9.351  -0.332  0.00  0.00    +0.292 HD
ENDBRANCH  19  24
ENDBRANCH  15  22
ENDBRANCH   1  16
TORSDOF 3
