REMARK  Name = ZINC30554801
REMARK  7 active torsions:
REMARK  status: ('A' for Active; 'I' for Inactive)
REMARK    1  A    between atoms: C_1  and  C_2
REMARK    2  A    between atoms: C_5  and  N_9
REMARK    3  A    between atoms: N_9  and  N_10
REMARK    4  A    between atoms: C_11  and  C_13
REMARK    5  A    between atoms: C_13  and  C_14
REMARK    6  A    between atoms: C_14  and  C_15
REMARK    7  A    between atoms: C_18  and  C_20
REMARK                            x       y       z     vdW  Elec       q    Type
REMARK                         _______ _______ _______ _____ _____    ______ ____
ROOT
ATOM      1  C   UNL     1       0.109  -6.985   2.479  0.00  0.00    +0.106 C 
ENDROOT
BRANCH   1   3
ATOM      2  N   UNL     1       0.074  -4.876   1.187  0.00  0.00    -0.236 N 
ATOM      3  C   UNL     1       0.092  -6.224   1.179  0.00  0.00    +0.229 C 
ATOM      4  O   UNL     1       0.095  -6.824   0.124  0.00  0.00    -0.274 OA
ATOM      5  H   UNL     1       0.072  -4.396   2.030  0.00  0.00    +0.173 HD
BRANCH   2   6
ATOM      6  N   UNL     1       0.059  -4.168  -0.022  0.00  0.00    -0.264 N 
ATOM      7  H   UNL     1       0.060  -4.648  -0.865  0.00  0.00    +0.170 HD
BRANCH   6  12
ATOM      8  C   UNL     1      -0.018   1.503   0.010  0.00  0.00    +0.045 C 
ATOM      9  C   UNL     1       0.002  -0.004   0.002  0.00  0.00    -0.032 A 
ATOM     10  C   UNL     1       0.006  -0.688  -1.200  0.00  0.00    +0.006 A 
ATOM     11  C   UNL     1       0.025  -2.068  -1.212  0.00  0.00    +0.025 A 
ATOM     12  C   UNL     1       0.040  -2.772  -0.013  0.00  0.00    +0.046 A 
ATOM     13  C   UNL     1       0.037  -2.083   1.193  0.00  0.00    +0.044 A 
ATOM     14  C   UNL     1       0.023  -0.701   1.197  0.00  0.00    +0.046 A 
ATOM     15 CL   UNL     1       0.025   0.161   2.704  0.00  0.00    -0.083 Cl
ENDBRANCH   6  12
ENDBRANCH   2   6
ENDBRANCH   1   3
BRANCH   1  16
ATOM     16  C   UNL     1       0.127  -8.487   2.190  0.00  0.00    +0.105 C 
BRANCH  16  17
ATOM     17  C   UNL     1       0.144  -9.249   3.490  0.00  0.00    +0.197 A 
ATOM     18  N   UNL     1      -0.908  -9.650   4.146  0.00  0.00    -0.221 NA
ATOM     19  C   UNL     1      -0.511 -10.294   5.254  0.00  0.00    +0.161 A 
ATOM     20  C   UNL     1       0.847 -10.281   5.270  0.00  0.00    +0.158 A 
ATOM     21  O   UNL     1       1.244  -9.627   4.156  0.00  0.00    -0.440 OA
BRANCH  20  22
ATOM     22  C   UNL     1       1.721 -10.873   6.304  0.00  0.00    +0.054 A 
ATOM     23  C   UNL     1       2.778 -11.707   5.934  0.00  0.00    +0.017 A 
ATOM     24  C   UNL     1       3.591 -12.256   6.903  0.00  0.00    +0.039 A 
ATOM     25  C   UNL     1       3.362 -11.983   8.242  0.00  0.00    +0.126 A 
ATOM     26  C   UNL     1       2.315 -11.157   8.617  0.00  0.00    +0.077 A 
ATOM     27  C   UNL     1       1.497 -10.595   7.655  0.00  0.00    +0.137 A 
ATOM     28  F   UNL     1       0.480  -9.784   8.020  0.00  0.00    -0.205 F 
ATOM     29  F   UNL     1       4.162 -12.525   9.186  0.00  0.00    -0.205 F 
ENDBRANCH  20  22
ENDBRANCH  16  17
ENDBRANCH   1  16
TORSDOF 6
