REMARK  Name = ZINC19891559
REMARK  5 active torsions:
REMARK  status: ('A' for Active; 'I' for Inactive)
REMARK    1  A    between atoms: C_1  and  C_2
REMARK    2  A    between atoms: C_5  and  O_31
REMARK    3  A    between atoms: C_17  and  O_30
REMARK    4  A    between atoms: C_19  and  C_29
REMARK    5  A    between atoms: C_24  and  C_26
REMARK                            x       y       z     vdW  Elec       q    Type
REMARK                         _______ _______ _______ _____ _____    ______ ____
ROOT
ATOM      1  C   UNL     1      -3.940   2.089   2.143  0.00  0.00    +0.012 C 
ATOM      2  C   UNL     1      -2.642   1.376   2.524  0.00  0.00    -0.026 C 
ATOM      3  C   UNL     1      -3.009   0.117   3.313  0.00  0.00    +0.010 C 
ATOM      4  C   UNL     1      -3.804   0.489   4.562  0.00  0.00    +0.032 C 
ATOM      5  C   UNL     1      -3.071   1.500   5.436  0.00  0.00    +0.115 C 
ATOM      6  C   UNL     1      -2.649   2.735   4.630  0.00  0.00    +0.035 C 
ATOM      7  C   UNL     1      -1.817   2.275   3.445  0.00  0.00    -0.002 C 
ATOM      8  C   UNL     1      -1.228   3.418   2.630  0.00  0.00    +0.004 C 
ATOM      9  C   UNL     1      -0.070   2.820   1.823  0.00  0.00    +0.004 C 
ATOM     10  C   UNL     1      -0.388   1.420   1.342  0.00  0.00    -0.004 C 
ATOM     11  C   UNL     1      -1.858   1.044   1.269  0.00  0.00    +0.001 C 
ATOM     12  C   UNL     1      -2.555   1.450  -0.015  0.00  0.00    +0.036 C 
ATOM     13  C   UNL     1      -1.778   0.918  -1.243  0.00  0.00    +0.122 C 
ATOM     14  C   UNL     1      -0.400   1.528  -1.202  0.00  0.00    +0.010 C 
ATOM     15  C   UNL     1       0.322   1.043   0.069  0.00  0.00    +0.002 C 
ATOM     16  C   UNL     1       1.739   1.594  -0.136  0.00  0.00    +0.005 C 
ATOM     17  C   UNL     1       1.992   1.325  -1.645  0.00  0.00    +0.016 C 
ATOM     18  C   UNL     1       0.598   1.174  -2.308  0.00  0.00    +0.111 C 
ATOM     19  C   UNL     1      -0.538   3.059  -1.246  0.00  0.00    +0.015 C 
ENDROOT
BRANCH  18  20
ATOM     20  C   UNL     1       0.422  -0.211  -2.848  0.00  0.00    +0.360 C 
ATOM     21  O   UNL     1       0.925  -1.150  -2.277  0.00  0.00    -0.246 OA
ATOM     22  O   UNL     1      -0.294  -0.410  -3.966  0.00  0.00    -0.246 OA
ENDBRANCH  18  20
BRANCH  13  23
ATOM     23  O   UNL     1      -1.736  -0.508  -1.145  0.00  0.00    -0.391 OA
ATOM     24  H   UNL     1      -1.226  -1.097  -1.922  0.00  0.00    +0.210 HD
ENDBRANCH  13  23
BRANCH   5  25
ATOM     25  O   UNL     1      -1.913   0.888   6.010  0.00  0.00    -0.392 OA
ATOM     26  H   UNL     1      -1.256   1.468   6.674  0.00  0.00    +0.210 HD
ENDBRANCH   5  25
TORSDOF 3
