REMARK  Name = ZINC21918815
REMARK  3 active torsions:
REMARK  status: ('A' for Active; 'I' for Inactive)
REMARK    1  A    between atoms: C_1  and  C_2
REMARK    2  A    between atoms: C_6  and  C_8
REMARK    3  A    between atoms: N_28  and  C_29
REMARK                            x       y       z     vdW  Elec       q    Type
REMARK                         _______ _______ _______ _____ _____    ______ ____
ROOT
ATOM      1  C   UNL     1      -2.369  -4.224  -0.321  0.00  0.00    +0.155 C 
ATOM      2  C   UNL     1      -3.635  -4.515   0.435  0.00  0.00    +0.049 A 
ATOM      3  C   UNL     1      -3.815  -5.225   1.558  0.00  0.00    +0.025 A 
ATOM      4  C   UNL     1      -5.204  -5.276   1.808  0.00  0.00    +0.020 A 
ATOM      5  C   UNL     1      -5.821  -4.580   0.827  0.00  0.00    +0.092 A 
ATOM      6  N   UNL     1      -4.869  -4.089   0.000  0.00  0.00    -0.312 N 
ATOM      7  C   UNL     1      -4.953  -3.265  -1.115  0.00  0.00    +0.090 A 
ATOM      8  C   UNL     1      -4.140  -2.197  -1.338  0.00  0.00    +0.005 A 
ATOM      9  C   UNL     1      -4.329  -1.494  -2.545  0.00  0.00    -0.030 A 
ATOM     10  C   UNL     1      -5.321  -1.916  -3.373  0.00  0.00    -0.005 A 
ATOM     11  S   UNL     1      -6.014  -3.314  -2.526  0.00  0.00    -0.075 S 
ATOM     12  C   UNL     1      -5.722  -1.333  -4.688  0.00  0.00    +0.043 C 
ATOM     13  C   UNL     1      -5.075   0.055  -4.817  0.00  0.00    +0.005 C 
ATOM     14  C   UNL     1      -3.597  -0.056  -4.433  0.00  0.00    +0.005 C 
ATOM     15  C   UNL     1      -3.464  -0.297  -2.929  0.00  0.00    +0.036 C 
ATOM     16  C   UNL     1      -3.093  -1.812  -0.316  0.00  0.00    +0.148 C 
ATOM     17  N   UNL     1      -1.996  -2.792  -0.228  0.00  0.00    -0.268 N 
ATOM     18  C   UNL     1      -0.714  -2.405  -0.076  0.00  0.00    +0.308 C 
ATOM     19  O   UNL     1       0.169  -3.239  -0.007  0.00  0.00    -0.252 OA
ATOM     20  N   UNL     1      -0.410  -1.094  -0.002  0.00  0.00    -0.269 N 
ATOM     21  H   UNL     1      -1.214  -0.343   0.020  0.00  0.00    +0.156 HD
ENDROOT
BRANCH  20  22
ATOM     22  C   UNL     1       0.930  -0.687   0.049  0.00  0.00    +0.038 A 
ATOM     23  C   UNL     1       1.906  -1.426  -0.607  0.00  0.00    +0.027 A 
ATOM     24  C   UNL     1       3.227  -1.026  -0.556  0.00  0.00    +0.051 A 
ATOM     25  C   UNL     1       3.584   0.113   0.151  0.00  0.00    +0.162 A 
ATOM     26  C   UNL     1       2.609   0.856   0.806  0.00  0.00    +0.164 A 
ATOM     27  C   UNL     1       1.283   0.454   0.756  0.00  0.00    +0.072 A 
ATOM     28  O   UNL     1       2.939   1.980   1.499  0.00  0.00    -0.485 OA
ATOM     29  C   UNL     1       4.319   2.144   1.841  0.00  0.00    +0.270 C 
ATOM     30  C   UNL     1       5.162   1.836   0.596  0.00  0.00    +0.270 C 
ATOM     31  O   UNL     1       4.892   0.489   0.194  0.00  0.00    -0.485 OA
ENDBRANCH  20  22
BRANCH   1  37
ATOM     32  C   UNL     1      -4.467  -7.124  -3.819  0.00  0.00    +0.044 C 
ATOM     33  C   UNL     1      -3.565  -5.976  -3.444  0.00  0.00    -0.050 A 
ATOM     34  C   UNL     1      -2.914  -5.257  -4.429  0.00  0.00    +0.003 A 
ATOM     35  C   UNL     1      -2.088  -4.204  -4.085  0.00  0.00    +0.001 A 
ATOM     36  C   UNL     1      -1.912  -3.869  -2.756  0.00  0.00    +0.006 A 
ATOM     37  C   UNL     1      -2.562  -4.588  -1.770  0.00  0.00    -0.021 A 
ATOM     38  C   UNL     1      -3.384  -5.645  -2.114  0.00  0.00    +0.009 A 
ENDBRANCH   1  37
TORSDOF 2
