REMARK  Name = ZINC27749657
REMARK  5 active torsions:
REMARK  status: ('A' for Active; 'I' for Inactive)
REMARK    1  A    between atoms: C_3  and  N_10
REMARK    2  A    between atoms: C_6  and  C_7
REMARK    3  A    between atoms: C_11  and  C_13
REMARK    4  A    between atoms: C_13  and  C_14
REMARK    5  A    between atoms: C_14  and  N_15
REMARK                            x       y       z     vdW  Elec       q    Type
REMARK                         _______ _______ _______ _____ _____    ______ ____
ROOT
ATOM      1  N   UNL     1      -0.242   1.246   2.466  0.00  0.00    -0.285 N 
ATOM      2  C   UNL     1      -0.818   1.433   1.262  0.00  0.00    +0.219 C 
ATOM      3  O   UNL     1      -1.896   1.982   1.184  0.00  0.00    -0.275 OA
ATOM      4  H   UNL     1       0.694   0.672   2.545  0.00  0.00    +0.155 HD
ENDROOT
BRANCH   1   7
ATOM      5  C   UNL     1      -1.313   1.628   5.955  0.00  0.00    +0.015 A 
ATOM      6  C   UNL     1      -0.732   1.103   4.823  0.00  0.00    +0.024 A 
ATOM      7  C   UNL     1      -0.831   1.780   3.611  0.00  0.00    +0.033 A 
ATOM      8  C   UNL     1      -1.512   2.991   3.541  0.00  0.00    +0.024 A 
ATOM      9  C   UNL     1      -2.100   3.519   4.668  0.00  0.00    +0.015 A 
ATOM     10  C   UNL     1      -2.002   2.842   5.887  0.00  0.00    +0.037 A 
BRANCH  10  11
ATOM     11  C   UNL     1      -2.626   3.407   7.099  0.00  0.00    +0.242 C 
ATOM     12  O   UNL     1      -2.541   2.817   8.159  0.00  0.00    -0.270 OA
ATOM     13  N   UNL     1      -3.291   4.578   7.032  0.00  0.00    -0.325 N 
ATOM     14  H   UNL     1      -3.756   4.999   7.935  0.00  0.00    +0.145 HD
ATOM     15  H   UNL     1      -3.368   5.112   6.073  0.00  0.00    +0.145 HD
ENDBRANCH  10  11
ENDBRANCH   1   7
BRANCH   2  16
ATOM     16  C   UNL     1      -0.121   0.959   0.012  0.00  0.00    +0.118 C 
BRANCH  16  17
ATOM     17  C   UNL     1      -0.982   1.291  -1.209  0.00  0.00    +0.135 C 
BRANCH  17  18
ATOM     18  N   UNL     1      -0.305   0.831  -2.424  0.00  0.00    -0.298 N 
ATOM     19  C   UNL     1       0.541   1.667  -3.081  0.00  0.00    +0.202 A 
ATOM     20  N   UNL     1       1.181   1.332  -4.159  0.00  0.00    -0.237 NA
ATOM     21  C   UNL     1       1.037   0.105  -4.720  0.00  0.00    +0.078 A 
ATOM     22  C   UNL     1       1.721  -0.254  -5.883  0.00  0.00    +0.029 A 
ATOM     23  C   UNL     1       1.546  -1.510  -6.418  0.00  0.00    +0.017 A 
ATOM     24  C   UNL     1       0.695  -2.428  -5.814  0.00  0.00    +0.019 A 
ATOM     25  C   UNL     1       0.009  -2.097  -4.665  0.00  0.00    +0.030 A 
ATOM     26  C   UNL     1       0.173  -0.830  -4.108  0.00  0.00    +0.066 A 
ATOM     27  C   UNL     1      -0.532  -0.421  -2.884  0.00  0.00    +0.262 A 
ATOM     28  O   UNL     1      -1.291  -1.179  -2.309  0.00  0.00    -0.267 OA
ATOM     29 BR   UNL     1       0.477  -4.145  -6.574  0.00  0.00    -0.050 Br
ENDBRANCH  17  18
ENDBRANCH  16  17
ENDBRANCH   2  16
TORSDOF 5
