REMARK  Name = ZINC27647296
REMARK  18 active torsions:
REMARK  status: ('A' for Active; 'I' for Inactive)
REMARK    1  A    between atoms: C_1  and  C_2
REMARK    2  A    between atoms: C_2  and  C_3
REMARK    3  A    between atoms: C_4  and  C_5
REMARK    4  A    between atoms: C_5  and  C_6
REMARK    5  A    between atoms: C_6  and  C_8
REMARK    6  A    between atoms: C_6  and  O_30
REMARK    7  A    between atoms: C_9  and  C_10
REMARK    8  A    between atoms: C_11  and  C_12
REMARK    9  A    between atoms: C_13  and  C_14
REMARK   10  A    between atoms: C_15  and  C_16
REMARK   11  A    between atoms: C_16  and  C_18
REMARK   12  A    between atoms: C_16  and  O_29
REMARK   13  A    between atoms: C_18  and  C_20
REMARK   14  A    between atoms: C_18  and  O_28
REMARK   15  A    between atoms: C_20  and  C_21
REMARK   16  A    between atoms: C_22  and  C_23
REMARK   17  A    between atoms: C_23  and  C_24
REMARK   18  A    between atoms: C_24  and  C_25
REMARK                            x       y       z     vdW  Elec       q    Type
REMARK                         _______ _______ _______ _____ _____    ______ ____
ROOT
ATOM      1  C   UNL     1      -1.741   1.245   0.042  0.00  0.00    -0.002 C 
ATOM      2  C   UNL     1      -0.484   0.796   0.035  0.00  0.00    +0.006 C 
ENDROOT
BRANCH   1   4
ATOM      3  C   UNL     1      -3.277   3.136  -0.096  0.00  0.00    -0.000 C 
ATOM      4  C   UNL     1      -2.013   2.662  -0.200  0.00  0.00    -0.000 C 
BRANCH   3   6
ATOM      5  C   UNL     1      -5.597   2.737   0.351  0.00  0.00    -0.000 C 
ATOM      6  C   UNL     1      -4.333   2.263   0.246  0.00  0.00    -0.000 C 
BRANCH   5   8
ATOM      7  C   UNL     1      -7.936   2.301   0.808  0.00  0.00    +0.004 C 
ATOM      8  C   UNL     1      -6.691   1.833   0.705  0.00  0.00    -0.002 C 
BRANCH   7   9
ATOM      9  C   UNL     1      -9.063   1.369   1.173  0.00  0.00    +0.141 C 
BRANCH   9  10
ATOM     10  O   UNL     1      -8.534   0.075   1.470  0.00  0.00    -0.387 OA
ATOM     11  H   UNL     1      -7.970  -0.477   0.705  0.00  0.00    +0.210 HD
ENDBRANCH   9  10
BRANCH   9  12
ATOM     12  C   UNL     1      -9.799   1.914   2.399  0.00  0.00    +0.062 C 
BRANCH  12  14
ATOM     13  C   UNL     1     -11.168   0.545   3.887  0.00  0.00    -0.031 C 
ATOM     14  C   UNL     1     -10.998   1.050   2.690  0.00  0.00    -0.028 C 
BRANCH  13  16
ATOM     15  C   UNL     1     -11.112   1.443   6.198  0.00  0.00    +0.008 C 
ATOM     16  C   UNL     1     -10.264   0.967   5.017  0.00  0.00    +0.023 C 
ENDBRANCH  13  16
ENDBRANCH  12  14
ENDBRANCH   9  12
ENDBRANCH   7   9
ENDBRANCH   5   8
ENDBRANCH   3   6
ENDBRANCH   1   4
BRANCH   2  17
ATOM     17  C   UNL     1       0.662   1.767  -0.080  0.00  0.00    +0.166 C 
BRANCH  17  18
ATOM     18  O   UNL     1       1.436   1.735   1.120  0.00  0.00    -0.385 OA
ATOM     19  H   UNL     1       2.321   2.381   1.222  0.00  0.00    +0.210 HD
ENDBRANCH  17  18
BRANCH  17  20
ATOM     20  C   UNL     1       1.545   1.375  -1.267  0.00  0.00    +0.151 C 
BRANCH  20  21
ATOM     21  O   UNL     1       0.771   1.407  -2.468  0.00  0.00    -0.389 OA
ATOM     22  H   UNL     1       1.239   1.153  -3.430  0.00  0.00    +0.210 HD
ENDBRANCH  20  21
BRANCH  20  23
ATOM     23  C   UNL     1       2.709   2.361  -1.384  0.00  0.00    +0.061 C 
BRANCH  23  24
ATOM     24  C   UNL     1       3.645   1.906  -2.474  0.00  0.00    -0.028 C 
ATOM     25  C   UNL     1       3.992   2.734  -3.428  0.00  0.00    -0.030 C 
BRANCH  25  26
ATOM     26  C   UNL     1       3.588   4.184  -3.351  0.00  0.00    +0.038 C 
BRANCH  26  27
ATOM     27  C   UNL     1       4.827   5.068  -3.502  0.00  0.00    +0.129 C 
BRANCH  27  28
ATOM     28  C   UNL     1       4.423   6.517  -3.425  0.00  0.00    +0.356 C 
ATOM     29  O   UNL     1       3.262   6.813  -3.265  0.00  0.00    -0.246 OA
ATOM     30  O   UNL     1       5.352   7.480  -3.534  0.00  0.00    -0.246 OA
ENDBRANCH  27  28
ENDBRANCH  26  27
ENDBRANCH  25  26
ENDBRANCH  23  24
ENDBRANCH  20  23
ENDBRANCH  17  20
ENDBRANCH   2  17
TORSDOF 17
