REMARK  Name = ZINC36056597
REMARK  10 active torsions:
REMARK  status: ('A' for Active; 'I' for Inactive)
REMARK    1  A    between atoms: C_1  and  C_2
REMARK    2  A    between atoms: C_2  and  C_13
REMARK    3  A    between atoms: C_5  and  C_10
REMARK    4  A    between atoms: C_7  and  C_8
REMARK    5  A    between atoms: C_7  and  C_9
REMARK    6  A    between atoms: C_13  and  C_28
REMARK    7  A    between atoms: N_14  and  N_15
REMARK    8  A    between atoms: N_15  and  C_16
REMARK    9  A    between atoms: C_19  and  N_25
REMARK   10  A    between atoms: C_21  and  N_22
REMARK                            x       y       z     vdW  Elec       q    Type
REMARK                         _______ _______ _______ _____ _____    ______ ____
ROOT
ATOM      1  C   UNL     1       0.241   0.048  -1.524  0.00  0.00    +0.153 C 
ATOM      2  N   UNL     1       0.944   1.048  -1.986  0.00  0.00    -0.179 NA
ENDROOT
BRANCH   1   4
ATOM      3  C   UNL     1      -1.270   1.771  -0.555  0.00  0.00    +0.018 C 
ATOM      4  C   UNL     1      -0.855   0.298  -0.521  0.00  0.00    +0.025 C 
ATOM      5  C   UNL     1      -2.071  -0.600  -0.831  0.00  0.00    +0.014 C 
ATOM      6  C   UNL     1      -2.612  -1.000   0.564  0.00  0.00    +0.016 C 
ATOM      7  C   UNL     1      -1.316  -1.198   1.389  0.00  0.00    +0.109 C 
ATOM      8  C   UNL     1      -0.375  -0.082   0.890  0.00  0.00    -0.011 C 
ATOM      9  C   UNL     1      -0.463   1.131   1.819  0.00  0.00    +0.012 C 
ATOM     10  C   UNL     1       1.064  -0.596   0.834  0.00  0.00    +0.012 C 
BRANCH   7  11
ATOM     11  C   UNL     1      -1.598  -1.036   2.861  0.00  0.00    +0.360 C 
ATOM     12  O   UNL     1      -0.989  -1.708   3.676  0.00  0.00    -0.246 OA
ATOM     13  O   UNL     1      -2.434  -0.232   3.236  0.00  0.00    -0.246 OA
ENDBRANCH   7  11
ENDBRANCH   1   4
BRANCH   1  14
ATOM     14  C   UNL     1       0.510  -1.268  -1.965  0.00  0.00    +0.402 C 
ATOM     15  O   UNL     1       1.325  -1.461  -2.859  0.00  0.00    -0.239 OA
ATOM     16  O   UNL     1      -0.073  -2.216  -1.452  0.00  0.00    -0.239 OA
ENDBRANCH   1  14
BRANCH   2  17
ATOM     17  N   UNL     1       1.003   2.154  -1.327  0.00  0.00    -0.235 N 
ATOM     18  H   UNL     1       0.614   2.212  -0.440  0.00  0.00    +0.174 HD
BRANCH  17  19
ATOM     19  C   UNL     1       1.628   3.269  -1.888  0.00  0.00    +0.079 A 
ATOM     20  C   UNL     1       2.049   3.239  -3.212  0.00  0.00    +0.029 A 
ATOM     21  C   UNL     1       2.666   4.344  -3.764  0.00  0.00    +0.035 A 
ATOM     22  C   UNL     1       2.867   5.479  -3.001  0.00  0.00    +0.128 A 
ATOM     23  C   UNL     1       2.450   5.513  -1.683  0.00  0.00    +0.067 A 
ATOM     24  C   UNL     1       1.826   4.414  -1.126  0.00  0.00    +0.151 A 
BRANCH  24  25
ATOM     25  N   UNL     1       1.374   4.453   0.283  0.00  0.00    +0.058 N 
ATOM     26  O   UNL     1       1.417   5.491   0.903  0.00  0.00    -0.126 OA
ATOM     27  O   UNL     1       0.963   3.448   0.815  0.00  0.00    -0.126 OA
ENDBRANCH  24  25
BRANCH  22  28
ATOM     28  N   UNL     1       3.529   6.662  -3.596  0.00  0.00    +0.056 N 
ATOM     29  O   UNL     1       3.895   6.634  -4.748  0.00  0.00    -0.126 OA
ATOM     30  O   UNL     1       3.705   7.655  -2.930  0.00  0.00    -0.126 OA
ENDBRANCH  22  28
ENDBRANCH  17  19
ENDBRANCH   2  17
TORSDOF 7
