REMARK  Name = ZINC00720774
REMARK  6 active torsions:
REMARK  status: ('A' for Active; 'I' for Inactive)
REMARK    1  A    between atoms: C_6  and  C_7
REMARK    2  A    between atoms: N_9  and  N_10
REMARK    3  A    between atoms: C_11  and  C_25
REMARK    4  A    between atoms: N_15  and  C_18
REMARK    5  A    between atoms: C_25  and  C_26
REMARK    6  A    between atoms: N_28  and  C_29
REMARK                            x       y       z     vdW  Elec       q    Type
REMARK                         _______ _______ _______ _____ _____    ______ ____
ROOT
ATOM      1  N   UNL     1      -2.433  -3.222   0.083  0.00  0.00    -0.218 N 
ATOM      2  C   UNL     1      -2.936  -3.903   1.289  0.00  0.00    +0.191 C 
ATOM      3  C   UNL     1      -4.159  -4.647   0.793  0.00  0.00    +0.248 C 
ATOM      4  O   UNL     1      -4.902  -5.351   1.444  0.00  0.00    -0.273 OA
ATOM      5  N   UNL     1      -4.251  -4.364  -0.521  0.00  0.00    -0.219 N 
ATOM      6  C   UNL     1      -3.268  -3.548  -0.920  0.00  0.00    +0.164 C 
ATOM      7  S   UNL     1      -3.091  -2.985  -2.527  0.00  0.00    -0.016 S 
ENDROOT
BRANCH   5   8
ATOM      8  C   UNL     1      -5.255  -4.859  -1.366  0.00  0.00    +0.043 A 
ATOM      9  C   UNL     1      -4.913  -5.565  -2.512  0.00  0.00    +0.027 A 
ATOM     10  C   UNL     1      -5.903  -6.052  -3.343  0.00  0.00    +0.040 A 
ATOM     11  C   UNL     1      -7.236  -5.837  -3.033  0.00  0.00    +0.124 A 
ATOM     12  C   UNL     1      -7.578  -5.134  -1.891  0.00  0.00    +0.040 A 
ATOM     13  C   UNL     1      -6.591  -4.650  -1.054  0.00  0.00    +0.027 A 
ATOM     14  F   UNL     1      -8.203  -6.315  -3.847  0.00  0.00    -0.205 F 
ENDBRANCH   5   8
BRANCH   1  17
ATOM     15  C   UNL     1      -1.460  -1.057  -0.094  0.00  0.00    +0.260 C 
ATOM     16  O   UNL     1      -2.574  -0.572  -0.104  0.00  0.00    -0.269 OA
ATOM     17  N   UNL     1      -1.307  -2.393  -0.002  0.00  0.00    -0.228 N 
ATOM     18  H   UNL     1      -0.417  -2.780   0.006  0.00  0.00    +0.173 HD
BRANCH  15  24
ATOM     19  C   UNL     1      -0.427   1.203  -0.279  0.00  0.00    +0.014 A 
ATOM     20  C   UNL     1       0.685   2.014  -0.362  0.00  0.00    +0.021 A 
ATOM     21  C   UNL     1       1.953   1.459  -0.350  0.00  0.00    +0.041 A 
ATOM     22  C   UNL     1       2.114   0.086  -0.256  0.00  0.00    +0.021 A 
ATOM     23  C   UNL     1       1.009  -0.736  -0.173  0.00  0.00    +0.014 A 
ATOM     24  C   UNL     1      -0.272  -0.181  -0.184  0.00  0.00    +0.038 A 
ATOM     25 CL   UNL     1       3.348   2.487  -0.456  0.00  0.00    -0.084 Cl
ENDBRANCH  15  24
ENDBRANCH   1  17
BRANCH   2  26
ATOM     26  C   UNL     1      -1.890  -4.879   1.831  0.00  0.00    +0.129 C 
BRANCH  26  27
ATOM     27  C   UNL     1      -0.680  -4.111   2.299  0.00  0.00    +0.220 C 
ATOM     28  O   UNL     1      -0.657  -2.902   2.207  0.00  0.00    -0.275 OA
ATOM     29  N   UNL     1       0.375  -4.768   2.819  0.00  0.00    -0.285 N 
ATOM     30  H   UNL     1       0.391  -5.738   2.818  0.00  0.00    +0.155 HD
BRANCH  29  31
ATOM     31  C   UNL     1       1.449  -4.051   3.359  0.00  0.00    +0.033 A 
ATOM     32  C   UNL     1       1.221  -2.853   4.023  0.00  0.00    +0.025 A 
ATOM     33  C   UNL     1       2.282  -2.147   4.555  0.00  0.00    +0.022 A 
ATOM     34  C   UNL     1       3.572  -2.633   4.427  0.00  0.00    +0.041 A 
ATOM     35  C   UNL     1       3.801  -3.827   3.766  0.00  0.00    +0.022 A 
ATOM     36  C   UNL     1       2.743  -4.540   3.237  0.00  0.00    +0.025 A 
ATOM     37 CL   UNL     1       4.903  -1.744   5.097  0.00  0.00    -0.084 Cl
ENDBRANCH  29  31
ENDBRANCH  26  27
ENDBRANCH   2  26
TORSDOF 6
