REMARK  Name = ZINC46659447
REMARK  6 active torsions:
REMARK  status: ('A' for Active; 'I' for Inactive)
REMARK    1  A    between atoms: C_1  and  C_2
REMARK    2  A    between atoms: C_2  and  C_3
REMARK    3  A    between atoms: C_3  and  C_4
REMARK    4  A    between atoms: C_4  and  C_6
REMARK    5  A    between atoms: C_4  and  N_7
REMARK    6  A    between atoms: C_8  and  C_10
REMARK                            x       y       z     vdW  Elec       q    Type
REMARK                         _______ _______ _______ _____ _____    ______ ____
ROOT
ATOM      1  C   UNL     1       0.333  -4.230  -2.589  0.00  0.00    +0.039 A 
ATOM      2  C   UNL     1       0.282  -3.412  -3.729  0.00  0.00    +0.014 A 
ATOM      3  C   UNL     1       0.812  -3.829  -4.911  0.00  0.00    +0.016 A 
ATOM      4  C   UNL     1       1.418  -5.091  -4.998  0.00  0.00    +0.065 A 
ATOM      5  C   UNL     1       1.477  -5.929  -3.854  0.00  0.00    +0.080 A 
ATOM      6  C   UNL     1       0.930  -5.479  -2.644  0.00  0.00    +0.041 A 
ATOM      7  N   UNL     1       2.061  -7.132  -3.954  0.00  0.00    -0.223 NA
ATOM      8  C   UNL     1       2.577  -7.540  -5.103  0.00  0.00    +0.180 A 
ATOM      9  N   UNL     1       2.548  -6.785  -6.214  0.00  0.00    -0.301 N 
ATOM     10  H   UNL     1       2.939  -7.125  -7.034  0.00  0.00    +0.171 HD
ATOM     11  C   UNL     1       1.980  -5.560  -6.205  0.00  0.00    +0.260 A 
ATOM     12  O   UNL     1       1.951  -4.806  -7.318  0.00  0.00    -0.267 OA
ATOM     13  S   UNL     1       3.311  -9.085  -5.175  0.00  0.00    -0.011 S 
ENDROOT
BRANCH   1  15
ATOM     14  N   UNL     1      -0.834  -2.537  -1.256  0.00  0.00    -0.309 N 
ATOM     15  C   UNL     1      -0.252  -3.751  -1.315  0.00  0.00    +0.244 C 
ATOM     16  O   UNL     1      -0.206  -4.453  -0.324  0.00  0.00    -0.270 OA
ATOM     17  H   UNL     1      -0.871  -1.977  -2.047  0.00  0.00    +0.149 HD
BRANCH  14  18
ATOM     18  C   UNL     1      -1.413  -2.063   0.004  0.00  0.00    +0.070 C 
ATOM     19  C   UNL     1      -2.841  -2.594   0.141  0.00  0.00    +0.028 C 
BRANCH  18  20
ATOM     20  C   UNL     1      -1.433  -0.534   0.013  0.00  0.00    +0.022 C 
BRANCH  20  22
ATOM     21  C   UNL     1      -0.019   1.526   0.010  0.00  0.00    +0.004 C 
ATOM     22  C   UNL     1       0.002  -0.004   0.002  0.00  0.00    -0.002 C 
ENDBRANCH  20  22
ENDBRANCH  18  20
ENDBRANCH  14  18
ENDBRANCH   1  15
TORSDOF 4
