REMARK  Name = ZINC36295913
REMARK  4 active torsions:
REMARK  status: ('A' for Active; 'I' for Inactive)
REMARK    1  A    between atoms: C_4  and  N_20
REMARK    2  A    between atoms: C_6  and  N_7
REMARK    3  A    between atoms: N_7  and  S_8
REMARK    4  A    between atoms: S_8  and  C_11
REMARK                            x       y       z     vdW  Elec       q    Type
REMARK                         _______ _______ _______ _____ _____    ______ ____
ROOT
ATOM      1  S   UNL     1      -2.644   0.088   0.029  0.00  0.00    +0.094 S 
ATOM      2  O   UNL     1      -2.718   0.760   1.278  0.00  0.00    -0.148 OA
ATOM      3  O   UNL     1      -2.742   0.774  -1.212  0.00  0.00    -0.148 OA
ENDROOT
BRANCH   1   4
ATOM      4  C   UNL     1      -3.920  -1.127   0.035  0.00  0.00    +0.148 A 
ATOM      5  C   UNL     1      -4.762  -1.239   1.125  0.00  0.00    +0.035 A 
ATOM      6  C   UNL     1      -5.764  -2.191   1.133  0.00  0.00    +0.043 A 
ATOM      7  C   UNL     1      -5.926  -3.035   0.047  0.00  0.00    +0.161 A 
ATOM      8  C   UNL     1      -5.083  -2.925  -1.047  0.00  0.00    +0.195 A 
ATOM      9  C   UNL     1      -4.082  -1.965  -1.055  0.00  0.00    +0.188 A 
ATOM     10  F   UNL     1      -3.263  -1.851  -2.123  0.00  0.00    -0.200 F 
ATOM     11  F   UNL     1      -5.239  -3.748  -2.107  0.00  0.00    -0.199 F 
ATOM     12  F   UNL     1      -6.905  -3.966   0.055  0.00  0.00    -0.202 F 
ENDBRANCH   1   4
BRANCH   1  13
ATOM     13  N   UNL     1      -1.199  -0.720   0.010  0.00  0.00    -0.098 NA
BRANCH  13  19
ATOM     14  C   UNL     1      -0.017   1.385   0.010  0.00  0.00    +0.029 A 
ATOM     15  C   UNL     1       1.170   2.094   0.002  0.00  0.00    +0.042 A 
ATOM     16  C   UNL     1       2.379   1.423  -0.013  0.00  0.00    +0.144 A 
ATOM     17  C   UNL     1       2.404   0.032  -0.021  0.00  0.00    +0.062 A 
ATOM     18  C   UNL     1       1.214  -0.681  -0.013  0.00  0.00    +0.052 A 
ATOM     19  C   UNL     1       0.002  -0.004   0.002  0.00  0.00    +0.076 A 
ATOM     20  F   UNL     1       3.537   2.119  -0.021  0.00  0.00    -0.204 F 
BRANCH  17  21
ATOM     21  N   UNL     1       3.626  -0.646  -0.036  0.00  0.00    -0.356 N 
ATOM     22  H   UNL     1       4.458  -0.147  -0.042  0.00  0.00    +0.142 HD
ATOM     23  H   UNL     1       3.643  -1.616  -0.042  0.00  0.00    +0.142 HD
ENDBRANCH  17  21
ENDBRANCH  13  19
ENDBRANCH   1  13
TORSDOF 4
