REMARK  Name = ZINC45555339
REMARK  6 active torsions:
REMARK  status: ('A' for Active; 'I' for Inactive)
REMARK    1  A    between atoms: C_1  and  C_2
REMARK    2  A    between atoms: C_4  and  C_7
REMARK    3  A    between atoms: C_16  and  C_18
REMARK    4  A    between atoms: C_18  and  N_19
REMARK    5  A    between atoms: C_22  and  C_26
REMARK    6  A    between atoms: C_22  and  C_27
REMARK                            x       y       z     vdW  Elec       q    Type
REMARK                         _______ _______ _______ _____ _____    ______ ____
ROOT
ATOM      1  C   UNL     1      -1.982  -3.083  -0.006  0.00  0.00    +0.001 A 
ATOM      2  C   UNL     1      -1.759  -4.460  -0.009  0.00  0.00    +0.012 A 
ATOM      3  C   UNL     1      -2.824  -5.331  -0.009  0.00  0.00    +0.024 A 
ATOM      4  C   UNL     1      -4.135  -4.848  -0.006  0.00  0.00    +0.040 A 
ATOM      5  C   UNL     1      -4.352  -3.478  -0.003  0.00  0.00    -0.024 A 
ATOM      6  C   UNL     1      -3.289  -2.599   0.003  0.00  0.00    +0.015 A 
ATOM      7  C   UNL     1      -5.843  -3.227  -0.001  0.00  0.00    +0.056 C 
ATOM      8  C   UNL     1      -6.472  -4.630  -0.003  0.00  0.00    +0.118 C 
ATOM      9  N   UNL     1      -5.339  -5.559  -0.006  0.00  0.00    -0.270 N 
ATOM     10  C   UNL     1      -5.443  -6.903  -0.009  0.00  0.00    +0.238 C 
ATOM     11  O   UNL     1      -6.536  -7.427  -0.009  0.00  0.00    -0.274 OA
ENDROOT
BRANCH   1  15
ATOM     12  C   UNL     1      -0.018   1.503   0.010  0.00  0.00    +0.073 C 
ATOM     13  C   UNL     1       0.002  -0.004   0.002  0.00  0.00    +0.076 A 
ATOM     14  N   UNL     1      -1.014  -0.828   0.002  0.00  0.00    -0.244 NA
ATOM     15  C   UNL     1      -0.837  -2.141  -0.006  0.00  0.00    +0.078 A 
ATOM     16  C   UNL     1       0.460  -2.583  -0.015  0.00  0.00    +0.075 A 
ATOM     17  S   UNL     1       1.337  -1.028  -0.017  0.00  0.00    -0.080 S 
ENDBRANCH   1  15
BRANCH  10  18
ATOM     18  C   UNL     1      -4.199  -7.754  -0.013  0.00  0.00    +0.214 C 
BRANCH  18  19
ATOM     19  N   UNL     1      -4.576  -9.170  -0.015  0.00  0.00    -0.215 N 
ATOM     20  C   UNL     1      -4.775  -9.902   1.098  0.00  0.00    +0.251 C 
ATOM     21  O   UNL     1      -4.679  -9.529   2.247  0.00  0.00    -0.272 OA
ATOM     22  C   UNL     1      -5.144 -11.291   0.614  0.00  0.00    +0.135 C 
ATOM     23  N   UNL     1      -5.107 -11.168  -0.853  0.00  0.00    -0.281 N 
ATOM     24  C   UNL     1      -4.772  -9.893  -1.124  0.00  0.00    +0.310 C 
ATOM     25  O   UNL     1      -4.655  -9.450  -2.249  0.00  0.00    -0.252 OA
ATOM     26  C   UNL     1      -4.118 -12.319   1.094  0.00  0.00    +0.047 C 
ATOM     27  H   UNL     1      -5.292 -11.868  -1.498  0.00  0.00    +0.152 HD
BRANCH  22  28
ATOM     28  C   UNL     1      -6.528 -11.664   1.081  0.00  0.00    -0.015 A 
ATOM     29  C   UNL     1      -7.021 -11.148   2.264  0.00  0.00    +0.007 A 
ATOM     30  C   UNL     1      -8.290 -11.489   2.692  0.00  0.00    +0.020 A 
ATOM     31  C   UNL     1      -9.067 -12.348   1.935  0.00  0.00    +0.041 A 
ATOM     32  C   UNL     1      -8.573 -12.864   0.751  0.00  0.00    +0.020 A 
ATOM     33  C   UNL     1      -7.306 -12.518   0.321  0.00  0.00    +0.007 A 
ATOM     34 CL   UNL     1     -10.661 -12.778   2.473  0.00  0.00    -0.084 Cl
ENDBRANCH  22  28
ENDBRANCH  18  19
ENDBRANCH  10  18
TORSDOF 4
