REMARK  Name = ZINC13640218
REMARK  5 active torsions:
REMARK  status: ('A' for Active; 'I' for Inactive)
REMARK    1  A    between atoms: C_1  and  C_2
REMARK    2  A    between atoms: C_3  and  C_16
REMARK    3  A    between atoms: C_4  and  C_15
REMARK    4  A    between atoms: C_11  and  C_14
REMARK    5  A    between atoms: C_16  and  C_18
REMARK                            x       y       z     vdW  Elec       q    Type
REMARK                         _______ _______ _______ _____ _____    ______ ____
ROOT
ATOM      1  C   UNL     1      -2.464  -0.275   0.207  0.00  0.00    +0.066 C 
ATOM      2  C   UNL     1      -2.482   1.229   0.113  0.00  0.00    +0.054 A 
ATOM      3  C   UNL     1      -1.282   1.951   0.018  0.00  0.00    +0.059 A 
ATOM      4  C   UNL     1      -1.354   3.351  -0.061  0.00  0.00    +0.054 A 
ATOM      5  N   UNL     1      -2.539   3.931  -0.053  0.00  0.00    -0.219 NA
ATOM      6  C   UNL     1      -3.650   3.211   0.038  0.00  0.00    +0.218 A 
ATOM      7  N   UNL     1      -3.625   1.887   0.119  0.00  0.00    -0.219 NA
ATOM      8  N   UNL     1      -4.867   3.859   0.048  0.00  0.00    -0.300 N 
ATOM      9  C   UNL     1      -5.645   3.498   1.240  0.00  0.00    +0.108 C 
ATOM     10  C   UNL     1      -7.041   4.117   1.146  0.00  0.00    +0.022 C 
ATOM     11  C   UNL     1      -6.912   5.639   1.039  0.00  0.00    -0.011 C 
ATOM     12  C   UNL     1      -6.057   5.987  -0.183  0.00  0.00    +0.022 C 
ATOM     13  C   UNL     1      -4.690   5.313  -0.051  0.00  0.00    +0.108 C 
ATOM     14  C   UNL     1      -8.302   6.260   0.883  0.00  0.00    +0.007 C 
ATOM     15  C   UNL     1      -0.098   4.178  -0.159  0.00  0.00    +0.066 C 
ENDROOT
BRANCH   3  16
ATOM     16  C   UNL     1       0.015   1.262   0.008  0.00  0.00    +0.164 C 
ATOM     17  O   UNL     1       0.548   0.989  -1.047  0.00  0.00    -0.292 OA
ATOM     18  C   UNL     1       0.685   0.898   1.307  0.00  0.00    +0.092 C 
ENDBRANCH   3  16
TORSDOF 1
