REMARK  Name = ZINC02551746
REMARK  8 active torsions:
REMARK  status: ('A' for Active; 'I' for Inactive)
REMARK    1  A    between atoms: C_4  and  N_28
REMARK    2  A    between atoms: C_5  and  C_7
REMARK    3  A    between atoms: N_9  and  C_10
REMARK    4  A    between atoms: C_10  and  N_12
REMARK    5  A    between atoms: N_12  and  C_13
REMARK    6  A    between atoms: C_16  and  S_19
REMARK    7  A    between atoms: S_19  and  N_22
REMARK    8  A    between atoms: N_22  and  C_23
REMARK                            x       y       z     vdW  Elec       q    Type
REMARK                         _______ _______ _______ _____ _____    ______ ____
ROOT
ATOM      1  N   UNL     1      -0.188  -5.243  -0.859  0.00  0.00    -0.297 N 
ATOM      2  H   UNL     1      -0.884  -4.986  -0.234  0.00  0.00    +0.154 HD
ENDROOT
BRANCH   1   3
ATOM      3  C   UNL     1       0.135  -6.593  -1.029  0.00  0.00    +0.033 A 
ATOM      4  C   UNL     1       1.462  -6.979  -1.162  0.00  0.00    +0.025 A 
ATOM      5  C   UNL     1       1.778  -8.313  -1.330  0.00  0.00    +0.031 A 
ATOM      6  C   UNL     1       0.775  -9.264  -1.367  0.00  0.00    +0.111 A 
ATOM      7  C   UNL     1      -0.548  -8.883  -1.236  0.00  0.00    +0.031 A 
ATOM      8  C   UNL     1      -0.870  -7.551  -1.061  0.00  0.00    +0.025 A 
BRANCH   6   9
ATOM      9  S   UNL     1       1.182 -10.964  -1.583  0.00  0.00    +0.093 S 
ATOM     10  O   UNL     1       0.030 -11.592  -2.130  0.00  0.00    -0.148 OA
ATOM     11  O   UNL     1       2.448 -11.000  -2.228  0.00  0.00    -0.148 OA
BRANCH   9  12
ATOM     12  N   UNL     1       1.401 -11.611  -0.075  0.00  0.00    -0.070 NA
BRANCH  12  13
ATOM     13  C   UNL     1       1.734 -12.949   0.064  0.00  0.00    +0.201 A 
ATOM     14  N   UNL     1       1.922 -13.848  -0.879  0.00  0.00    -0.231 NA
ATOM     15  C   UNL     1       2.239 -15.095  -0.580  0.00  0.00    +0.120 A 
ATOM     16  C   UNL     1       2.360 -15.401   0.734  0.00  0.00    +0.068 A 
ATOM     17  S   UNL     1       2.005 -13.818   1.480  0.00  0.00    -0.058 S 
ENDBRANCH  12  13
ENDBRANCH   9  12
ENDBRANCH   6   9
ENDBRANCH   1   3
BRANCH   1  18
ATOM     18  C   UNL     1       0.467  -4.299  -1.563  0.00  0.00    +0.141 C 
ATOM     19  S   UNL     1       1.590  -4.757  -2.771  0.00  0.00    -0.018 S 
BRANCH  18  22
ATOM     20  C   UNL     1       0.894  -2.050  -2.019  0.00  0.00    +0.252 C 
ATOM     21  O   UNL     1       1.692  -2.375  -2.877  0.00  0.00    -0.270 OA
ATOM     22  N   UNL     1       0.239  -2.994  -1.315  0.00  0.00    -0.264 N 
ATOM     23  H   UNL     1      -0.398  -2.734  -0.631  0.00  0.00    +0.157 HD
BRANCH  20  28
ATOM     24  C   UNL     1       0.564   1.224  -0.210  0.00  0.00    +0.001 A 
ATOM     25  C   UNL     1       0.173   2.062  -1.240  0.00  0.00    +0.002 A 
ATOM     26  C   UNL     1       0.016   1.567  -2.522  0.00  0.00    +0.033 A 
ATOM     27  C   UNL     1       0.249   0.232  -2.782  0.00  0.00    +0.138 A 
ATOM     28  C   UNL     1       0.644  -0.619  -1.748  0.00  0.00    +0.067 A 
ATOM     29  C   UNL     1       0.800  -0.112  -0.456  0.00  0.00    +0.015 A 
BRANCH  27  30
ATOM     30  N   UNL     1       0.080  -0.297  -4.154  0.00  0.00    +0.057 N 
ATOM     31  O   UNL     1      -0.141   0.460  -5.071  0.00  0.00    -0.126 OA
ATOM     32  O   UNL     1       0.162  -1.486  -4.358  0.00  0.00    -0.126 OA
ENDBRANCH  27  30
ENDBRANCH  20  28
ENDBRANCH  18  22
ENDBRANCH   1  18
TORSDOF 8
