REMARK  Name = ZINC06074621
REMARK  11 active torsions:
REMARK  status: ('A' for Active; 'I' for Inactive)
REMARK    1  A    between atoms: C_1  and  C_2
REMARK    2  A    between atoms: C_2  and  C_3
REMARK    3  A    between atoms: C_2  and  C_4
REMARK    4  A    between atoms: C_2  and  N_5
REMARK    5  A    between atoms: C_6  and  C_8
REMARK    6  A    between atoms: C_8  and  C_10
REMARK    7  A    between atoms: C_8  and  N_15
REMARK    8  A    between atoms: N_15  and  C_16
REMARK    9  A    between atoms: C_21  and  C_23
REMARK   10  A    between atoms: C_24  and  N_31
REMARK   11  A    between atoms: C_25  and  C_28
REMARK                            x       y       z     vdW  Elec       q    Type
REMARK                         _______ _______ _______ _____ _____    ______ ____
ROOT
ATOM      1  N   UNL     1       3.055  -2.204   0.063  0.00  0.00    -0.276 N 
ATOM      2  C   UNL     1       1.727  -2.040   0.219  0.00  0.00    +0.258 C 
ATOM      3  O   UNL     1       1.261  -0.922   0.339  0.00  0.00    -0.269 OA
ENDROOT
BRANCH   1   4
ATOM      4  C   UNL     1       3.958  -1.061   0.224  0.00  0.00    +0.078 C 
ATOM      5  C   UNL     1       3.611  -0.291   1.516  0.00  0.00    +0.022 C 
ATOM      6  C   UNL     1       3.832   1.196   1.141  0.00  0.00    +0.002 C 
ATOM      7  C   UNL     1       3.316   1.263  -0.318  0.00  0.00    +0.002 C 
ATOM      8  C   UNL     1       3.771  -0.073  -0.941  0.00  0.00    +0.022 C 
ENDBRANCH   1   4
BRANCH   2   9
ATOM      9  C   UNL     1       0.844  -3.208   0.245  0.00  0.00    +0.115 A 
ATOM     10  C   UNL     1      -0.193  -3.515   1.129  0.00  0.00    +0.076 A 
ATOM     11  C   UNL     1      -0.810  -4.728   0.827  0.00  0.00    +0.155 A 
ATOM     12  N   UNL     1      -0.385  -5.429  -0.201  0.00  0.00    -0.203 NA
ATOM     13  S   UNL     1       0.803  -4.617  -0.844  0.00  0.00    +0.019 S 
BRANCH  11  14
ATOM     14  C   UNL     1      -1.925  -5.223   1.656  0.00  0.00    +0.262 C 
ATOM     15  O   UNL     1      -2.310  -4.572   2.608  0.00  0.00    -0.269 OA
ATOM     16  N   UNL     1      -2.517  -6.397   1.358  0.00  0.00    -0.324 N 
ATOM     17  H   UNL     1      -2.209  -6.916   0.598  0.00  0.00    +0.145 HD
ATOM     18  H   UNL     1      -3.250  -6.722   1.903  0.00  0.00    +0.145 HD
ENDBRANCH  11  14
BRANCH  10  19
ATOM     19  N   UNL     1      -0.566  -2.702   2.191  0.00  0.00    -0.355 N 
ATOM     20  H   UNL     1      -1.295  -2.969   2.773  0.00  0.00    +0.142 HD
ATOM     21  H   UNL     1      -0.098  -1.868   2.352  0.00  0.00    +0.142 HD
ENDBRANCH  10  19
ENDBRANCH   2   9
BRANCH   1  22
ATOM     22  C   UNL     1       3.597  -3.524  -0.268  0.00  0.00    +0.229 C 
BRANCH  22  23
ATOM     23  C   UNL     1       4.686  -3.880   0.711  0.00  0.00    +0.134 A 
ATOM     24  C   UNL     1       4.894  -5.095   1.249  0.00  0.00    +0.047 A 
ATOM     25  C   UNL     1       6.012  -4.978   2.107  0.00  0.00    +0.041 A 
ATOM     26  C   UNL     1       6.421  -3.698   2.041  0.00  0.00    +0.195 A 
ATOM     27  O   UNL     1       5.618  -3.039   1.190  0.00  0.00    -0.465 OA
ENDBRANCH  22  23
BRANCH  22  29
ATOM     28  N   UNL     1       4.721  -4.609  -2.185  0.00  0.00    -0.309 N 
ATOM     29  C   UNL     1       4.165  -3.498  -1.664  0.00  0.00    +0.242 C 
ATOM     30  O   UNL     1       4.122  -2.478  -2.317  0.00  0.00    -0.273 OA
ATOM     31  H   UNL     1       4.756  -5.426  -1.662  0.00  0.00    +0.149 HD
BRANCH  28  33
ATOM     32  C   UNL     1       6.390  -3.541  -3.619  0.00  0.00    +0.031 C 
ATOM     33  C   UNL     1       5.274  -4.585  -3.542  0.00  0.00    +0.026 C 
ATOM     34  C   UNL     1       5.839  -5.963  -3.888  0.00  0.00    +0.031 C 
ATOM     35  C   UNL     1       4.168  -4.223  -4.536  0.00  0.00    +0.031 C 
ENDBRANCH  28  33
ENDBRANCH  22  29
ENDBRANCH   1  22
TORSDOF 8
