REMARK  Name = ZINC26905652
REMARK  2 active torsions:
REMARK  status: ('A' for Active; 'I' for Inactive)
REMARK    1  A    between atoms: C_1  and  C_2
REMARK    2  A    between atoms: C_12  and  C_14
REMARK                            x       y       z     vdW  Elec       q    Type
REMARK                         _______ _______ _______ _____ _____    ______ ____
ROOT
ATOM      1  C   UNL     1       7.948  -1.834  -0.011  0.00  0.00    +0.008 C 
ATOM      2  C   UNL     1       6.505  -1.434   0.304  0.00  0.00    -0.009 C 
ATOM      3  C   UNL     1       5.543  -2.288  -0.527  0.00  0.00    +0.010 C 
ATOM      4  C   UNL     1       4.106  -2.077  -0.048  0.00  0.00    +0.056 C 
ATOM      5  C   UNL     1       3.807  -0.582  -0.037  0.00  0.00    +0.054 A 
ATOM      6  C   UNL     1       4.824   0.319  -0.041  0.00  0.00    +0.015 A 
ATOM      7  S   UNL     1       3.969   1.871  -0.026  0.00  0.00    -0.057 S 
ATOM      8  C   UNL     1       2.355   1.225  -0.014  0.00  0.00    +0.165 A 
ATOM      9  N   UNL     1       2.578  -0.073  -0.017  0.00  0.00    -0.229 NA
ATOM     10  N   UNL     1       1.143   1.903   0.001  0.00  0.00    -0.261 N 
ATOM     11  C   UNL     1      -0.014   1.213   0.009  0.00  0.00    +0.249 C 
ATOM     12  O   UNL     1       0.002  -0.004   0.002  0.00  0.00    -0.270 OA
ATOM     13  C   UNL     1       6.290   0.044  -0.055  0.00  0.00    +0.047 C 
ATOM     14  H   UNL     1       1.129   3.003   0.008  0.00  0.00    +0.157 HD
ENDROOT
BRANCH  11  15
ATOM     15  C   UNL     1      -1.290   1.927   0.019  0.00  0.00    +0.052 C 
ATOM     16  C   UNL     1      -2.457   1.236   0.020  0.00  0.00    +0.023 C 
ATOM     17  C   UNL     1      -3.711   2.004   0.010  0.00  0.00    +0.017 A 
ATOM     18  C   UNL     1      -4.930   1.413   0.342  0.00  0.00    +0.011 A 
ATOM     19  C   UNL     1      -6.082   2.173   0.320  0.00  0.00    +0.001 A 
ATOM     20  C   UNL     1      -6.030   3.513  -0.028  0.00  0.00    +0.004 A 
ATOM     21  C   UNL     1      -4.827   4.109  -0.359  0.00  0.00    +0.046 A 
ATOM     22  C   UNL     1      -3.662   3.364  -0.343  0.00  0.00    +0.128 A 
ATOM     23  O   UNL     1      -2.467   3.918  -0.663  0.00  0.00    -0.487 OA
ATOM     24  C   UNL     1      -1.314   3.433   0.033  0.00  0.00    +0.269 C 
ENDBRANCH  11  15
TORSDOF 1
