REMARK  Name = ZINC38995183
REMARK  9 active torsions:
REMARK  status: ('A' for Active; 'I' for Inactive)
REMARK    1  A    between atoms: C_1  and  C_2
REMARK    2  A    between atoms: C_4  and  C_34
REMARK    3  A    between atoms: C_6  and  N_8
REMARK    4  A    between atoms: C_9  and  C_11
REMARK    5  A    between atoms: C_11  and  S_12
REMARK    6  A    between atoms: S_12  and  C_13
REMARK    7  A    between atoms: C_17  and  C_21
REMARK    8  A    between atoms: N_19  and  N_20
REMARK    9  A    between atoms: C_24  and  C_27
REMARK                            x       y       z     vdW  Elec       q    Type
REMARK                         _______ _______ _______ _____ _____    ______ ____
ROOT
ATOM      1  C   UNL     1       0.541  -2.801   7.699  0.00  0.00    +0.214 C 
ATOM      2  N   UNL     1      -0.622  -3.714   7.782  0.00  0.00    -0.228 NA
ATOM      3  N   UNL     1      -0.158  -4.958   7.147  0.00  0.00    -0.234 NA
ATOM      4  C   UNL     1       1.256  -5.056   7.594  0.00  0.00    +0.185 C 
ATOM      5  N   UNL     1       1.740  -3.655   7.581  0.00  0.00    -0.197 NA
ATOM      6  H   UNL     1      -1.417  -3.333   7.291  0.00  0.00    +0.143 HD
ATOM      7  H   UNL     1      -0.695  -5.750   7.468  0.00  0.00    +0.143 HD
ENDROOT
BRANCH   4   8
ATOM      8  C   UNL     1       2.067  -5.915   6.622  0.00  0.00    +0.187 C 
ATOM      9  C   UNL     1       1.475  -7.309   6.517  0.00  0.00    +0.034 C 
ATOM     10  C   UNL     1       2.464  -8.113   6.955  0.00  0.00    +0.091 C 
ATOM     11  N   UNL     1       3.553  -7.379   7.303  0.00  0.00    -0.154 NA
ATOM     12  N   UNL     1       3.420  -6.159   7.148  0.00  0.00    -0.176 NA
BRANCH  10  13
ATOM     13  C   UNL     1       2.375  -9.591   7.047  0.00  0.00    +0.002 A 
ATOM     14  C   UNL     1       1.208 -10.247   6.659  0.00  0.00    +0.013 A 
ATOM     15  C   UNL     1       1.131 -11.621   6.745  0.00  0.00    +0.039 A 
ATOM     16  C   UNL     1       2.210 -12.350   7.217  0.00  0.00    +0.123 A 
ATOM     17  C   UNL     1       3.372 -11.703   7.605  0.00  0.00    +0.039 A 
ATOM     18  C   UNL     1       3.461 -10.329   7.516  0.00  0.00    +0.013 A 
ATOM     19  F   UNL     1       2.130 -13.696   7.301  0.00  0.00    -0.205 F 
ENDBRANCH  10  13
ENDBRANCH   4   8
BRANCH   5  20
ATOM     20  N   UNL     1       2.663  -3.412   8.678  0.00  0.00    -0.264 NA
ATOM     21  H   UNL     1       2.966  -2.449   8.690  0.00  0.00    +0.137 HD
ATOM     22  H   UNL     1       2.251  -3.671   9.562  0.00  0.00    +0.137 HD
ENDBRANCH   5  20
BRANCH   1  23
ATOM     23  S   UNL     1       0.391  -1.734   6.239  0.00  0.00    -0.115 S 
BRANCH  23  24
ATOM     24  C   UNL     1       0.280  -2.900   4.854  0.00  0.00    +0.168 C 
BRANCH  24  26
ATOM     25  N   UNL     1       0.052  -2.797   2.393  0.00  0.00    -0.285 N 
ATOM     26  C   UNL     1       0.150  -2.134   3.562  0.00  0.00    +0.227 C 
ATOM     27  O   UNL     1       0.134  -0.922   3.575  0.00  0.00    -0.275 OA
ATOM     28  H   UNL     1      -0.012  -3.765   2.388  0.00  0.00    +0.155 HD
BRANCH  25  34
ATOM     29  C   UNL     1      -1.512  -2.365  -2.248  0.00  0.00    +0.044 C 
ATOM     30  C   UNL     1      -0.707  -1.857  -1.080  0.00  0.00    -0.048 A 
ATOM     31  C   UNL     1       0.025  -0.690  -1.201  0.00  0.00    +0.006 A 
ATOM     32  C   UNL     1       0.765  -0.220  -0.131  0.00  0.00    -0.048 A 
ATOM     33  C   UNL     1       0.776  -0.917   1.061  0.00  0.00    +0.026 A 
ATOM     34  C   UNL     1       0.043  -2.089   1.186  0.00  0.00    +0.034 A 
ATOM     35  C   UNL     1      -0.704  -2.555   0.112  0.00  0.00    +0.026 A 
ATOM     36  C   UNL     1       1.561   1.052  -0.268  0.00  0.00    +0.044 C 
ENDBRANCH  25  34
ENDBRANCH  24  26
ENDBRANCH  23  24
ENDBRANCH   1  23
TORSDOF 7
