REMARK  Name = ZINC05927285
REMARK  3 active torsions:
REMARK  status: ('A' for Active; 'I' for Inactive)
REMARK    1  A    between atoms: C_4  and  N_11
REMARK    2  A    between atoms: C_5  and  C_7
REMARK    3  A    between atoms: C_12  and  C_17
REMARK                            x       y       z     vdW  Elec       q    Type
REMARK                         _______ _______ _______ _____ _____    ______ ____
ROOT
ATOM      1  N   UNL     1       2.057   0.675  -0.014  0.00  0.00    -0.269 N 
ATOM      2  C   UNL     1       1.242  -0.436  -0.012  0.00  0.00    +0.169 A 
ATOM      3  N   UNL     1       0.002  -0.004   0.002  0.00  0.00    -0.128 NA
ATOM      4  N   UNL     1      -0.015   1.281   0.009  0.00  0.00    -0.121 NA
ATOM      5  C   UNL     1       1.214   1.750  -0.000  0.00  0.00    +0.207 A 
ATOM      6  S   UNL     1       1.684   3.448   0.004  0.00  0.00    -0.009 SA
ENDROOT
BRANCH   1  10
ATOM      7  C   UNL     1       6.225   0.743  -0.055  0.00  0.00    +0.001 A 
ATOM      8  C   UNL     1       5.523   0.738  -1.247  0.00  0.00    +0.002 A 
ATOM      9  C   UNL     1       4.142   0.715  -1.236  0.00  0.00    +0.027 A 
ATOM     10  C   UNL     1       3.459   0.697  -0.028  0.00  0.00    +0.062 A 
ATOM     11  C   UNL     1       4.166   0.707   1.167  0.00  0.00    +0.079 A 
ATOM     12  C   UNL     1       5.547   0.725   1.149  0.00  0.00    +0.014 A 
BRANCH  11  13
ATOM     13  C   UNL     1       3.428   0.694   2.480  0.00  0.00    +0.419 C 
ATOM     14  F   UNL     1       4.349   0.708   3.533  0.00  0.00    -0.166 F 
ATOM     15  F   UNL     1       2.606   1.823   2.565  0.00  0.00    -0.166 F 
ATOM     16  F   UNL     1       2.644  -0.462   2.562  0.00  0.00    -0.166 F 
ENDBRANCH  11  13
ENDBRANCH   1  10
BRANCH   2  17
ATOM     17  C   UNL     1       1.680  -1.847  -0.024  0.00  0.00    +0.022 A 
ATOM     18  C   UNL     1       3.006  -2.192   0.266  0.00  0.00    +0.031 A 
ATOM     19  C   UNL     1       3.370  -3.522   0.248  0.00  0.00    +0.111 A 
ATOM     20  N   UNL     1       2.492  -4.461  -0.047  0.00  0.00    -0.263 NA
ATOM     21  C   UNL     1       1.234  -4.180  -0.331  0.00  0.00    +0.111 A 
ATOM     22  C   UNL     1       0.782  -2.877  -0.331  0.00  0.00    +0.031 A 
ENDBRANCH   2  17
TORSDOF 3
