REMARK  Name = ZINC44097461
REMARK  3 active torsions:
REMARK  status: ('A' for Active; 'I' for Inactive)
REMARK    1  A    between atoms: C_1  and  C_2
REMARK    2  A    between atoms: C_4  and  C_7
REMARK    3  A    between atoms: N_21  and  C_22
REMARK                            x       y       z     vdW  Elec       q    Type
REMARK                         _______ _______ _______ _____ _____    ______ ____
ROOT
ATOM      1  C   UNL     1      -1.491  -3.199  -0.820  0.00  0.00    +0.038 A 
ATOM      2  C   UNL     1      -0.984  -4.400  -0.311  0.00  0.00    +0.016 A 
ATOM      3  C   UNL     1      -1.827  -5.492  -0.243  0.00  0.00    +0.042 A 
ATOM      4  C   UNL     1      -3.143  -5.363  -0.681  0.00  0.00    +0.099 A 
ATOM      5  N   UNL     1      -3.590  -4.211  -1.158  0.00  0.00    -0.349 N 
ATOM      6  C   UNL     1      -2.819  -3.145  -1.233  0.00  0.00    +0.095 A 
ATOM      7  N   UNL     1      -3.996  -6.456  -0.617  0.00  0.00    -0.314 N 
ATOM      8  C   UNL     1      -5.439  -6.292  -0.841  0.00  0.00    +0.125 C 
ATOM      9  C   UNL     1      -5.871  -7.244  -1.964  0.00  0.00    +0.128 C 
ATOM     10  N   UNL     1      -5.347  -8.585  -1.671  0.00  0.00    -0.282 N 
ATOM     11  C   UNL     1      -3.904  -8.748  -1.446  0.00  0.00    +0.128 C 
ATOM     12  C   UNL     1      -3.471  -7.798  -0.329  0.00  0.00    +0.125 C 
ATOM     13  C   UNL     1      -6.176  -9.646  -1.609  0.00  0.00    +0.307 C 
ATOM     14  O   UNL     1      -7.345  -9.523  -1.918  0.00  0.00    -0.252 OA
ATOM     15  N   UNL     1      -5.707 -10.844  -1.204  0.00  0.00    -0.269 N 
ATOM     16  H   UNL     1      -4.812 -10.916  -0.839  0.00  0.00    +0.156 HD
ATOM     17  H   UNL     1      -4.511  -4.149  -1.456  0.00  0.00    +0.167 HD
ENDROOT
BRANCH  15  18
ATOM     18  C   UNL     1      -6.514 -11.983  -1.311  0.00  0.00    +0.036 A 
ATOM     19  C   UNL     1      -7.897 -11.857  -1.320  0.00  0.00    +0.025 A 
ATOM     20  C   UNL     1      -8.691 -12.982  -1.426  0.00  0.00    +0.023 A 
ATOM     21  C   UNL     1      -8.110 -14.235  -1.522  0.00  0.00    +0.059 A 
ATOM     22  C   UNL     1      -6.731 -14.363  -1.513  0.00  0.00    +0.061 A 
ATOM     23  C   UNL     1      -5.933 -13.239  -1.414  0.00  0.00    +0.044 A 
ATOM     24 CL   UNL     1      -6.006 -15.935  -1.634  0.00  0.00    -0.082 Cl
ATOM     25 CL   UNL     1      -9.111 -15.647  -1.653  0.00  0.00    -0.082 Cl
ENDBRANCH  15  18
BRANCH   1  29
ATOM     26  C   UNL     1       2.535  -0.268  -0.475  0.00  0.00    +0.112 C 
ATOM     27  C   UNL     1       1.130  -0.732  -0.759  0.00  0.00    +0.225 A 
ATOM     28  N   UNL     1       0.667  -1.931  -0.546  0.00  0.00    -0.192 NA
ATOM     29  C   UNL     1      -0.626  -1.997  -0.913  0.00  0.00    +0.203 A 
ATOM     30  N   UNL     1      -0.993  -0.824  -1.367  0.00  0.00    -0.056 NA
ATOM     31  O   UNL     1       0.145   0.020  -1.268  0.00  0.00    -0.338 OA
ENDBRANCH   1  29
TORSDOF 2
