REMARK  Name = ZINC12467347
REMARK  5 active torsions:
REMARK  status: ('A' for Active; 'I' for Inactive)
REMARK    1  A    between atoms: C_1  and  N_2
REMARK    2  A    between atoms: N_11  and  C_12
REMARK    3  A    between atoms: C_12  and  C_14
REMARK    4  A    between atoms: N_19  and  S_20
REMARK    5  A    between atoms: S_20  and  C_23
REMARK                            x       y       z     vdW  Elec       q    Type
REMARK                         _______ _______ _______ _____ _____    ______ ____
ROOT
ATOM      1  C   UNL     1       4.275   6.184   0.334  0.00  0.00    +0.257 C 
ATOM      2  O   UNL     1       3.143   6.264   0.770  0.00  0.00    -0.272 OA
ENDROOT
BRANCH   1  13
ATOM      3  C   UNL     1       5.650   2.333  -0.827  0.00  0.00    +0.151 C 
ATOM      4  N   UNL     1       4.325   2.636  -0.281  0.00  0.00    -0.324 N 
ATOM      5  C   UNL     1       3.400   1.620  -0.107  0.00  0.00    +0.061 A 
ATOM      6  C   UNL     1       3.547   0.254  -0.392  0.00  0.00    +0.076 A 
ATOM      7  C   UNL     1       2.518  -0.635  -0.157  0.00  0.00    +0.168 A 
ATOM      8  C   UNL     1       1.305  -0.194   0.372  0.00  0.00    +0.167 A 
ATOM      9  C   UNL     1       1.137   1.150   0.660  0.00  0.00    +0.066 A 
ATOM     10  C   UNL     1       2.168   2.030   0.422  0.00  0.00    +0.043 A 
ATOM     11  S   UNL     1       2.378   3.779   0.638  0.00  0.00    -0.052 S 
ATOM     12  C   UNL     1       4.004   3.913   0.052  0.00  0.00    +0.166 A 
ATOM     13  N   UNL     1       4.759   5.006  -0.046  0.00  0.00    -0.155 NA
ATOM     14  O   UNL     1       0.468  -1.263   0.506  0.00  0.00    -0.453 OA
ATOM     15  C   UNL     1       1.317  -2.424   0.439  0.00  0.00    +0.466 C 
ATOM     16  O   UNL     1       2.435  -1.986  -0.354  0.00  0.00    -0.453 OA
ENDBRANCH   1  13
BRANCH   1  17
ATOM     17  C   UNL     1       5.129   7.421   0.223  0.00  0.00    +0.168 C 
ATOM     18  C   UNL     1       5.878   7.679   1.554  0.00  0.00    +0.031 C 
ATOM     19  C   UNL     1       6.142   9.206   1.471  0.00  0.00    +0.019 C 
ATOM     20  C   UNL     1       4.878   9.738   0.764  0.00  0.00    +0.110 C 
ATOM     21  N   UNL     1       4.284   8.612   0.028  0.00  0.00    -0.164 NA
BRANCH  21  22
ATOM     22  S   UNL     1       2.895   8.674  -0.873  0.00  0.00    +0.068 S 
ATOM     23  O   UNL     1       2.821   9.985  -1.416  0.00  0.00    -0.152 OA
ATOM     24  O   UNL     1       2.888   7.510  -1.688  0.00  0.00    -0.152 OA
BRANCH  22  25
ATOM     25  C   UNL     1       1.542   8.514   0.245  0.00  0.00    +0.144 A 
ATOM     26  C   UNL     1       0.945   9.465   1.003  0.00  0.00    +0.038 A 
ATOM     27  C   UNL     1      -0.117   9.108   1.814  0.00  0.00    +0.030 A 
ATOM     28  C   UNL     1      -0.521   7.813   1.835  0.00  0.00    +0.080 A 
ATOM     29  S   UNL     1       0.608   7.055   0.678  0.00  0.00    -0.057 S 
ATOM     30 CL   UNL     1      -1.804   7.083   2.748  0.00  0.00    -0.076 Cl
ENDBRANCH  22  25
ENDBRANCH  21  22
ENDBRANCH   1  17
TORSDOF 4
