REMARK  Name = ZINC44096785
REMARK  3 active torsions:
REMARK  status: ('A' for Active; 'I' for Inactive)
REMARK    1  A    between atoms: C_9  and  C_12
REMARK    2  A    between atoms: C_23  and  C_26
REMARK    3  A    between atoms: C_28  and  C_31
REMARK                            x       y       z     vdW  Elec       q    Type
REMARK                         _______ _______ _______ _____ _____    ______ ____
ROOT
ATOM      1  C   UNL     1       4.923  -2.637  -0.083  0.00  0.00    +0.260 C 
ATOM      2  O   UNL     1       5.704  -2.036  -0.789  0.00  0.00    -0.271 OA
ATOM      3  N   UNL     1       5.211  -3.889   0.326  0.00  0.00    -0.295 N 
ATOM      4  C   UNL     1       4.227  -4.672   1.087  0.00  0.00    +0.127 C 
ATOM      5  C   UNL     1       3.989  -6.000   0.359  0.00  0.00    +0.125 C 
ATOM      6  N   UNL     1       5.291  -6.607   0.050  0.00  0.00    -0.314 N 
ATOM      7  C   UNL     1       6.274  -5.824  -0.712  0.00  0.00    +0.125 C 
ATOM      8  C   UNL     1       6.511  -4.498   0.012  0.00  0.00    +0.127 C 
ATOM      9  C   UNL     1       5.587  -7.897   0.470  0.00  0.00    +0.099 A 
ATOM     10  C   UNL     1       4.595  -8.669   1.068  0.00  0.00    +0.042 A 
ATOM     11  C   UNL     1       4.897  -9.951   1.484  0.00  0.00    +0.016 A 
ATOM     12  C   UNL     1       6.199 -10.425   1.285  0.00  0.00    +0.038 A 
ATOM     13  C   UNL     1       7.137  -9.594   0.680  0.00  0.00    +0.095 A 
ATOM     14  N   UNL     1       6.808  -8.378   0.292  0.00  0.00    -0.349 N 
ATOM     15  H   UNL     1       7.479  -7.820  -0.131  0.00  0.00    +0.167 HD
ENDROOT
BRANCH   1  24
ATOM     16  C   UNL     1       0.131   1.516   0.204  0.00  0.00    +0.004 A 
ATOM     17  C   UNL     1       1.338   2.187   0.268  0.00  0.00    +0.004 A 
ATOM     18  C   UNL     1       2.526   1.482   0.224  0.00  0.00    +0.049 A 
ATOM     19  C   UNL     1       2.510   0.100   0.115  0.00  0.00    +0.163 A 
ATOM     20  C   UNL     1       1.297  -0.575   0.053  0.00  0.00    +0.162 A 
ATOM     21  C   UNL     1       0.108   0.138   0.097  0.00  0.00    +0.049 A 
ATOM     22  O   UNL     1       1.259  -1.932  -0.045  0.00  0.00    -0.484 OA
ATOM     23  C   UNL     1       2.466  -2.581  -0.460  0.00  0.00    +0.283 C 
ATOM     24  C   UNL     1       3.632  -1.985   0.339  0.00  0.00    +0.296 C 
ATOM     25  O   UNL     1       3.689  -0.580   0.069  0.00  0.00    -0.473 OA
ENDBRANCH   1  24
BRANCH  12  26
ATOM     26  C   UNL     1       6.574 -11.794   1.714  0.00  0.00    +0.203 A 
ATOM     27  N   UNL     1       7.790 -12.354   1.580  0.00  0.00    -0.191 NA
ATOM     28  C   UNL     1       7.779 -13.565   2.060  0.00  0.00    +0.231 A 
ATOM     29  O   UNL     1       6.550 -13.828   2.521  0.00  0.00    -0.337 OA
ATOM     30  N   UNL     1       5.777 -12.660   2.292  0.00  0.00    -0.056 NA
BRANCH  28  31
ATOM     31  C   UNL     1       8.953 -14.510   2.090  0.00  0.00    +0.078 C 
ATOM     32  C   UNL     1       8.597 -15.817   1.352  0.00  0.00    +0.013 C 
ATOM     33  C   UNL     1       9.297 -16.923   2.181  0.00  0.00    +0.001 C 
ATOM     34  C   UNL     1       9.109 -16.430   3.637  0.00  0.00    +0.001 C 
ATOM     35  C   UNL     1       9.278 -14.900   3.543  0.00  0.00    +0.013 C 
ENDBRANCH  28  31
ENDBRANCH  12  26
TORSDOF 3
