REMARK  Name = ZINC36344498
REMARK  10 active torsions:
REMARK  status: ('A' for Active; 'I' for Inactive)
REMARK    1  A    between atoms: C_1  and  O_2
REMARK    2  A    between atoms: O_2  and  C_3
REMARK    3  A    between atoms: C_6  and  C_11
REMARK    4  A    between atoms: C_7  and  O_9
REMARK    5  A    between atoms: O_9  and  C_10
REMARK    6  A    between atoms: C_14  and  C_33
REMARK    7  A    between atoms: C_17  and  C_19
REMARK    8  A    between atoms: C_19  and  N_20
REMARK    9  A    between atoms: C_23  and  C_26
REMARK   10  A    between atoms: C_26  and  C_27
REMARK                            x       y       z     vdW  Elec       q    Type
REMARK                         _______ _______ _______ _____ _____    ______ ____
ROOT
ATOM      1  C   UNL     1      -4.989  -2.621   0.037  0.00  0.00    +0.140 C 
ATOM      2  C   UNL     1      -5.390  -3.046  -1.389  0.00  0.00    +0.087 C 
ATOM      3  C   UNL     1      -6.673  -2.288  -1.648  0.00  0.00    +0.069 C 
ATOM      4  N   UNL     1      -6.969  -1.577  -0.616  0.00  0.00    -0.181 NA
ATOM      5  N   UNL     1      -6.058  -1.690   0.436  0.00  0.00    -0.187 N 
ATOM      6  C   UNL     1      -6.141  -1.054   1.622  0.00  0.00    +0.219 C 
ATOM      7  O   UNL     1      -5.287  -1.230   2.465  0.00  0.00    -0.276 OA
ENDROOT
BRANCH   3   8
ATOM      8  C   UNL     1      -7.464  -2.354  -2.892  0.00  0.00    +0.001 A 
ATOM      9  C   UNL     1      -7.045  -3.168  -3.947  0.00  0.00    +0.010 A 
ATOM     10  C   UNL     1      -7.789  -3.225  -5.107  0.00  0.00    +0.003 A 
ATOM     11  C   UNL     1      -8.947  -2.479  -5.229  0.00  0.00    +0.038 A 
ATOM     12  C   UNL     1      -9.370  -1.669  -4.187  0.00  0.00    +0.124 A 
ATOM     13  C   UNL     1      -8.637  -1.607  -3.017  0.00  0.00    +0.048 A 
ATOM     14  F   UNL     1     -10.502  -0.943  -4.312  0.00  0.00    -0.205 F 
ENDBRANCH   3   8
BRANCH   1  18
ATOM     15  C   UNL     1      -1.200  -0.637   0.010  0.00  0.00    +0.124 A 
ATOM     16  C   UNL     1      -2.375   0.102   0.019  0.00  0.00    +0.046 A 
ATOM     17  C   UNL     1      -3.597  -0.541   0.028  0.00  0.00    +0.013 A 
ATOM     18  C   UNL     1      -3.654  -1.922   0.027  0.00  0.00    +0.017 A 
ATOM     19  C   UNL     1      -2.483  -2.666   0.018  0.00  0.00    +0.129 A 
ATOM     20  C   UNL     1      -1.255  -2.022   0.003  0.00  0.00    +0.091 A 
BRANCH  15  22
ATOM     21  C   UNL     1      -0.017   1.425   0.010  0.00  0.00    +0.277 C 
ATOM     22  O   UNL     1       0.002  -0.004   0.002  0.00  0.00    -0.495 OA
ENDBRANCH  15  22
BRANCH  19  23
ATOM     23  O   UNL     1      -2.539  -4.024   0.017  0.00  0.00    -0.495 OA
ATOM     24  C   UNL     1      -1.294  -4.725   0.007  0.00  0.00    +0.277 C 
ENDBRANCH  19  23
ENDBRANCH   1  18
BRANCH   6  25
ATOM     25  C   UNL     1      -7.294  -0.125   1.899  0.00  0.00    +0.021 C 
BRANCH  25  26
ATOM     26  N   UNL     1      -7.155   0.439   3.248  0.00  0.00    +0.385 N 
ATOM     27  C   UNL     1      -7.265  -0.637   4.240  0.00  0.00    -0.078 C 
ATOM     28  C   UNL     1      -7.041  -0.068   5.643  0.00  0.00    -0.015 C 
ATOM     29  C   UNL     1      -8.098   1.002   5.929  0.00  0.00    -0.010 C 
ATOM     30  C   UNL     1      -8.023   2.082   4.846  0.00  0.00    -0.015 C 
ATOM     31  C   UNL     1      -8.211   1.433   3.473  0.00  0.00    -0.078 C 
ATOM     32  H   UNL     1      -6.253   0.882   3.335  0.00  0.00    -0.081 HD
BRANCH  29  33
ATOM     33  C   UNL     1      -7.832   1.631   7.298  0.00  0.00    +0.038 C 
BRANCH  33  34
ATOM     34  C   UNL     1      -8.941   2.596   7.632  0.00  0.00    -0.047 A 
ATOM     35  C   UNL     1      -8.840   3.922   7.254  0.00  0.00    +0.003 A 
ATOM     36  C   UNL     1      -9.858   4.806   7.561  0.00  0.00    +0.000 A 
ATOM     37  C   UNL     1     -10.975   4.365   8.244  0.00  0.00    +0.000 A 
ATOM     38  C   UNL     1     -11.076   3.038   8.621  0.00  0.00    +0.000 A 
ATOM     39  C   UNL     1     -10.060   2.153   8.311  0.00  0.00    +0.003 A 
ENDBRANCH  33  34
ENDBRANCH  29  33
ENDBRANCH  25  26
ENDBRANCH   6  25
TORSDOF 8
