REMARK  Name = ZINC12773542
REMARK  10 active torsions:
REMARK  status: ('A' for Active; 'I' for Inactive)
REMARK    1  A    between atoms: C_1  and  C_2
REMARK    2  A    between atoms: N_4  and  C_5
REMARK    3  A    between atoms: C_8  and  O_25
REMARK    4  A    between atoms: C_9  and  N_11
REMARK    5  A    between atoms: C_12  and  C_14
REMARK    6  A    between atoms: C_14  and  N_48
REMARK    7  A    between atoms: C_15  and  N_48
REMARK    8  A    between atoms: C_16  and  C_17
REMARK    9  A    between atoms: C_16  and  N_48
REMARK   10  A    between atoms: O_25  and  C_26
REMARK                            x       y       z     vdW  Elec       q    Type
REMARK                         _______ _______ _______ _____ _____    ______ ____
ROOT
ATOM      1  N   UNL     1      -5.899   1.815  -0.362  0.00  0.00    -0.284 N 
ATOM      2  C   UNL     1      -5.906   3.159  -0.466  0.00  0.00    +0.201 C 
ATOM      3  O   UNL     1      -4.867   3.780  -0.382  0.00  0.00    -0.278 OA
ATOM      4  H   UNL     1      -6.735   1.324  -0.361  0.00  0.00    +0.155 HD
ENDROOT
BRANCH   1   9
ATOM      5  C   UNL     1      -2.420   1.012   0.543  0.00  0.00    +0.035 A 
ATOM      6  C   UNL     1      -2.276  -0.237  -0.047  0.00  0.00    +0.027 A 
ATOM      7  C   UNL     1      -3.333  -0.806  -0.731  0.00  0.00    +0.049 A 
ATOM      8  C   UNL     1      -4.537  -0.128  -0.839  0.00  0.00    +0.141 A 
ATOM      9  C   UNL     1      -4.683   1.128  -0.253  0.00  0.00    +0.077 A 
ATOM     10  C   UNL     1      -3.623   1.695   0.438  0.00  0.00    +0.050 A 
BRANCH   5  14
ATOM     11  C   UNL     1       0.814   1.409   2.430  0.00  0.00    +0.109 C 
ATOM     12  C   UNL     1      -0.409   0.794   1.799  0.00  0.00    +0.214 C 
ATOM     13  O   UNL     1      -0.546  -0.411   1.790  0.00  0.00    -0.276 OA
ATOM     14  N   UNL     1      -1.348   1.584   1.241  0.00  0.00    -0.286 N 
ATOM     15  H   UNL     1      -1.282   2.548   1.323  0.00  0.00    +0.155 HD
ENDBRANCH   5  14
BRANCH   8  16
ATOM     16  O   UNL     1      -5.575  -0.687  -1.517  0.00  0.00    -0.493 OA
ATOM     17  C   UNL     1      -5.354  -1.976  -2.093  0.00  0.00    +0.277 C 
ENDBRANCH   8  16
ENDBRANCH   1   9
BRANCH   2  18
ATOM     18  C   UNL     1      -7.205   3.890  -0.688  0.00  0.00    +0.019 C 
BRANCH  18  20
ATOM     19  C   UNL     1      -6.153   5.663  -1.958  0.00  0.00    -0.095 C 
ATOM     20  N   UNL     1      -6.931   5.342  -0.743  0.00  0.00    +0.386 N 
ATOM     21  H   UNL     1      -6.385   5.610   0.084  0.00  0.00    -0.081 HD
BRANCH  20  22
ATOM     22  C   UNL     1      -8.202   6.096  -0.744  0.00  0.00    -0.041 C 
BRANCH  22  23
ATOM     23  C   UNL     1      -7.898   7.562  -0.579  0.00  0.00    -0.046 A 
ATOM     24  C   UNL     1      -8.009   8.418  -1.659  0.00  0.00    +0.004 A 
ATOM     25  C   UNL     1      -7.731   9.763  -1.508  0.00  0.00    +0.020 A 
ATOM     26  C   UNL     1      -7.339  10.254  -0.275  0.00  0.00    +0.042 A 
ATOM     27  C   UNL     1      -7.227   9.399   0.806  0.00  0.00    +0.040 A 
ATOM     28  C   UNL     1      -7.512   8.054   0.656  0.00  0.00    +0.044 A 
ATOM     29 CL   UNL     1      -7.378   6.981   2.014  0.00  0.00    -0.083 Cl
ATOM     30 CL   UNL     1      -6.989  11.944  -0.086  0.00  0.00    -0.083 Cl
ENDBRANCH  22  23
ENDBRANCH  20  22
ENDBRANCH  18  20
ENDBRANCH   2  18
TORSDOF 7
