REMARK  Name = ZINC12933629
REMARK  9 active torsions:
REMARK  status: ('A' for Active; 'I' for Inactive)
REMARK    1  A    between atoms: C_4  and  C_7
REMARK    2  A    between atoms: C_7  and  N_8
REMARK    3  A    between atoms: C_10  and  C_19
REMARK    4  A    between atoms: C_11  and  C_13
REMARK    5  A    between atoms: C_20  and  C_21
REMARK    6  A    between atoms: N_23  and  C_24
REMARK    7  A    between atoms: C_24  and  C_25
REMARK    8  A    between atoms: C_28  and  S_30
REMARK    9  A    between atoms: S_30  and  N_33
REMARK                            x       y       z     vdW  Elec       q    Type
REMARK                         _______ _______ _______ _____ _____    ______ ____
ROOT
ATOM      1  N   UNL     1      -5.198   3.539   0.046  0.00  0.00    -0.266 N 
ATOM      2  C   UNL     1      -3.877   3.300   0.044  0.00  0.00    +0.117 A 
ATOM      3  C   UNL     1      -3.694   1.931   0.030  0.00  0.00    +0.020 A 
ATOM      4  C   UNL     1      -5.035   1.335   0.033  0.00  0.00    +0.100 A 
ATOM      5  N   UNL     1      -5.896   2.328   0.043  0.00  0.00    -0.170 NA
ENDROOT
BRANCH   4   6
ATOM      6  C   UNL     1      -5.357  -0.112   0.026  0.00  0.00    +0.003 A 
ATOM      7  C   UNL     1      -4.552  -1.005  -0.679  0.00  0.00    +0.010 A 
ATOM      8  C   UNL     1      -4.854  -2.352  -0.677  0.00  0.00    +0.001 A 
ATOM      9  C   UNL     1      -5.959  -2.814   0.014  0.00  0.00    +0.000 A 
ATOM     10  C   UNL     1      -6.765  -1.932   0.711  0.00  0.00    +0.001 A 
ATOM     11  C   UNL     1      -6.470  -0.584   0.721  0.00  0.00    +0.010 A 
ENDBRANCH   4   6
BRANCH   3  12
ATOM     12  C   UNL     1      -2.413   1.214   0.020  0.00  0.00    +0.016 C 
ATOM     13  C   UNL     1      -1.252   1.905   0.018  0.00  0.00    +0.068 C 
BRANCH  13  14
ATOM     14  C   UNL     1      -0.014   1.213   0.009  0.00  0.00    +0.237 C 
ATOM     15  O   UNL     1       0.002  -0.004   0.002  0.00  0.00    -0.271 OA
ATOM     16  N   UNL     1       1.143   1.903   0.001  0.00  0.00    -0.307 N 
ATOM     17  H   UNL     1       1.130   2.873   0.007  0.00  0.00    +0.149 HD
BRANCH  16  18
ATOM     18  C   UNL     1       2.422   1.188  -0.015  0.00  0.00    +0.147 C 
BRANCH  18  19
ATOM     19  C   UNL     1       3.554   2.183  -0.020  0.00  0.00    +0.009 A 
ATOM     20  C   UNL     1       4.205   2.740   1.030  0.00  0.00    +0.015 A 
ATOM     21  C   UNL     1       5.226   3.640   0.784  0.00  0.00    +0.036 A 
ATOM     22  C   UNL     1       5.545   3.937  -0.499  0.00  0.00    +0.142 A 
ATOM     23  S   UNL     1       4.390   2.926  -1.411  0.00  0.00    -0.072 S 
BRANCH  22  24
ATOM     24  S   UNL     1       6.784   5.032  -1.109  0.00  0.00    +0.062 S 
ATOM     25  O   UNL     1       6.374   5.423  -2.412  0.00  0.00    -0.153 OA
ATOM     26  O   UNL     1       7.037   5.974  -0.076  0.00  0.00    -0.153 OA
BRANCH  24  27
ATOM     27  N   UNL     1       8.171   4.148  -1.294  0.00  0.00    -0.203 NA
ATOM     28  H   UNL     1       8.812   4.389  -1.981  0.00  0.00    +0.144 HD
ATOM     29  H   UNL     1       8.343   3.388  -0.716  0.00  0.00    +0.144 HD
ENDBRANCH  24  27
ENDBRANCH  22  24
ENDBRANCH  18  19
ENDBRANCH  16  18
ENDBRANCH  13  14
ENDBRANCH   3  12
BRANCH   1  30
ATOM     30  C   UNL     1      -5.816   4.867   0.057  0.00  0.00    +0.178 C 
BRANCH  30  34
ATOM     31  C   UNL     1      -8.527   5.205  -3.227  0.00  0.00    +0.000 A 
ATOM     32  C   UNL     1      -8.974   4.733  -2.007  0.00  0.00    +0.000 A 
ATOM     33  C   UNL     1      -8.097   4.623  -0.945  0.00  0.00    +0.005 A 
ATOM     34  C   UNL     1      -6.772   4.986  -1.102  0.00  0.00    -0.026 A 
ATOM     35  C   UNL     1      -6.326   5.463  -2.320  0.00  0.00    +0.005 A 
ATOM     36  C   UNL     1      -7.202   5.568  -3.384  0.00  0.00    +0.000 A 
ENDBRANCH  30  34
ENDBRANCH   1  30
TORSDOF 9
