REMARK  Name = ZINC15188164
REMARK  7 active torsions:
REMARK  status: ('A' for Active; 'I' for Inactive)
REMARK    1  A    between atoms: C_1  and  C_2
REMARK    2  A    between atoms: C_6  and  N_9
REMARK    3  A    between atoms: C_7  and  C_8
REMARK    4  A    between atoms: C_10  and  C_11
REMARK    5  A    between atoms: N_31  and  C_34
REMARK    6  A    between atoms: C_37  and  O_40
REMARK    7  A    between atoms: O_40  and  C_41
REMARK                            x       y       z     vdW  Elec       q    Type
REMARK                         _______ _______ _______ _____ _____    ______ ____
ROOT
ATOM      1  C   UNL     1       0.106  -4.727   1.034  0.00  0.00    +0.068 C 
ATOM      2  C   UNL     1      -1.222  -5.424   0.784  0.00  0.00    -0.027 A 
ATOM      3  C   UNL     1      -2.267  -5.451   1.663  0.00  0.00    +0.005 A 
ATOM      4  C   UNL     1      -3.426  -6.127   1.304  0.00  0.00    +0.000 A 
ATOM      5  C   UNL     1      -3.517  -6.760   0.079  0.00  0.00    +0.000 A 
ATOM      6  C   UNL     1      -2.450  -6.729  -0.810  0.00  0.00    +0.004 A 
ATOM      7  C   UNL     1      -1.313  -6.063  -0.451  0.00  0.00    -0.035 A 
ATOM      8  C   UNL     1      -0.067  -5.944  -1.314  0.00  0.00    +0.062 C 
ATOM      9  C   UNL     1       0.221  -4.453  -1.399  0.00  0.00    -0.035 A 
ATOM     10  C   UNL     1       0.312  -3.813  -0.164  0.00  0.00    -0.027 A 
ATOM     11  C   UNL     1       0.569  -2.474  -0.089  0.00  0.00    +0.005 A 
ATOM     12  C   UNL     1       0.737  -1.758  -1.267  0.00  0.00    +0.000 A 
ATOM     13  C   UNL     1       0.645  -2.392  -2.491  0.00  0.00    +0.000 A 
ATOM     14  C   UNL     1       0.384  -3.755  -2.561  0.00  0.00    +0.004 A 
ATOM     15  C   UNL     1       1.079  -6.536  -0.465  0.00  0.00    +0.101 C 
ATOM     16  C   UNL     1       1.196  -5.815   0.911  0.00  0.00    +0.109 C 
ATOM     17  C   UNL     1       0.897  -6.915   1.907  0.00  0.00    +0.232 C 
ATOM     18  O   UNL     1       0.859  -6.782   3.111  0.00  0.00    -0.274 OA
ATOM     19  N   UNL     1       0.682  -8.059   1.245  0.00  0.00    -0.210 N 
ATOM     20  C   UNL     1       0.727  -7.962  -0.100  0.00  0.00    +0.231 C 
ATOM     21  O   UNL     1       0.550  -8.865  -0.889  0.00  0.00    -0.274 OA
ENDROOT
BRANCH  19  22
ATOM     22  C   UNL     1       0.380  -9.266   1.893  0.00  0.00    +0.044 A 
ATOM     23  C   UNL     1       1.178 -10.383   1.688  0.00  0.00    +0.027 A 
ATOM     24  C   UNL     1       0.880 -11.571   2.326  0.00  0.00    +0.047 A 
ATOM     25  C   UNL     1      -0.217 -11.648   3.172  0.00  0.00    +0.120 A 
ATOM     26  C   UNL     1      -1.015 -10.532   3.377  0.00  0.00    +0.047 A 
ATOM     27  C   UNL     1      -0.715  -9.342   2.744  0.00  0.00    +0.027 A 
BRANCH  25  28
ATOM     28  O   UNL     1      -0.510 -12.817   3.801  0.00  0.00    -0.495 OA
ATOM     29  C   UNL     1      -1.653 -12.825   4.658  0.00  0.00    +0.277 C 
ENDBRANCH  25  28
ENDBRANCH  19  22
BRANCH   1  31
ATOM     30  N   UNL     1       1.269  -3.862   2.979  0.00  0.00    -0.258 NA
ATOM     31  C   UNL     1       0.149  -3.994   2.350  0.00  0.00    +0.101 C 
BRANCH  30  37
ATOM     32  C   UNL     1       5.378  -6.529   2.936  0.00  0.00    +0.044 C 
ATOM     33  C   UNL     1       4.470  -5.499   2.315  0.00  0.00    -0.046 A 
ATOM     34  C   UNL     1       4.824  -4.896   1.121  0.00  0.00    +0.004 A 
ATOM     35  C   UNL     1       3.995  -3.950   0.545  0.00  0.00    +0.002 A 
ATOM     36  C   UNL     1       2.809  -3.602   1.159  0.00  0.00    +0.028 A 
ATOM     37  C   UNL     1       2.447  -4.205   2.363  0.00  0.00    +0.067 A 
ATOM     38  C   UNL     1       3.284  -5.163   2.936  0.00  0.00    -0.022 A 
ATOM     39  C   UNL     1       2.898  -5.824   4.234  0.00  0.00    +0.046 C 
ENDBRANCH  30  37
ENDBRANCH   1  31
TORSDOF 4
