REMARK  Name = ZINC64590508
REMARK  5 active torsions:
REMARK  status: ('A' for Active; 'I' for Inactive)
REMARK    1  A    between atoms: C_1  and  C_2
REMARK    2  A    between atoms: C_5  and  C_8
REMARK    3  A    between atoms: N_22  and  S_23
REMARK    4  A    between atoms: S_23  and  C_26
REMARK    5  A    between atoms: N_35  and  C_36
REMARK                            x       y       z     vdW  Elec       q    Type
REMARK                         _______ _______ _______ _____ _____    ______ ____
ROOT
ATOM      1  C   UNL     1      -0.104  -4.884   0.114  0.00  0.00    +0.136 C 
ATOM      2  C   UNL     1       1.319  -5.422   0.299  0.00  0.00    +0.129 C 
ATOM      3  C   UNL     1       1.185  -6.797   0.941  0.00  0.00    -0.035 C 
ATOM      4  C   UNL     1       1.819  -7.647   0.141  0.00  0.00    -0.001 A 
ATOM      5  C   UNL     1       2.088  -9.089   0.262  0.00  0.00    +0.010 A 
ATOM      6  C   UNL     1       2.769  -9.659  -0.767  0.00  0.00    +0.001 A 
ATOM      7  C   UNL     1       3.203  -8.948  -1.890  0.00  0.00    +0.002 A 
ATOM      8  C   UNL     1       3.003  -7.620  -2.082  0.00  0.00    +0.026 A 
ATOM      9  C   UNL     1       2.302  -6.909  -1.065  0.00  0.00    +0.043 A 
ATOM     10  N   UNL     1       1.996  -5.626  -0.983  0.00  0.00    -0.376 N 
ATOM     11  C   UNL     1       0.388  -7.029   2.201  0.00  0.00    +0.050 C 
ATOM     12  C   UNL     1      -0.993  -6.387   1.976  0.00  0.00    +0.114 C 
ATOM     13  N   UNL     1      -0.821  -5.054   1.388  0.00  0.00    -0.167 NA
ATOM     14  H   UNL     1       2.175  -4.940  -1.645  0.00  0.00    +0.160 HD
ENDROOT
BRANCH   1  19
ATOM     15  C   UNL     1       0.086   0.719  -1.287  0.00  0.00    +0.044 C 
ATOM     16  C   UNL     1       0.037  -0.743  -0.922  0.00  0.00    -0.050 A 
ATOM     17  C   UNL     1      -1.036  -1.518  -1.320  0.00  0.00    +0.003 A 
ATOM     18  C   UNL     1      -1.081  -2.859  -0.985  0.00  0.00    +0.005 A 
ATOM     19  C   UNL     1      -0.054  -3.423  -0.252  0.00  0.00    -0.026 A 
ATOM     20  C   UNL     1       1.019  -2.647   0.145  0.00  0.00    +0.005 A 
ATOM     21  C   UNL     1       1.067  -1.308  -0.193  0.00  0.00    +0.003 A 
ENDBRANCH   1  19
BRANCH  13  22
ATOM     22  S   UNL     1      -1.438  -3.728   2.165  0.00  0.00    +0.061 S 
ATOM     23  O   UNL     1      -1.489  -4.055   3.547  0.00  0.00    -0.153 OA
ATOM     24  O   UNL     1      -0.724  -2.602   1.674  0.00  0.00    -0.153 OA
BRANCH  22  25
ATOM     25  C   UNL     1      -3.106  -3.540   1.629  0.00  0.00    +0.106 A 
ATOM     26  C   UNL     1      -3.417  -2.627   0.638  0.00  0.00    +0.030 A 
ATOM     27  C   UNL     1      -4.721  -2.474   0.215  0.00  0.00    +0.026 A 
ATOM     28  C   UNL     1      -5.735  -3.241   0.784  0.00  0.00    +0.040 A 
ATOM     29  C   UNL     1      -5.410  -4.155   1.778  0.00  0.00    -0.015 A 
ATOM     30  C   UNL     1      -4.107  -4.309   2.196  0.00  0.00    +0.034 A 
ATOM     31  C   UNL     1      -6.705  -4.820   2.185  0.00  0.00    +0.133 C 
ATOM     32  C   UNL     1      -7.748  -4.164   1.304  0.00  0.00    +0.224 C 
ATOM     33  O   UNL     1      -8.937  -4.400   1.298  0.00  0.00    -0.275 OA
ATOM     34  N   UNL     1      -7.107  -3.271   0.531  0.00  0.00    -0.274 N 
ATOM     35  C   UNL     1      -7.773  -2.426  -0.464  0.00  0.00    +0.138 C 
ENDBRANCH  22  25
ENDBRANCH  13  22
TORSDOF 3
