REMARK  Name = ZINC12812923
REMARK  5 active torsions:
REMARK  status: ('A' for Active; 'I' for Inactive)
REMARK    1  A    between atoms: C_4  and  N_15
REMARK    2  A    between atoms: C_5  and  C_7
REMARK    3  A    between atoms: N_11  and  C_12
REMARK    4  A    between atoms: N_15  and  S_16
REMARK    5  A    between atoms: S_16  and  C_19
REMARK                            x       y       z     vdW  Elec       q    Type
REMARK                         _______ _______ _______ _____ _____    ______ ____
ROOT
ATOM      1  C   UNL     1       4.737  -0.322   1.865  0.00  0.00    +0.001 A 
ATOM      2  C   UNL     1       4.920   0.341   0.663  0.00  0.00    +0.002 A 
ATOM      3  C   UNL     1       4.491   1.645   0.513  0.00  0.00    +0.025 A 
ATOM      4  C   UNL     1       3.882   2.304   1.573  0.00  0.00    +0.059 A 
ATOM      5  C   UNL     1       3.696   1.635   2.790  0.00  0.00    +0.043 A 
ATOM      6  C   UNL     1       4.129   0.316   2.926  0.00  0.00    +0.013 A 
ENDROOT
BRANCH   5   7
ATOM      7  C   UNL     1       3.044   2.324   3.924  0.00  0.00    +0.184 A 
ATOM      8  N   UNL     1       3.338   3.522   4.386  0.00  0.00    -0.108 NA
ATOM      9  N   UNL     1       2.580   3.819   5.380  0.00  0.00    -0.023 NA
ATOM     10  N   UNL     1       1.761   2.854   5.624  0.00  0.00    -0.043 NA
ATOM     11  N   UNL     1       2.026   1.845   4.682  0.00  0.00    -0.222 N 
BRANCH  11  12
ATOM     12  C   UNL     1       1.350   0.552   4.549  0.00  0.00    +0.111 C 
ATOM     13  C   UNL     1       0.032   0.363   5.302  0.00  0.00    +0.029 C 
ATOM     14  C   UNL     1       1.298  -0.348   5.785  0.00  0.00    +0.029 C 
ENDBRANCH  11  12
ENDBRANCH   5   7
BRANCH   4  15
ATOM     15  N   UNL     1       3.454   3.621   1.425  0.00  0.00    -0.216 N 
ATOM     16  H   UNL     1       3.449   4.218   2.189  0.00  0.00    +0.174 HD
BRANCH  15  17
ATOM     17  S   UNL     1       2.951   4.167  -0.056  0.00  0.00    +0.073 S 
ATOM     18  O   UNL     1       2.542   5.515   0.126  0.00  0.00    -0.150 OA
ATOM     19  O   UNL     1       2.084   3.171  -0.583  0.00  0.00    -0.150 OA
BRANCH  17  20
ATOM     20  C   UNL     1       4.367   4.207  -1.104  0.00  0.00    +0.123 A 
ATOM     21  C   UNL     1       4.418   3.403  -2.228  0.00  0.00    +0.045 A 
ATOM     22  C   UNL     1       5.529   3.435  -3.051  0.00  0.00    +0.020 A 
ATOM     23  C   UNL     1       6.587   4.276  -2.753  0.00  0.00    +0.016 A 
ATOM     24  C   UNL     1       6.538   5.075  -1.627  0.00  0.00    +0.018 A 
ATOM     25  C   UNL     1       5.426   5.043  -0.803  0.00  0.00    +0.045 A 
ATOM     26 BR   UNL     1       5.356   6.143   0.734  0.00  0.00    -0.048 Br
ATOM     27 BR   UNL     1       5.599   2.336  -4.588  0.00  0.00    -0.050 Br
ENDBRANCH  17  20
ENDBRANCH  15  17
ENDBRANCH   4  15
TORSDOF 5
