REMARK  Name = ZINC14550850
REMARK  6 active torsions:
REMARK  status: ('A' for Active; 'I' for Inactive)
REMARK    1  A    between atoms: C_2  and  C_3
REMARK    2  A    between atoms: C_3  and  N_4
REMARK    3  A    between atoms: N_4  and  S_5
REMARK    4  A    between atoms: S_5  and  C_8
REMARK    5  A    between atoms: C_21  and  C_24
REMARK    6  A    between atoms: C_27  and  N_30
REMARK                            x       y       z     vdW  Elec       q    Type
REMARK                         _______ _______ _______ _____ _____    ______ ____
ROOT
ATOM      1  C   UNL     1       1.068   1.585   3.409  0.00  0.00    +0.106 A 
ATOM      2  C   UNL     1       1.979   0.666   2.920  0.00  0.00    +0.030 A 
ATOM      3  C   UNL     1       3.331   0.865   3.105  0.00  0.00    +0.025 A 
ATOM      4  C   UNL     1       3.788   1.982   3.794  0.00  0.00    +0.031 A 
ATOM      5  C   UNL     1       2.861   2.911   4.279  0.00  0.00    -0.018 A 
ATOM      6  C   UNL     1       1.512   2.705   4.087  0.00  0.00    +0.034 A 
ATOM      7  C   UNL     1       3.390   4.102   4.979  0.00  0.00    +0.049 C 
ATOM      8  C   UNL     1       2.594   4.836   5.995  0.00  0.00    -0.023 C 
ATOM      9  C   UNL     1       3.425   5.356   6.890  0.00  0.00    -0.030 C 
ATOM     10  C   UNL     1       4.866   4.973   6.550  0.00  0.00    +0.033 C 
ATOM     11  C   UNL     1       4.663   3.669   5.767  0.00  0.00    +0.029 C 
ATOM     12  C   UNL     1       5.697   3.328   4.709  0.00  0.00    +0.105 C 
ATOM     13  N   UNL     1       5.164   2.148   3.996  0.00  0.00    -0.336 N 
ATOM     14  H   UNL     1       5.778   1.475   3.662  0.00  0.00    +0.147 HD
ENDROOT
BRANCH  12  15
ATOM     15  C   UNL     1       5.865   4.482   3.754  0.00  0.00    -0.027 A 
ATOM     16  C   UNL     1       5.102   4.543   2.603  0.00  0.00    +0.008 A 
ATOM     17  C   UNL     1       5.253   5.603   1.729  0.00  0.00    +0.033 A 
ATOM     18  C   UNL     1       6.173   6.598   2.002  0.00  0.00    +0.126 A 
ATOM     19  C   UNL     1       6.940   6.534   3.150  0.00  0.00    +0.033 A 
ATOM     20  C   UNL     1       6.786   5.476   4.026  0.00  0.00    +0.008 A 
BRANCH  18  21
ATOM     21  N   UNL     1       6.339   7.730   1.063  0.00  0.00    +0.056 N 
ATOM     22  O   UNL     1       7.151   8.606   1.303  0.00  0.00    -0.126 OA
ATOM     23  O   UNL     1       5.663   7.786   0.051  0.00  0.00    -0.126 OA
ENDBRANCH  18  21
ENDBRANCH  12  15
BRANCH   1  24
ATOM     24  S   UNL     1      -0.659   1.325   3.173  0.00  0.00    +0.059 S 
ATOM     25  O   UNL     1      -1.322   2.046   4.203  0.00  0.00    -0.153 OA
ATOM     26  O   UNL     1      -0.837  -0.072   2.985  0.00  0.00    -0.153 OA
BRANCH  24  27
ATOM     27  N   UNL     1      -1.073   2.053   1.744  0.00  0.00    -0.186 NA
ATOM     28  H   UNL     1      -1.680   2.810   1.744  0.00  0.00    +0.148 HD
BRANCH  27  29
ATOM     29  C   UNL     1      -0.524   1.552   0.482  0.00  0.00    +0.132 C 
BRANCH  29  31
ATOM     30  C   UNL     1      -0.703   2.771  -1.627  0.00  0.00    +0.005 C 
ATOM     31  C   UNL     1      -1.315   2.118  -0.669  0.00  0.00    -0.018 C 
ENDBRANCH  29  31
ENDBRANCH  27  29
ENDBRANCH  24  27
ENDBRANCH   1  24
TORSDOF 6
