REMARK  Name = ZINC66212895
REMARK  9 active torsions:
REMARK  status: ('A' for Active; 'I' for Inactive)
REMARK    1  A    between atoms: C_1  and  C_2
REMARK    2  A    between atoms: C_2  and  C_4
REMARK    3  A    between atoms: C_2  and  N_10
REMARK    4  A    between atoms: N_10  and  C_11
REMARK    5  A    between atoms: C_11  and  C_12
REMARK    6  A    between atoms: N_14  and  C_15
REMARK    7  A    between atoms: C_19  and  C_21
REMARK    8  A    between atoms: N_23  and  C_24
REMARK    9  A    between atoms: C_28  and  C_30
REMARK                            x       y       z     vdW  Elec       q    Type
REMARK                         _______ _______ _______ _____ _____    ______ ____
ROOT
ATOM      1  C   UNL     1       0.430  -2.031  -5.737  0.00  0.00    +0.034 A 
ATOM      2  C   UNL     1       1.797  -2.241  -5.601  0.00  0.00    +0.023 A 
ATOM      3  C   UNL     1       2.557  -2.612  -6.694  0.00  0.00    +0.003 A 
ATOM      4  C   UNL     1       1.963  -2.775  -7.929  0.00  0.00    +0.013 A 
ATOM      5  C   UNL     1       0.591  -2.567  -8.077  0.00  0.00    +0.039 A 
ATOM      6  C   UNL     1      -0.177  -2.199  -6.972  0.00  0.00    +0.036 A 
ENDROOT
BRANCH   1   9
ATOM      7  C   UNL     1      -1.595  -2.114  -4.491  0.00  0.00    +0.231 C 
ATOM      8  O   UNL     1      -2.096  -2.783  -5.370  0.00  0.00    -0.274 OA
ATOM      9  N   UNL     1      -0.335  -1.656  -4.627  0.00  0.00    -0.284 N 
ATOM     10  H   UNL     1       0.042  -1.066  -3.955  0.00  0.00    +0.155 HD
BRANCH   7  11
ATOM     11  C   UNL     1      -2.383  -1.796  -3.246  0.00  0.00    +0.178 C 
BRANCH  11  12
ATOM     12  N   UNL     1      -3.716  -2.405  -3.341  0.00  0.00    -0.302 NA
ATOM     13  H   UNL     1      -3.649  -3.399  -3.498  0.00  0.00    +0.123 HD
BRANCH  12  15
ATOM     14  C   UNL     1      -4.193  -3.142  -1.055  0.00  0.00    +0.029 C 
ATOM     15  C   UNL     1      -4.514  -2.114  -2.142  0.00  0.00    +0.081 C 
BRANCH  15  16
ATOM     16  C   UNL     1      -5.980  -2.186  -2.485  0.00  0.00    -0.031 A 
ATOM     17  C   UNL     1      -6.445  -3.179  -3.326  0.00  0.00    +0.005 A 
ATOM     18  C   UNL     1      -7.790  -3.245  -3.641  0.00  0.00    +0.000 A 
ATOM     19  C   UNL     1      -8.669  -2.318  -3.112  0.00  0.00    +0.000 A 
ATOM     20  C   UNL     1      -8.204  -1.326  -2.270  0.00  0.00    +0.000 A 
ATOM     21  C   UNL     1      -6.860  -1.263  -1.952  0.00  0.00    +0.005 A 
ENDBRANCH  15  16
ENDBRANCH  12  15
ENDBRANCH  11  12
ENDBRANCH   7  11
ENDBRANCH   1   9
BRANCH   5  22
ATOM     22  C   UNL     1      -0.047  -2.741  -9.399  0.00  0.00    +0.248 C 
ATOM     23  O   UNL     1      -1.242  -2.558  -9.526  0.00  0.00    -0.270 OA
ATOM     24  N   UNL     1       0.696  -3.101 -10.464  0.00  0.00    -0.281 N 
ATOM     25  H   UNL     1       1.634  -3.318 -10.350  0.00  0.00    +0.155 HD
BRANCH  24  26
ATOM     26  C   UNL     1       0.114  -3.162 -11.734  0.00  0.00    +0.034 A 
ATOM     27  C   UNL     1       0.541  -4.116 -12.650  0.00  0.00    +0.023 A 
ATOM     28  C   UNL     1      -0.036  -4.173 -13.904  0.00  0.00    +0.002 A 
ATOM     29  C   UNL     1      -1.036  -3.282 -14.248  0.00  0.00    +0.012 A 
ATOM     30  C   UNL     1      -1.463  -2.332 -13.339  0.00  0.00    +0.057 A 
ATOM     31  C   UNL     1      -0.895  -2.273 -12.081  0.00  0.00    +0.035 A 
BRANCH  30  32
ATOM     32  C   UNL     1      -2.553  -1.363 -13.719  0.00  0.00    +0.417 C 
ATOM     33  F   UNL     1      -2.970  -1.621 -15.029  0.00  0.00    -0.166 F 
ATOM     34  F   UNL     1      -3.636  -1.514 -12.846  0.00  0.00    -0.166 F 
ATOM     35  F   UNL     1      -2.064  -0.055 -13.634  0.00  0.00    -0.166 F 
ENDBRANCH  30  32
ENDBRANCH  24  26
ENDBRANCH   5  22
TORSDOF 8
