REMARK  Name = ZINC13815900
REMARK  2 active torsions:
REMARK  status: ('A' for Active; 'I' for Inactive)
REMARK    1  A    between atoms: C_6  and  C_7
REMARK    2  A    between atoms: N_15  and  C_18
REMARK                            x       y       z     vdW  Elec       q    Type
REMARK                         _______ _______ _______ _____ _____    ______ ____
ROOT
ATOM      1  C   UNL     1      -2.503   3.970   0.057  0.00  0.00    +0.092 C 
ATOM      2  N   UNL     1      -2.693   5.249   0.041  0.00  0.00    -0.088 NA
ATOM      3  O   UNL     1      -4.065   5.603   0.043  0.00  0.00    -0.377 OA
ATOM      4  C   UNL     1      -4.801   4.447   0.439  0.00  0.00    +0.228 C 
ATOM      5  C   UNL     1      -3.862   3.288   0.071  0.00  0.00    +0.120 C 
ATOM      6  C   UNL     1      -6.142   4.334  -0.287  0.00  0.00    +0.157 C 
ATOM      7  C   UNL     1      -7.144   4.287   0.851  0.00  0.00    +0.231 C 
ATOM      8  O   UNL     1      -8.346   4.197   0.726  0.00  0.00    -0.275 OA
ATOM      9  N   UNL     1      -6.487   4.360   2.018  0.00  0.00    -0.207 N 
ATOM     10  C   UNL     1      -5.152   4.453   1.897  0.00  0.00    +0.274 C 
ATOM     11  O   UNL     1      -4.363   4.531   2.814  0.00  0.00    -0.270 OA
ENDROOT
BRANCH   1  17
ATOM     12  C   UNL     1      -1.128   1.895   0.066  0.00  0.00    +0.011 A 
ATOM     13  C   UNL     1       0.099   1.265   0.069  0.00  0.00    +0.020 A 
ATOM     14  C   UNL     1       1.264   2.013   0.049  0.00  0.00    +0.041 A 
ATOM     15  C   UNL     1       1.206   3.396   0.032  0.00  0.00    +0.020 A 
ATOM     16  C   UNL     1      -0.015   4.038   0.035  0.00  0.00    +0.011 A 
ATOM     17  C   UNL     1      -1.194   3.290   0.054  0.00  0.00    -0.000 A 
ATOM     18 CL   UNL     1       2.804   1.212   0.046  0.00  0.00    -0.084 Cl
ENDBRANCH   1  17
BRANCH   9  19
ATOM     19  C   UNL     1      -7.138   4.340   3.260  0.00  0.00    +0.044 A 
ATOM     20  C   UNL     1      -6.976   3.256   4.113  0.00  0.00    +0.025 A 
ATOM     21  C   UNL     1      -7.615   3.241   5.337  0.00  0.00    +0.017 A 
ATOM     22  C   UNL     1      -8.425   4.299   5.709  0.00  0.00    +0.018 A 
ATOM     23  C   UNL     1      -8.592   5.378   4.859  0.00  0.00    +0.017 A 
ATOM     24  C   UNL     1      -7.951   5.400   3.635  0.00  0.00    +0.025 A 
ATOM     25 BR   UNL     1      -9.304   4.272   7.383  0.00  0.00    -0.050 Br
ENDBRANCH   9  19
TORSDOF 2
