REMARK  Name = ZINC38703064
REMARK  6 active torsions:
REMARK  status: ('A' for Active; 'I' for Inactive)
REMARK    1  A    between atoms: C_1  and  C_2
REMARK    2  A    between atoms: C_7  and  C_8
REMARK    3  A    between atoms: C_14  and  C_19
REMARK    4  A    between atoms: C_21  and  O_27
REMARK    5  A    between atoms: C_22  and  O_26
REMARK    6  A    between atoms: O_27  and  C_28
REMARK                            x       y       z     vdW  Elec       q    Type
REMARK                         _______ _______ _______ _____ _____    ______ ____
ROOT
ATOM      1  C   UNL     1      -0.018   1.503   0.010  0.00  0.00    +0.044 C 
ATOM      2  C   UNL     1       0.002  -0.004   0.002  0.00  0.00    -0.047 A 
ATOM      3  C   UNL     1       0.006  -0.685  -1.195  0.00  0.00    +0.019 A 
ATOM      4  C   UNL     1       0.024  -2.080  -1.194  0.00  0.00    +0.065 A 
ATOM      5  C   UNL     1       0.033  -2.793   0.016  0.00  0.00    +0.140 A 
ATOM      6  C   UNL     1       0.033  -2.080   1.214  0.00  0.00    +0.050 A 
ATOM      7  C   UNL     1       0.023  -0.703   1.200  0.00  0.00    -0.044 A 
ATOM      8  C   UNL     1       0.029   0.053   2.503  0.00  0.00    +0.044 C 
ATOM      9  O   UNL     1       0.037  -4.145   0.057  0.00  0.00    -0.450 OA
ATOM     10  C   UNL     1       0.273  -4.846  -1.070  0.00  0.00    +0.199 A 
ATOM     11  C   UNL     1       0.280  -4.269  -2.308  0.00  0.00    +0.072 A 
ATOM     12  C   UNL     1       0.036  -2.832  -2.474  0.00  0.00    +0.199 A 
ATOM     13  O   UNL     1      -0.140  -2.306  -3.559  0.00  0.00    -0.287 OA
ATOM     14  C   UNL     1       0.566  -5.340  -3.308  0.00  0.00    +0.142 C 
ATOM     15  N   UNL     1       0.729  -6.581  -2.533  0.00  0.00    -0.298 N 
ATOM     16  C   UNL     1       0.557  -6.283  -1.228  0.00  0.00    +0.281 C 
ATOM     17  O   UNL     1       0.627  -7.083  -0.317  0.00  0.00    -0.267 OA
ATOM     18  H   UNL     1       0.925  -7.458  -2.896  0.00  0.00    +0.150 HD
ENDROOT
BRANCH  14  19
ATOM     19  C   UNL     1      -0.586  -5.474  -4.271  0.00  0.00    -0.018 A 
ATOM     20  C   UNL     1      -0.509  -4.895  -5.524  0.00  0.00    +0.055 A 
ATOM     21  C   UNL     1      -1.567  -5.018  -6.410  0.00  0.00    +0.163 A 
ATOM     22  C   UNL     1      -2.706  -5.724  -6.036  0.00  0.00    +0.173 A 
ATOM     23  C   UNL     1      -2.777  -6.303  -4.778  0.00  0.00    +0.063 A 
ATOM     24  C   UNL     1      -1.715  -6.181  -3.900  0.00  0.00    +0.025 A 
ATOM     25 BR   UNL     1      -4.323  -7.264  -4.265  0.00  0.00    -0.046 Br
BRANCH  22  26
ATOM     26  O   UNL     1      -3.748  -5.846  -6.902  0.00  0.00    -0.503 OA
ATOM     27  H   UNL     1      -3.694  -6.624  -7.474  0.00  0.00    +0.292 HD
ENDBRANCH  22  26
BRANCH  21  28
ATOM     28  O   UNL     1      -1.493  -4.448  -7.643  0.00  0.00    -0.491 OA
ATOM     29  C   UNL     1      -0.293  -3.737  -7.958  0.00  0.00    +0.277 C 
ENDBRANCH  21  28
ENDBRANCH  14  19
TORSDOF 3
