REMARK  Name = ZINC15943453
REMARK  6 active torsions:
REMARK  status: ('A' for Active; 'I' for Inactive)
REMARK    1  A    between atoms: C_1  and  C_2
REMARK    2  A    between atoms: C_9  and  C_11
REMARK    3  A    between atoms: N_16  and  S_18
REMARK    4  A    between atoms: S_18  and  C_21
REMARK    5  A    between atoms: C_28  and  C_34
REMARK    6  A    between atoms: C_31  and  C_33
REMARK                            x       y       z     vdW  Elec       q    Type
REMARK                         _______ _______ _______ _____ _____    ______ ____
ROOT
ATOM      1  S   UNL     1      -1.553  -7.656   3.217  0.00  0.00    +0.061 S 
ATOM      2  O   UNL     1      -2.651  -6.814   2.894  0.00  0.00    -0.153 OA
ATOM      3  O   UNL     1      -1.335  -8.904   2.574  0.00  0.00    -0.153 OA
ENDROOT
BRANCH   1   4
ATOM      4  C   UNL     1      -1.667  -7.993   4.943  0.00  0.00    +0.106 A 
ATOM      5  C   UNL     1      -1.076  -9.127   5.469  0.00  0.00    +0.030 A 
ATOM      6  C   UNL     1      -1.164  -9.393   6.819  0.00  0.00    +0.026 A 
ATOM      7  C   UNL     1      -1.851  -8.520   7.665  0.00  0.00    +0.040 A 
ATOM      8  C   UNL     1      -2.440  -7.387   7.128  0.00  0.00    -0.022 A 
ATOM      9  C   UNL     1      -2.344  -7.121   5.776  0.00  0.00    +0.034 A 
ATOM     10  C   UNL     1      -3.112  -6.620   8.244  0.00  0.00    +0.059 C 
ATOM     11  C   UNL     1      -2.840  -7.454   9.507  0.00  0.00    +0.083 C 
ATOM     12  N   UNL     1      -2.056  -8.603   9.046  0.00  0.00    -0.268 N 
ATOM     13  C   UNL     1      -1.601  -9.595   9.836  0.00  0.00    +0.217 C 
ATOM     14  O   UNL     1      -0.924 -10.484   9.365  0.00  0.00    -0.276 OA
ATOM     15  C   UNL     1      -1.934  -9.600  11.306  0.00  0.00    +0.109 C 
ATOM     16  C   UNL     1      -2.038  -6.635  10.521  0.00  0.00    +0.029 C 
ENDBRANCH   1   4
BRANCH   1  21
ATOM     17  C   UNL     1       0.380  -4.727   1.752  0.00  0.00    +0.091 C 
ATOM     18  C   UNL     1       1.784  -5.303   1.562  0.00  0.00    +0.015 C 
ATOM     19  C   UNL     1       1.700  -6.825   1.431  0.00  0.00    +0.018 C 
ATOM     20  C   UNL     1       1.106  -7.413   2.715  0.00  0.00    +0.109 C 
ATOM     21  N   UNL     1      -0.182  -6.758   2.983  0.00  0.00    -0.176 NA
ATOM     22  C   UNL     1      -0.230  -5.290   3.040  0.00  0.00    +0.122 C 
BRANCH  17  30
ATOM     23  C   UNL     1      -0.464   1.012  -0.252  0.00  0.00    +0.009 C 
ATOM     24  C   UNL     1      -0.492  -0.517  -0.205  0.00  0.00    +0.003 C 
ATOM     25  C   UNL     1      -0.172  -1.076  -1.594  0.00  0.00    +0.006 C 
ATOM     26  C   UNL     1      -0.231  -2.605  -1.556  0.00  0.00    +0.019 C 
ATOM     27  C   UNL     1       0.818  -3.129  -0.570  0.00  0.00    +0.108 C 
ATOM     28  N   UNL     1       0.606  -2.485   0.733  0.00  0.00    -0.301 N 
ATOM     29  C   UNL     1       0.554  -1.018   0.796  0.00  0.00    +0.111 C 
ATOM     30  C   UNL     1       0.461  -3.225   1.850  0.00  0.00    +0.220 C 
ATOM     31  O   UNL     1       0.395  -2.683   2.933  0.00  0.00    -0.275 OA
ENDBRANCH  17  30
ENDBRANCH   1  21
TORSDOF 3
