REMARK  Name = ZINC35892321
REMARK  5 active torsions:
REMARK  status: ('A' for Active; 'I' for Inactive)
REMARK    1  A    between atoms: C_1  and  C_2
REMARK    2  A    between atoms: C_2  and  C_3
REMARK    3  A    between atoms: C_3  and  C_5
REMARK    4  A    between atoms: C_3  and  C_6
REMARK    5  A    between atoms: C_26  and  C_28
REMARK                            x       y       z     vdW  Elec       q    Type
REMARK                         _______ _______ _______ _____ _____    ______ ____
ROOT
ATOM      1  C   UNL     1      -1.242  -1.990   0.251  0.00  0.00    +0.135 A 
ATOM      2  N   UNL     1      -1.838  -2.576   1.275  0.00  0.00    -0.216 NA
ATOM      3  C   UNL     1      -2.025  -3.885   1.327  0.00  0.00    +0.133 A 
ATOM      4  C   UNL     1      -1.570  -4.691   0.247  0.00  0.00    +0.051 A 
ATOM      5  C   UNL     1      -1.667  -6.147   0.090  0.00  0.00    -0.025 A 
ATOM      6  C   UNL     1      -1.148  -6.671  -1.038  0.00  0.00    -0.004 A 
ATOM      7  S   UNL     1      -0.518  -5.284  -1.949  0.00  0.00    -0.073 S 
ATOM      8  C   UNL     1      -0.946  -3.997  -0.806  0.00  0.00    +0.114 A 
ATOM      9  N   UNL     1      -0.804  -2.686  -0.780  0.00  0.00    -0.224 NA
ATOM     10  C   UNL     1      -1.095  -8.111  -1.442  0.00  0.00    +0.043 C 
ATOM     11  C   UNL     1      -2.484  -8.738  -1.268  0.00  0.00    +0.005 C 
ATOM     12  C   UNL     1      -2.586  -9.294   0.149  0.00  0.00    +0.001 C 
ATOM     13  C   UNL     1      -1.777  -8.426   1.110  0.00  0.00    +0.005 C 
ATOM     14  C   UNL     1      -2.339  -7.011   1.155  0.00  0.00    +0.037 C 
ATOM     15  N   UNL     1      -2.653  -4.461   2.416  0.00  0.00    -0.312 N 
ATOM     16  C   UNL     1      -1.892  -4.795   3.628  0.00  0.00    +0.125 C 
ATOM     17  C   UNL     1      -2.556  -4.110   4.829  0.00  0.00    +0.127 C 
ATOM     18  N   UNL     1      -3.997  -4.398   4.796  0.00  0.00    -0.295 N 
ATOM     19  C   UNL     1      -4.758  -4.064   3.584  0.00  0.00    +0.127 C 
ATOM     20  C   UNL     1      -4.095  -4.743   2.385  0.00  0.00    +0.125 C 
ATOM     21  C   UNL     1      -4.609  -4.959   5.857  0.00  0.00    +0.248 C 
ATOM     22  O   UNL     1      -3.987  -5.158   6.883  0.00  0.00    -0.270 OA
ENDROOT
BRANCH  21  23
ATOM     23  C   UNL     1      -6.036  -5.332   5.775  0.00  0.00    +0.055 A 
ATOM     24  C   UNL     1      -6.989  -4.382   5.401  0.00  0.00    +0.016 A 
ATOM     25  C   UNL     1      -8.319  -4.736   5.326  0.00  0.00    +0.021 A 
ATOM     26  C   UNL     1      -8.712  -6.032   5.621  0.00  0.00    +0.042 A 
ATOM     27  C   UNL     1      -7.774  -6.979   5.993  0.00  0.00    +0.040 A 
ATOM     28  C   UNL     1      -6.437  -6.639   6.065  0.00  0.00    +0.054 A 
ATOM     29 CL   UNL     1      -5.260  -7.830   6.524  0.00  0.00    -0.083 Cl
ATOM     30 CL   UNL     1     -10.389  -6.469   5.525  0.00  0.00    -0.083 Cl
ENDBRANCH  21  23
BRANCH   1  31
ATOM     31  C   UNL     1      -1.064  -0.494   0.260  0.00  0.00    +0.054 C 
ATOM     32  C   UNL     1      -1.789   0.113  -0.943  0.00  0.00    +0.015 C 
BRANCH  31  34
ATOM     33  C   UNL     1       0.616   1.355   0.314  0.00  0.00    +0.004 C 
ATOM     34  C   UNL     1       0.426  -0.157   0.180  0.00  0.00    +0.007 C 
ENDBRANCH  31  34
ENDBRANCH   1  31
TORSDOF 3
