REMARK  Name = ZINC05645706
REMARK  16 active torsions:
REMARK  status: ('A' for Active; 'I' for Inactive)
REMARK    1  A    between atoms: C_1  and  C_2
REMARK    2  A    between atoms: C_2  and  C_3
REMARK    3  A    between atoms: C_3  and  C_4
REMARK    4  A    between atoms: C_4  and  C_5
REMARK    5  A    between atoms: C_5  and  C_6
REMARK    6  A    between atoms: C_6  and  O_7
REMARK    7  A    between atoms: O_7  and  C_8
REMARK    8  A    between atoms: C_11  and  C_16
REMARK    9  A    between atoms: C_13  and  O_14
REMARK   10  A    between atoms: O_14  and  C_15
REMARK   11  A    between atoms: C_17  and  C_18
REMARK   12  A    between atoms: C_17  and  C_20
REMARK   13  A    between atoms: N_22  and  C_23
REMARK   14  A    between atoms: C_23  and  C_24
REMARK   15  A    between atoms: C_24  and  O_25
REMARK   16  A    between atoms: O_25  and  C_26
REMARK                            x       y       z     vdW  Elec       q    Type
REMARK                         _______ _______ _______ _____ _____    ______ ____
ROOT
ATOM      1  C   UNL     1       0.049  -0.004  -0.104  0.00  0.00    +0.162 A 
ATOM      2  C   UNL     1       1.248  -0.696  -0.223  0.00  0.00    +0.050 A 
ATOM      3  C   UNL     1       1.260  -2.072  -0.191  0.00  0.00    +0.012 A 
ATOM      4  C   UNL     1       0.057  -2.779  -0.050  0.00  0.00    -0.020 A 
ATOM      5  C   UNL     1      -1.153  -2.079   0.065  0.00  0.00    +0.057 A 
ATOM      6  C   UNL     1      -1.153  -0.700   0.038  0.00  0.00    +0.162 A 
ENDROOT
BRANCH   6   7
ATOM      7  O   UNL     1      -2.324  -0.018   0.149  0.00  0.00    -0.491 OA
ATOM      8  C   UNL     1      -3.515  -0.794   0.291  0.00  0.00    +0.277 C 
ENDBRANCH   6   7
BRANCH   4   9
ATOM      9  C   UNL     1       0.065  -4.243  -0.022  0.00  0.00    +0.032 C 
ATOM     10  C   UNL     1       1.162  -4.917   0.468  0.00  0.00    +0.114 C 
BRANCH  10  11
ATOM     11  C   UNL     1       1.234  -6.383   0.360  0.00  0.00    +0.254 C 
ATOM     12  O   UNL     1       0.325  -6.999  -0.163  0.00  0.00    -0.269 OA
ATOM     13  N   UNL     1       2.307  -7.042   0.839  0.00  0.00    -0.309 N 
ATOM     14  H   UNL     1       3.032  -6.551   1.256  0.00  0.00    +0.149 HD
BRANCH  13  15
ATOM     15  C   UNL     1       2.379  -8.502   0.731  0.00  0.00    +0.132 C 
BRANCH  15  16
ATOM     16  C   UNL     1       3.689  -8.995   1.347  0.00  0.00    +0.178 C 
BRANCH  16  17
ATOM     17  O   UNL     1       3.689  -8.719   2.750  0.00  0.00    -0.381 OA
ATOM     18  C   UNL     1       4.875  -9.143   3.425  0.00  0.00    +0.194 C 
ENDBRANCH  16  17
ENDBRANCH  15  16
ENDBRANCH  13  15
ENDBRANCH  10  11
BRANCH  10  19
ATOM     19  C   UNL     1       2.232  -4.192   1.084  0.00  0.00    +0.104 C 
ATOM     20  N   UNL     1       3.081  -3.616   1.572  0.00  0.00    -0.191 NA
ENDBRANCH  10  19
ENDBRANCH   4   9
BRANCH   1  21
ATOM     21  O   UNL     1       0.045   1.353  -0.130  0.00  0.00    -0.488 OA
BRANCH  21  22
ATOM     22  C   UNL     1       1.310   2.002  -0.277  0.00  0.00    +0.229 C 
BRANCH  22  23
ATOM     23  C   UNL     1       1.107   3.519  -0.286  0.00  0.00    +0.041 C 
BRANCH  23  24
ATOM     24  C   UNL     1       2.460   4.214  -0.443  0.00  0.00    +0.003 C 
BRANCH  24  25
ATOM     25  C   UNL     1       2.257   5.730  -0.452  0.00  0.00    -0.000 C 
BRANCH  25  27
ATOM     26  C   UNL     1       3.408   7.942  -0.618  0.00  0.00    +0.004 C 
ATOM     27  C   UNL     1       3.611   6.425  -0.610  0.00  0.00    -0.003 C 
ENDBRANCH  25  27
ENDBRANCH  24  25
ENDBRANCH  23  24
ENDBRANCH  22  23
ENDBRANCH  21  22
ENDBRANCH   1  21
TORSDOF 13
