REMARK  Name = ZINC09497963
REMARK  9 active torsions:
REMARK  status: ('A' for Active; 'I' for Inactive)
REMARK    1  A    between atoms: C_1  and  C_2
REMARK    2  A    between atoms: C_2  and  C_4
REMARK    3  A    between atoms: C_2  and  N_51
REMARK    4  A    between atoms: N_6  and  C_7
REMARK    5  A    between atoms: C_10  and  S_13
REMARK    6  A    between atoms: S_13  and  N_16
REMARK    7  A    between atoms: C_17  and  C_19
REMARK    8  A    between atoms: C_17  and  C_25
REMARK    9  A    between atoms: C_17  and  N_51
REMARK                            x       y       z     vdW  Elec       q    Type
REMARK                         _______ _______ _______ _____ _____    ______ ____
ROOT
ATOM      1  C   UNL     1       1.778  -4.855   0.980  0.00  0.00    -0.004 C 
ATOM      2  C   UNL     1       2.425  -4.236  -0.260  0.00  0.00    +0.014 C 
ENDROOT
BRANCH   2   3
ATOM      3  C   UNL     1       2.410  -2.734  -0.138  0.00  0.00    +0.203 C 
ATOM      4  O   UNL     1       3.452  -2.114  -0.144  0.00  0.00    -0.277 OA
ATOM      5  N   UNL     1       1.237  -2.079  -0.021  0.00  0.00    -0.287 N 
ATOM      6  H   UNL     1       0.409  -2.578   0.061  0.00  0.00    +0.155 HD
BRANCH   5   7
ATOM      7  C   UNL     1       1.214  -0.680  -0.019  0.00  0.00    +0.033 A 
ATOM      8  C   UNL     1       2.137   0.032  -0.773  0.00  0.00    +0.025 A 
ATOM      9  C   UNL     1       2.112   1.413  -0.768  0.00  0.00    +0.030 A 
ATOM     10  C   UNL     1       1.169   2.086  -0.013  0.00  0.00    +0.105 A 
ATOM     11  C   UNL     1       0.249   1.379   0.739  0.00  0.00    +0.030 A 
ATOM     12  C   UNL     1       0.269  -0.001   0.738  0.00  0.00    +0.025 A 
BRANCH  10  13
ATOM     13  S   UNL     1       1.141   3.848  -0.009  0.00  0.00    +0.056 S 
ATOM     14  O   UNL     1       0.513   4.241   1.203  0.00  0.00    -0.153 OA
ATOM     15  O   UNL     1       2.449   4.276  -0.362  0.00  0.00    -0.153 OA
BRANCH  13  16
ATOM     16  N   UNL     1       0.139   4.324  -1.238  0.00  0.00    -0.204 NA
ATOM     17  H   UNL     1      -0.298   3.659  -1.793  0.00  0.00    +0.144 HD
ATOM     18  H   UNL     1      -0.011   5.268  -1.403  0.00  0.00    +0.144 HD
ENDBRANCH  13  16
ENDBRANCH  10  13
ENDBRANCH   5   7
ENDBRANCH   2   3
BRANCH   2  19
ATOM     19  N   UNL     1       3.822  -4.698  -0.369  0.00  0.00    +0.394 N 
ATOM     20  H   UNL     1       4.220  -4.799   0.572  0.00  0.00    -0.083 HD
ATOM     21  H   UNL     1       4.367  -4.008  -0.899  0.00  0.00    -0.083 HD
BRANCH  19  22
ATOM     22  C   UNL     1       3.878  -5.999  -1.063  0.00  0.00    -0.009 C 
BRANCH  22  23
ATOM     23  C   UNL     1       5.234  -6.162  -1.700  0.00  0.00    -0.057 A 
ATOM     24  C   UNL     1       6.367  -5.739  -1.030  0.00  0.00    +0.004 A 
ATOM     25  C   UNL     1       7.612  -5.893  -1.611  0.00  0.00    +0.020 A 
ATOM     26  C   UNL     1       7.722  -6.460  -2.868  0.00  0.00    +0.041 A 
ATOM     27  C   UNL     1       6.588  -6.878  -3.540  0.00  0.00    +0.020 A 
ATOM     28  C   UNL     1       5.344  -6.729  -2.956  0.00  0.00    +0.004 A 
ATOM     29 CL   UNL     1       9.285  -6.647  -3.602  0.00  0.00    -0.084 Cl
ENDBRANCH  22  23
BRANCH  22  30
ATOM     30  C   UNL     1       3.652  -7.109  -0.070  0.00  0.00    -0.057 A 
ATOM     31  C   UNL     1       4.220  -7.037   1.188  0.00  0.00    +0.002 A 
ATOM     32  C   UNL     1       4.009  -8.053   2.101  0.00  0.00    +0.000 A 
ATOM     33  C   UNL     1       3.240  -9.148   1.752  0.00  0.00    +0.000 A 
ATOM     34  C   UNL     1       2.677  -9.222   0.492  0.00  0.00    +0.000 A 
ATOM     35  C   UNL     1       2.883  -8.204  -0.420  0.00  0.00    +0.002 A 
ENDBRANCH  22  30
ENDBRANCH  19  22
ENDBRANCH   2  19
TORSDOF 8
