REMARK  Name = ZINC08710713
REMARK  9 active torsions:
REMARK  status: ('A' for Active; 'I' for Inactive)
REMARK    1  A    between atoms: C_1  and  C_2
REMARK    2  A    between atoms: C_2  and  C_4
REMARK    3  A    between atoms: C_2  and  N_60
REMARK    4  A    between atoms: C_7  and  S_10
REMARK    5  A    between atoms: S_10  and  C_13
REMARK    6  A    between atoms: C_14  and  C_15
REMARK    7  A    between atoms: C_14  and  N_60
REMARK    8  A    between atoms: N_17  and  C_18
REMARK    9  A    between atoms: C_21  and  N_24
REMARK                            x       y       z     vdW  Elec       q    Type
REMARK                         _______ _______ _______ _____ _____    ______ ____
ROOT
ATOM      1  C   UNL     1      -1.092   4.149   8.364  0.00  0.00    +0.200 C 
ATOM      2  O   UNL     1      -0.154   4.724   7.853  0.00  0.00    -0.278 OA
ATOM      3  N   UNL     1      -1.217   4.121   9.705  0.00  0.00    -0.287 N 
ATOM      4  H   UNL     1      -1.996   3.710  10.111  0.00  0.00    +0.155 HD
ENDROOT
BRANCH   3   5
ATOM      5  C   UNL     1      -0.221   4.685  10.513  0.00  0.00    +0.033 A 
ATOM      6  C   UNL     1       0.092   4.106  11.736  0.00  0.00    +0.025 A 
ATOM      7  C   UNL     1       1.077   4.660  12.530  0.00  0.00    +0.025 A 
ATOM      8  C   UNL     1       1.748   5.801  12.110  0.00  0.00    +0.030 A 
ATOM      9  C   UNL     1       1.431   6.383  10.890  0.00  0.00    +0.025 A 
ATOM     10  C   UNL     1       0.449   5.827  10.094  0.00  0.00    +0.025 A 
BRANCH   8  11
ATOM     11  N   UNL     1       2.742   6.364  12.917  0.00  0.00    -0.330 N 
ATOM     12  C   UNL     1       3.119   5.445  14.014  0.00  0.00    +0.105 C 
ATOM     13  C   UNL     1       3.979   6.104  15.058  0.00  0.00    +0.019 C 
ATOM     14  C   UNL     1       3.064   6.627  16.186  0.00  0.00    +0.002 C 
ATOM     15  C   UNL     1       2.405   7.878  15.824  0.00  0.00    +0.002 C 
ATOM     16  C   UNL     1       1.496   7.721  14.587  0.00  0.00    +0.019 C 
ATOM     17  C   UNL     1       2.361   7.725  13.356  0.00  0.00    +0.105 C 
ENDBRANCH   8  11
ENDBRANCH   3   5
BRANCH   1  18
ATOM     18  C   UNL     1      -2.119   3.465   7.497  0.00  0.00    +0.016 C 
BRANCH  18  19
ATOM     19  N   UNL     1      -1.751   3.644   6.080  0.00  0.00    +0.389 N 
ATOM     20  H   UNL     1      -1.723   4.647   5.861  0.00  0.00    -0.084 HD
ATOM     21  H   UNL     1      -0.825   3.232   5.915  0.00  0.00    -0.084 HD
BRANCH  19  23
ATOM     22  C   UNL     1      -3.915   3.932   4.957  0.00  0.00    -0.009 C 
ATOM     23  C   UNL     1      -2.740   2.984   5.207  0.00  0.00    -0.043 C 
BRANCH  23  24
ATOM     24  C   UNL     1      -2.087   2.637   3.894  0.00  0.00    -0.062 A 
ATOM     25  C   UNL     1      -2.372   1.433   3.277  0.00  0.00    +0.004 A 
ATOM     26  C   UNL     1      -1.773   1.114   2.073  0.00  0.00    +0.027 A 
ATOM     27  C   UNL     1      -0.890   2.000   1.484  0.00  0.00    +0.088 A 
ATOM     28  C   UNL     1      -0.601   3.202   2.104  0.00  0.00    +0.027 A 
ATOM     29  C   UNL     1      -1.203   3.522   3.306  0.00  0.00    +0.004 A 
BRANCH  27  30
ATOM     30  S   UNL     1      -0.126   1.594  -0.051  0.00  0.00    -0.006 S 
ATOM     31  O   UNL     1      -0.114   0.174  -0.086  0.00  0.00    -0.170 OA
ATOM     32  O   UNL     1       1.090   2.329  -0.056  0.00  0.00    -0.170 OA
ATOM     33  C   UNL     1      -1.253   2.241  -1.317  0.00  0.00    +0.200 C 
ENDBRANCH  27  30
ENDBRANCH  23  24
ENDBRANCH  19  23
ENDBRANCH  18  19
ENDBRANCH   1  18
TORSDOF 7
