REMARK  Name = ZINC63709968
REMARK  7 active torsions:
REMARK  status: ('A' for Active; 'I' for Inactive)
REMARK    1  A    between atoms: C_1  and  C_2
REMARK    2  A    between atoms: C_2  and  N_3
REMARK    3  A    between atoms: C_5  and  N_13
REMARK    4  A    between atoms: N_16  and  C_17
REMARK    5  A    between atoms: C_17  and  C_18
REMARK    6  A    between atoms: C_18  and  S_19
REMARK    7  A    between atoms: S_19  and  C_20
REMARK                            x       y       z     vdW  Elec       q    Type
REMARK                         _______ _______ _______ _____ _____    ______ ____
ROOT
ATOM      1  N   UNL     1       0.968  -2.602  -3.855  0.00  0.00    -0.291 N 
ATOM      2  C   UNL     1       1.496  -3.026  -5.020  0.00  0.00    +0.300 C 
ATOM      3  O   UNL     1       2.191  -2.279  -5.680  0.00  0.00    -0.253 OA
ATOM      4  N   UNL     1       1.252  -4.278  -5.454  0.00  0.00    -0.299 N 
ATOM      5  H   UNL     1       0.413  -3.198  -3.328  0.00  0.00    +0.151 HD
ATOM      6  H   UNL     1       0.697  -4.875  -4.928  0.00  0.00    +0.150 HD
ENDROOT
BRANCH   1   9
ATOM      7  N   UNL     1       0.767  -0.509  -1.161  0.00  0.00    -0.328 N 
ATOM      8  C   UNL     1       0.110  -0.770  -2.445  0.00  0.00    +0.132 C 
ATOM      9  C   UNL     1       1.234  -1.241  -3.383  0.00  0.00    +0.124 C 
ATOM     10  C   UNL     1       2.481  -1.209  -2.528  0.00  0.00    -0.005 A 
ATOM     11  C   UNL     1       2.134  -0.771  -1.259  0.00  0.00    +0.035 A 
ATOM     12  C   UNL     1       3.130  -0.655  -0.287  0.00  0.00    +0.023 A 
ATOM     13  C   UNL     1       4.438  -0.967  -0.591  0.00  0.00    +0.002 A 
ATOM     14  C   UNL     1       4.774  -1.399  -1.861  0.00  0.00    +0.000 A 
ATOM     15  C   UNL     1       3.792  -1.525  -2.826  0.00  0.00    +0.007 A 
BRANCH   7  17
ATOM     16  C   UNL     1       0.084   1.493   0.067  0.00  0.00    +0.024 C 
ATOM     17  C   UNL     1       0.087  -0.037   0.049  0.00  0.00    +0.102 C 
ENDBRANCH   7  17
ENDBRANCH   1   9
BRANCH   4  18
ATOM     18  C   UNL     1       1.825  -4.739  -6.721  0.00  0.00    +0.116 C 
BRANCH  18  19
ATOM     19  C   UNL     1       1.397  -6.186  -6.979  0.00  0.00    +0.093 C 
BRANCH  19  20
ATOM     20  S   UNL     1       2.107  -6.756  -8.547  0.00  0.00    -0.126 S 
BRANCH  20  21
ATOM     21  C   UNL     1       1.698  -8.364  -8.612  0.00  0.00    +0.014 C 
ATOM     22  C   UNL     1       0.891  -9.062  -7.719  0.00  0.00    +0.009 A 
ATOM     23  C   UNL     1       0.203  -8.670  -6.550  0.00  0.00    +0.011 A 
ATOM     24  C   UNL     1      -0.527  -9.584  -5.860  0.00  0.00    +0.001 A 
ATOM     25  C   UNL     1      -0.616 -10.913  -6.277  0.00  0.00    +0.002 A 
ATOM     26  C   UNL     1       0.019 -11.358  -7.390  0.00  0.00    +0.026 A 
ATOM     27  C   UNL     1       0.799 -10.461  -8.163  0.00  0.00    +0.044 A 
ATOM     28  N   UNL     1       1.502 -10.643  -9.266  0.00  0.00    -0.379 N 
ATOM     29  C   UNL     1       2.121  -9.373  -9.657  0.00  0.00    +0.155 C 
ATOM     30  H   UNL     1       1.592 -11.483  -9.743  0.00  0.00    +0.160 HD
ENDBRANCH  20  21
ENDBRANCH  19  20
ENDBRANCH  18  19
ENDBRANCH   4  18
TORSDOF 6
