REMARK  Name = ZINC14861692
REMARK  4 active torsions:
REMARK  status: ('A' for Active; 'I' for Inactive)
REMARK    1  A    between atoms: C_1  and  C_2
REMARK    2  A    between atoms: C_4  and  C_27
REMARK    3  A    between atoms: C_12  and  C_14
REMARK    4  A    between atoms: C_23  and  C_26
REMARK                            x       y       z     vdW  Elec       q    Type
REMARK                         _______ _______ _______ _____ _____    ______ ____
ROOT
ATOM      1  C   UNL     1       3.629   2.352  -0.020  0.00  0.00    +0.044 C 
ATOM      2  C   UNL     1       2.360   1.538  -0.012  0.00  0.00    -0.049 A 
ATOM      3  C   UNL     1       2.417   0.152  -0.020  0.00  0.00    +0.009 A 
ATOM      4  C   UNL     1       1.279  -0.611  -0.013  0.00  0.00    -0.024 A 
ATOM      5  C   UNL     1       0.002  -0.004   0.002  0.00  0.00    +0.083 A 
ATOM      6  C   UNL     1      -0.017   1.409   0.010  0.00  0.00    +0.041 A 
ATOM      7  C   UNL     1       1.128   2.166   0.003  0.00  0.00    +0.020 A 
ATOM      8  S   UNL     1      -1.758   1.764   0.035  0.00  0.00    -0.052 S 
ATOM      9  C   UNL     1      -2.332   0.071   0.025  0.00  0.00    +0.166 A 
ATOM     10  N   UNL     1      -1.207  -0.606   0.011  0.00  0.00    -0.224 NA
ATOM     11  N   UNL     1      -3.632  -0.405   0.036  0.00  0.00    -0.261 N 
ATOM     12  C   UNL     1      -4.666   0.459   0.051  0.00  0.00    +0.250 C 
ATOM     13  O   UNL     1      -4.457   1.657   0.055  0.00  0.00    -0.270 OA
ATOM     14  C   UNL     1       1.390  -2.114  -0.022  0.00  0.00    +0.046 C 
ATOM     15  H   UNL     1      -3.798  -1.360   0.033  0.00  0.00    +0.157 HD
ENDROOT
BRANCH  12  16
ATOM     16  C   UNL     1      -6.050  -0.048   0.062  0.00  0.00    +0.039 A 
ATOM     17  C   UNL     1      -6.288  -1.425   0.058  0.00  0.00    +0.014 A 
ATOM     18  C   UNL     1      -7.583  -1.896   0.070  0.00  0.00    +0.017 A 
ATOM     19  C   UNL     1      -8.647  -1.004   0.088  0.00  0.00    +0.030 A 
ATOM     20  C   UNL     1      -8.423   0.377   0.089  0.00  0.00    +0.048 A 
ATOM     21  C   UNL     1      -7.121   0.849   0.084  0.00  0.00    +0.037 A 
ATOM     22  N   UNL     1      -9.479   1.286   0.099  0.00  0.00    -0.284 N 
ATOM     23  C   UNL     1     -10.722   1.043   0.505  0.00  0.00    +0.230 C 
ATOM     24  O   UNL     1     -11.527   1.950   0.460  0.00  0.00    -0.274 OA
ATOM     25  C   UNL     1     -11.186  -0.293   1.018  0.00  0.00    +0.134 C 
ATOM     26  S   UNL     1     -10.308  -1.603   0.114  0.00  0.00    -0.111 S 
ATOM     27  C   UNL     1     -12.692  -0.434   0.791  0.00  0.00    +0.029 C 
ATOM     28  H   UNL     1      -9.289   2.182  -0.221  0.00  0.00    +0.155 HD
ENDBRANCH  12  16
TORSDOF 1
