REMARK  Name = ZINC05238897
REMARK  8 active torsions:
REMARK  status: ('A' for Active; 'I' for Inactive)
REMARK    1  A    between atoms: C_1  and  C_2
REMARK    2  A    between atoms: C_2  and  C_3
REMARK    3  A    between atoms: C_4  and  C_27
REMARK    4  A    between atoms: C_8  and  S_10
REMARK    5  A    between atoms: S_10  and  C_11
REMARK    6  A    between atoms: C_11  and  C_12
REMARK    7  A    between atoms: N_14  and  C_15
REMARK    8  A    between atoms: C_16  and  C_24
REMARK                            x       y       z     vdW  Elec       q    Type
REMARK                         _______ _______ _______ _____ _____    ______ ____
ROOT
ATOM      1  C   UNL     1      -6.536  -2.401  -3.450  0.00  0.00    +0.228 C 
ATOM      2  O   UNL     1      -6.044  -2.215  -4.543  0.00  0.00    -0.275 OA
ATOM      3  N   UNL     1      -7.797  -2.866  -3.350  0.00  0.00    -0.279 N 
ATOM      4  H   UNL     1      -8.191  -3.014  -2.476  0.00  0.00    +0.155 HD
ENDROOT
BRANCH   3   5
ATOM      5  C   UNL     1      -8.531  -3.132  -4.496  0.00  0.00    +0.084 A 
ATOM      6  C   UNL     1      -9.831  -3.604  -4.584  0.00  0.00    +0.068 A 
ATOM      7  C   UNL     1     -10.377  -3.802  -5.916  0.00  0.00    -0.023 A 
ATOM      8  C   UNL     1      -9.523  -3.491  -6.914  0.00  0.00    -0.004 A 
ATOM      9  S   UNL     1      -8.052  -2.948  -6.095  0.00  0.00    -0.077 S 
ATOM     10  C   UNL     1      -9.786  -3.588  -8.386  0.00  0.00    +0.043 C 
ATOM     11  C   UNL     1     -11.039  -4.450  -8.596  0.00  0.00    +0.005 C 
ATOM     12  C   UNL     1     -12.141  -3.961  -7.651  0.00  0.00    +0.005 C 
ATOM     13  C   UNL     1     -11.781  -4.311  -6.206  0.00  0.00    +0.037 C 
BRANCH   6  14
ATOM     14  C   UNL     1     -10.622  -3.893  -3.384  0.00  0.00    +0.244 C 
ATOM     15  O   UNL     1     -11.311  -3.023  -2.885  0.00  0.00    -0.270 OA
ATOM     16  N   UNL     1     -10.586  -5.123  -2.833  0.00  0.00    -0.325 N 
ATOM     17  H   UNL     1     -10.037  -5.817  -3.231  0.00  0.00    +0.145 HD
ATOM     18  H   UNL     1     -11.110  -5.314  -2.039  0.00  0.00    +0.145 HD
ENDBRANCH   6  14
ENDBRANCH   3   5
BRANCH   1  19
ATOM     19  C   UNL     1      -5.738  -2.111  -2.205  0.00  0.00    +0.173 C 
BRANCH  19  20
ATOM     20  S   UNL     1      -4.093  -1.503  -2.669  0.00  0.00    -0.077 S 
BRANCH  20  26
ATOM     21  C   UNL     1      -1.412  -0.526   0.013  0.00  0.00    +0.067 A 
ATOM     22  C   UNL     1      -2.068  -0.772   1.224  0.00  0.00    +0.139 A 
ATOM     23  C   UNL     1      -3.390  -1.259   1.178  0.00  0.00    +0.292 A 
ATOM     24  O   UNL     1      -4.070  -1.514   2.320  0.00  0.00    -0.264 OA
ATOM     25  N   UNL     1      -3.956  -1.463  -0.003  0.00  0.00    -0.182 NA
ATOM     26  C   UNL     1      -3.295  -1.215  -1.125  0.00  0.00    +0.192 A 
ATOM     27  N   UNL     1      -2.051  -0.751  -1.120  0.00  0.00    -0.225 NA
BRANCH  21  29
ATOM     28  C   UNL     1      -0.019   1.526   0.010  0.00  0.00    +0.010 C 
ATOM     29  C   UNL     1       0.002  -0.004   0.002  0.00  0.00    +0.053 C 
ENDBRANCH  21  29
BRANCH  22  30
ATOM     30  C   UNL     1      -1.414  -0.537   2.476  0.00  0.00    +0.106 C 
ATOM     31  N   UNL     1      -0.895  -0.350   3.469  0.00  0.00    -0.191 NA
ENDBRANCH  22  30
ENDBRANCH  20  26
ENDBRANCH  19  20
ENDBRANCH   1  19
TORSDOF 7
