REMARK  Name = ZINC39606958
REMARK  7 active torsions:
REMARK  status: ('A' for Active; 'I' for Inactive)
REMARK    1  A    between atoms: C_1  and  C_2
REMARK    2  A    between atoms: C_5  and  C_9
REMARK    3  A    between atoms: C_6  and  C_8
REMARK    4  A    between atoms: C_9  and  N_10
REMARK    5  A    between atoms: C_11  and  C_13
REMARK    6  A    between atoms: C_24  and  C_26
REMARK    7  A    between atoms: C_30  and  C_32
REMARK                            x       y       z     vdW  Elec       q    Type
REMARK                         _______ _______ _______ _____ _____    ______ ____
ROOT
ATOM      1  C   UNL     1      -3.580  -6.613   0.652  0.00  0.00    +0.100 C 
ATOM      2  C   UNL     1      -4.255  -6.014  -0.602  0.00  0.00    +0.121 C 
ATOM      3  N   UNL     1      -4.228  -7.109  -1.601  0.00  0.00    -0.296 N 
ATOM      4  C   UNL     1      -4.523  -8.332  -0.816  0.00  0.00    +0.115 C 
ATOM      5  C   UNL     1      -3.761  -8.134   0.510  0.00  0.00    -0.004 C 
ATOM      6  C   UNL     1      -4.580  -8.680   1.676  0.00  0.00    -0.010 C 
ATOM      7  C   UNL     1      -4.696 -10.201   1.544  0.00  0.00    -0.082 C 
ATOM      8  N   UNL     1      -3.355 -10.798   1.539  0.00  0.00    +0.379 N 
ATOM      9  C   UNL     1      -2.607 -10.339   0.362  0.00  0.00    -0.082 C 
ATOM     10  C   UNL     1      -2.402  -8.824   0.445  0.00  0.00    -0.010 C 
ATOM     11  C   UNL     1      -3.990  -7.014  -2.924  0.00  0.00    +0.247 C 
ATOM     12  O   UNL     1      -3.641  -5.954  -3.404  0.00  0.00    -0.270 OA
ATOM     13  H   UNL     1      -2.864 -10.524   2.376  0.00  0.00    -0.086 HD
ATOM     14  H   UNL     1      -3.436 -11.803   1.513  0.00  0.00    -0.086 HD
ENDROOT
BRANCH  11  15
ATOM     15  C   UNL     1      -4.153  -8.200  -3.790  0.00  0.00    +0.038 A 
ATOM     16  C   UNL     1      -4.946  -9.270  -3.372  0.00  0.00    +0.016 A 
ATOM     17  C   UNL     1      -5.094 -10.373  -4.184  0.00  0.00    +0.039 A 
ATOM     18  C   UNL     1      -4.458 -10.422  -5.415  0.00  0.00    +0.135 A 
ATOM     19  C   UNL     1      -3.669  -9.362  -5.836  0.00  0.00    +0.091 A 
ATOM     20  C   UNL     1      -3.518  -8.251  -5.033  0.00  0.00    +0.028 A 
ATOM     21  F   UNL     1      -4.606 -11.506  -6.207  0.00  0.00    -0.205 F 
BRANCH  19  22
ATOM     22  C   UNL     1      -2.980  -9.422  -7.175  0.00  0.00    +0.420 C 
ATOM     23  F   UNL     1      -2.248  -8.247  -7.375  0.00  0.00    -0.166 F 
ATOM     24  F   UNL     1      -2.115 -10.521  -7.205  0.00  0.00    -0.166 F 
ATOM     25  F   UNL     1      -3.937  -9.554  -8.186  0.00  0.00    -0.166 F 
ENDBRANCH  19  22
ENDBRANCH  11  15
BRANCH   1  27
ATOM     26  N   UNL     1      -1.452  -6.224   1.851  0.00  0.00    -0.311 N 
ATOM     27  C   UNL     1      -2.116  -6.259   0.679  0.00  0.00    +0.218 C 
ATOM     28  O   UNL     1      -1.534  -6.006  -0.355  0.00  0.00    -0.275 OA
ATOM     29  H   UNL     1      -1.918  -6.426   2.678  0.00  0.00    +0.149 HD
BRANCH  26  30
ATOM     30  C   UNL     1      -0.029  -5.880   1.878  0.00  0.00    +0.139 C 
BRANCH  30  35
ATOM     31  C   UNL     1       1.880  -6.001   7.331  0.00  0.00    +0.044 C 
ATOM     32  C   UNL     1       1.382  -5.970   5.909  0.00  0.00    -0.050 A 
ATOM     33  C   UNL     1       1.067  -4.762   5.313  0.00  0.00    +0.004 A 
ATOM     34  C   UNL     1       0.611  -4.733   4.009  0.00  0.00    +0.006 A 
ATOM     35  C   UNL     1       0.470  -5.912   3.299  0.00  0.00    -0.027 A 
ATOM     36  C   UNL     1       0.786  -7.118   3.894  0.00  0.00    -0.046 A 
ATOM     37  C   UNL     1       1.246  -7.147   5.198  0.00  0.00    +0.007 A 
ATOM     38  C   UNL     1       0.631  -8.403   3.121  0.00  0.00    +0.044 C 
ENDBRANCH  30  35
ENDBRANCH  26  30
ENDBRANCH   1  27
TORSDOF 5
