REMARK  Name = ZINC12390032
REMARK  3 active torsions:
REMARK  status: ('A' for Active; 'I' for Inactive)
REMARK    1  A    between atoms: C_1  and  C_2
REMARK    2  A    between atoms: C_2  and  C_25
REMARK    3  A    between atoms: C_6  and  C_15
REMARK                            x       y       z     vdW  Elec       q    Type
REMARK                         _______ _______ _______ _____ _____    ______ ____
ROOT
ATOM      1  C   UNL     1      -0.607   1.415   0.717  0.00  0.00    +0.011 C 
ATOM      2  C   UNL     1      -0.423  -0.091   0.514  0.00  0.00    -0.023 C 
ATOM      3  C   UNL     1       0.260  -0.355  -0.827  0.00  0.00    +0.058 C 
ATOM      4  C   UNL     1       0.446  -1.852  -1.022  0.00  0.00    +0.019 C 
ATOM      5  C   UNL     1      -0.469  -2.723  -0.576  0.00  0.00    +0.037 C 
ATOM      6  C   UNL     1      -0.538  -4.230  -0.720  0.00  0.00    +0.137 C 
ATOM      7  N   UNL     1       0.684  -4.866  -1.180  0.00  0.00    -0.313 N 
ATOM      8  C   UNL     1       1.220  -4.500  -2.413  0.00  0.00    +0.205 A 
ATOM      9  C   UNL     1       1.632  -3.131  -2.691  0.00  0.00    +0.208 A 
ATOM     10  N   UNL     1       2.000  -3.045  -3.928  0.00  0.00    -0.032 NA
ATOM     11  O   UNL     1       1.897  -4.346  -4.491  0.00  0.00    -0.239 OA
ATOM     12  N   UNL     1       1.404  -5.214  -3.479  0.00  0.00    -0.032 NA
ATOM     13  N   UNL     1       1.594  -2.179  -1.681  0.00  0.00    -0.297 N 
ATOM     14  C   UNL     1      -1.592  -2.228   0.147  0.00  0.00    +0.163 C 
ATOM     15  O   UNL     1      -2.433  -3.023   0.519  0.00  0.00    -0.292 OA
ATOM     16  C   UNL     1      -1.790  -0.783   0.473  0.00  0.00    +0.086 C 
ATOM     17  C   UNL     1       0.421  -0.670   1.652  0.00  0.00    +0.011 C 
ATOM     18  H   UNL     1       1.122  -5.539  -0.635  0.00  0.00    +0.149 HD
ATOM     19  H   UNL     1       2.417  -1.728  -1.435  0.00  0.00    +0.153 HD
ENDROOT
BRANCH   6  20
ATOM     20  C   UNL     1      -1.640  -4.564  -1.691  0.00  0.00    -0.023 A 
ATOM     21  C   UNL     1      -2.752  -5.265  -1.261  0.00  0.00    +0.007 A 
ATOM     22  C   UNL     1      -3.766  -5.566  -2.150  0.00  0.00    +0.020 A 
ATOM     23  C   UNL     1      -3.664  -5.176  -3.474  0.00  0.00    +0.041 A 
ATOM     24  C   UNL     1      -2.549  -4.480  -3.905  0.00  0.00    +0.020 A 
ATOM     25  C   UNL     1      -1.538  -4.174  -3.013  0.00  0.00    +0.007 A 
ATOM     26 CL   UNL     1      -4.934  -5.561  -4.593  0.00  0.00    -0.084 Cl
ENDBRANCH   6  20
TORSDOF 1
