REMARK  Name = ZINC19892149
REMARK  5 active torsions:
REMARK  status: ('A' for Active; 'I' for Inactive)
REMARK    1  A    between atoms: C_1  and  N_2
REMARK    2  A    between atoms: N_2  and  C_3
REMARK    3  A    between atoms: N_2  and  C_4
REMARK    4  A    between atoms: C_7  and  C_10
REMARK    5  A    between atoms: C_28  and  C_30
REMARK                            x       y       z     vdW  Elec       q    Type
REMARK                         _______ _______ _______ _____ _____    ______ ____
ROOT
ATOM      1  C   UNL     1      -4.879  -2.476   0.354  0.00  0.00    +0.234 C 
ATOM      2  C   UNL     1      -5.356  -2.923   1.705  0.00  0.00    +0.027 C 
ATOM      3  C   UNL     1      -6.175  -2.143   2.439  0.00  0.00    +0.083 C 
ATOM      4  C   UNL     1      -6.588  -0.842   1.852  0.00  0.00    +0.045 A 
ATOM      5  C   UNL     1      -7.146   0.161   2.632  0.00  0.00    +0.052 A 
ATOM      6  C   UNL     1      -7.514   1.358   2.043  0.00  0.00    +0.124 A 
ATOM      7  C   UNL     1      -7.326   1.553   0.684  0.00  0.00    +0.042 A 
ATOM      8  C   UNL     1      -6.771   0.557  -0.098  0.00  0.00    +0.049 A 
ATOM      9  C   UNL     1      -6.399  -0.645   0.478  0.00  0.00    +0.131 A 
ATOM     10  O   UNL     1      -5.859  -1.640  -0.264  0.00  0.00    -0.479 OA
ATOM     11  F   UNL     1      -8.058   2.339   2.796  0.00  0.00    -0.205 F 
ATOM     12  N   UNL     1      -6.610  -2.526   3.664  0.00  0.00    -0.213 NA
ATOM     13  C   UNL     1      -6.295  -3.663   4.240  0.00  0.00    +0.237 C 
ATOM     14  N   UNL     1      -6.637  -4.194   5.434  0.00  0.00    -0.205 NA
ATOM     15  C   UNL     1      -6.082  -5.365   5.585  0.00  0.00    +0.203 C 
ATOM     16  N   UNL     1      -5.340  -5.662   4.483  0.00  0.00    -0.251 N 
ATOM     17  N   UNL     1      -5.469  -4.575   3.615  0.00  0.00    -0.208 N 
ATOM     18  C   UNL     1      -4.936  -4.256   2.285  0.00  0.00    +0.160 C 
ATOM     19  H   UNL     1      -4.823  -6.468   4.330  0.00  0.00    +0.171 HD
ENDROOT
BRANCH  18  20
ATOM     20  C   UNL     1      -3.431  -4.282   2.363  0.00  0.00    -0.003 A 
ATOM     21  C   UNL     1      -2.706  -5.056   1.476  0.00  0.00    +0.009 A 
ATOM     22  C   UNL     1      -1.326  -5.080   1.546  0.00  0.00    +0.020 A 
ATOM     23  C   UNL     1      -0.669  -4.330   2.505  0.00  0.00    +0.042 A 
ATOM     24  C   UNL     1      -1.393  -3.554   3.393  0.00  0.00    +0.040 A 
ATOM     25  C   UNL     1      -2.775  -3.527   3.318  0.00  0.00    +0.048 A 
ATOM     26 CL   UNL     1      -3.685  -2.550   4.428  0.00  0.00    -0.083 Cl
ATOM     27 CL   UNL     1       1.064  -4.361   2.594  0.00  0.00    -0.083 Cl
ENDBRANCH  18  20
BRANCH   1  31
ATOM     28  C   UNL     1      -1.231  -0.292   0.792  0.00  0.00    +0.029 A 
ATOM     29  C   UNL     1      -1.214  -1.579   0.270  0.00  0.00    +0.023 A 
ATOM     30  C   UNL     1      -2.394  -2.283   0.130  0.00  0.00    +0.009 A 
ATOM     31  C   UNL     1      -3.593  -1.706   0.509  0.00  0.00    -0.003 A 
ATOM     32  C   UNL     1      -3.614  -0.425   1.030  0.00  0.00    +0.009 A 
ATOM     33  C   UNL     1      -2.436   0.281   1.178  0.00  0.00    +0.023 A 
BRANCH  28  35
ATOM     34  C   UNL     1      -0.059   1.776   1.492  0.00  0.00    +0.129 C 
ATOM     35  N   UNL     1      -0.039   0.421   0.936  0.00  0.00    -0.336 N 
ATOM     36  C   UNL     1       1.231  -0.185   0.529  0.00  0.00    +0.129 C 
ENDBRANCH  28  35
ENDBRANCH   1  31
TORSDOF 3
