REMARK  Name = ZINC10327372
REMARK  3 active torsions:
REMARK  status: ('A' for Active; 'I' for Inactive)
REMARK    1  A    between atoms: C_1  and  C_2
REMARK    2  A    between atoms: C_7  and  N_8
REMARK    3  A    between atoms: C_9  and  C_11
REMARK                            x       y       z     vdW  Elec       q    Type
REMARK                         _______ _______ _______ _____ _____    ______ ____
ROOT
ATOM      1  C   UNL     1      -1.599   7.310   0.823  0.00  0.00    +0.120 A 
ATOM      2  C   UNL     1      -1.977   7.716  -0.459  0.00  0.00    +0.132 A 
ATOM      3  N   UNL     1      -1.965   6.850  -1.469  0.00  0.00    -0.230 NA
ATOM      4  C   UNL     1      -1.589   5.613  -1.218  0.00  0.00    +0.180 A 
ATOM      5  N   UNL     1      -1.201   5.119   0.001  0.00  0.00    -0.258 N 
ATOM      6  C   UNL     1      -1.197   5.973   1.072  0.00  0.00    +0.271 A 
ATOM      7  O   UNL     1      -0.864   5.603   2.185  0.00  0.00    -0.266 OA
ATOM      8  C   UNL     1      -0.839   3.792   0.076  0.00  0.00    +0.039 A 
ATOM      9  C   UNL     1      -0.895   3.082  -1.061  0.00  0.00    +0.013 A 
ATOM     10  S   UNL     1      -1.457   4.255  -2.268  0.00  0.00    -0.054 S 
ATOM     11  C   UNL     1      -0.559   1.639  -1.257  0.00  0.00    +0.044 C 
ATOM     12  C   UNL     1       0.218   1.151  -0.025  0.00  0.00    +0.006 C 
ATOM     13  C   UNL     1      -0.513   1.618   1.236  0.00  0.00    +0.006 C 
ATOM     14  C   UNL     1      -0.392   3.134   1.378  0.00  0.00    +0.055 C 
ENDROOT
BRANCH   1  16
ATOM     15  N   UNL     1      -1.363   7.872   3.184  0.00  0.00    -0.281 N 
ATOM     16  C   UNL     1      -1.617   8.279   1.924  0.00  0.00    +0.255 C 
ATOM     17  O   UNL     1      -1.863   9.450   1.701  0.00  0.00    -0.270 OA
ATOM     18  H   UNL     1      -1.113   6.950   3.354  0.00  0.00    +0.155 HD
BRANCH  15  25
ATOM     19  C   UNL     1      -1.931   6.849   5.777  0.00  0.00    +0.045 C 
ATOM     20  C   UNL     1      -1.734   8.322   5.527  0.00  0.00    -0.029 A 
ATOM     21  C   UNL     1      -1.823   9.219   6.574  0.00  0.00    +0.006 A 
ATOM     22  C   UNL     1      -1.648  10.571   6.344  0.00  0.00    +0.020 A 
ATOM     23  C   UNL     1      -1.378  11.030   5.067  0.00  0.00    +0.043 A 
ATOM     24  C   UNL     1      -1.282  10.137   4.016  0.00  0.00    +0.043 A 
ATOM     25  C   UNL     1      -1.458   8.778   4.244  0.00  0.00    +0.038 A 
ATOM     26 CL   UNL     1      -1.159  12.729   4.783  0.00  0.00    -0.083 Cl
ENDBRANCH  15  25
ENDBRANCH   1  16
TORSDOF 2
