REMARK  Name = ZINC20926499
REMARK  7 active torsions:
REMARK  status: ('A' for Active; 'I' for Inactive)
REMARK    1  A    between atoms: C_1  and  C_2
REMARK    2  A    between atoms: C_7  and  C_18
REMARK    3  A    between atoms: N_20  and  C_21
REMARK    4  A    between atoms: C_21  and  C_22
REMARK    5  A    between atoms: C_22  and  C_23
REMARK    6  A    between atoms: C_26  and  S_29
REMARK    7  A    between atoms: S_29  and  N_32
REMARK                            x       y       z     vdW  Elec       q    Type
REMARK                         _______ _______ _______ _____ _____    ______ ____
ROOT
ATOM      1  C   UNL     1      -0.268   1.258  -2.409  0.00  0.00    +0.249 C 
ATOM      2  O   UNL     1       0.729   0.573  -2.534  0.00  0.00    -0.270 OA
ATOM      3  N   UNL     1      -0.721   1.571  -1.179  0.00  0.00    -0.311 N 
ATOM      4  H   UNL     1      -1.623   2.191  -1.066  0.00  0.00    +0.149 HD
ENDROOT
BRANCH   1  10
ATOM      5  C   UNL     1      -6.125   4.644  -5.275  0.00  0.00    +0.054 C 
ATOM      6  C   UNL     1      -4.962   3.663  -5.441  0.00  0.00    +0.190 C 
ATOM      7  C   UNL     1      -3.970   3.838  -4.289  0.00  0.00    +0.166 C 
ATOM      8  N   UNL     1      -2.792   2.992  -4.530  0.00  0.00    -0.339 N 
ATOM      9  C   UNL     1      -2.110   2.522  -3.472  0.00  0.00    +0.103 A 
ATOM     10  C   UNL     1      -0.980   1.746  -3.601  0.00  0.00    +0.100 A 
ATOM     11  C   UNL     1      -0.492   1.417  -4.949  0.00  0.00    +0.203 A 
ATOM     12  O   UNL     1       0.510   0.744  -5.117  0.00  0.00    -0.286 OA
ATOM     13  C   UNL     1      -1.273   1.932  -6.088  0.00  0.00    +0.068 A 
ATOM     14  C   UNL     1      -2.414   2.709  -5.829  0.00  0.00    +0.097 A 
ATOM     15  C   UNL     1      -3.163   3.189  -6.906  0.00  0.00    +0.145 A 
ATOM     16  C   UNL     1      -2.773   2.911  -8.202  0.00  0.00    +0.049 A 
ATOM     17  C   UNL     1      -1.640   2.150  -8.451  0.00  0.00    +0.024 A 
ATOM     18  C   UNL     1      -0.890   1.659  -7.404  0.00  0.00    +0.054 A 
ATOM     19 CL   UNL     1       0.525   0.704  -7.718  0.00  0.00    -0.083 Cl
ATOM     20  O   UNL     1      -4.284   3.926  -6.676  0.00  0.00    -0.485 OA
ENDBRANCH   1  10
BRANCH   3  21
ATOM     21  C   UNL     1      -0.013   1.086   0.008  0.00  0.00    +0.109 C 
BRANCH  21  22
ATOM     22  C   UNL     1      -0.729   1.579   1.267  0.00  0.00    +0.054 C 
BRANCH  22  23
ATOM     23  C   UNL     1       0.000   1.080   2.488  0.00  0.00    -0.046 A 
ATOM     24  C   UNL     1      -0.347  -0.133   3.052  0.00  0.00    +0.005 A 
ATOM     25  C   UNL     1       0.324  -0.593   4.170  0.00  0.00    +0.029 A 
ATOM     26  C   UNL     1       1.337   0.164   4.728  0.00  0.00    +0.105 A 
ATOM     27  C   UNL     1       1.681   1.380   4.166  0.00  0.00    +0.029 A 
ATOM     28  C   UNL     1       1.012   1.838   3.046  0.00  0.00    +0.005 A 
BRANCH  26  29
ATOM     29  S   UNL     1       2.190  -0.420   6.154  0.00  0.00    +0.056 S 
ATOM     30  O   UNL     1       2.048  -1.834   6.162  0.00  0.00    -0.153 OA
ATOM     31  O   UNL     1       3.459   0.218   6.158  0.00  0.00    -0.153 OA
BRANCH  29  32
ATOM     32  N   UNL     1       1.372   0.145   7.479  0.00  0.00    -0.204 NA
ATOM     33  H   UNL     1       1.875  -0.200   8.395  0.00  0.00    +0.144 HD
ATOM     34  H   UNL     1       0.340  -0.236   7.463  0.00  0.00    +0.144 HD
ENDBRANCH  29  32
ENDBRANCH  26  29
ENDBRANCH  22  23
ENDBRANCH  21  22
ENDBRANCH   3  21
TORSDOF 6
