REMARK  Name = ZINC28646125
REMARK  11 active torsions:
REMARK  status: ('A' for Active; 'I' for Inactive)
REMARK    1  A    between atoms: C_1  and  C_2
REMARK    2  A    between atoms: C_2  and  N_3
REMARK    3  A    between atoms: N_3  and  C_4
REMARK    4  A    between atoms: N_3  and  C_6
REMARK    5  A    between atoms: C_4  and  C_5
REMARK    6  A    between atoms: C_6  and  C_8
REMARK    7  A    between atoms: C_6  and  C_20
REMARK    8  A    between atoms: C_8  and  N_9
REMARK    9  A    between atoms: C_10  and  C_12
REMARK   10  A    between atoms: C_12  and  S_13
REMARK   11  A    between atoms: S_13  and  C_14
REMARK                            x       y       z     vdW  Elec       q    Type
REMARK                         _______ _______ _______ _____ _____    ______ ____
ROOT
ATOM      1  N   UNL     1      -2.277   3.217   1.693  0.00  0.00    -0.316 N 
ATOM      2  C   UNL     1      -2.317   3.384   3.030  0.00  0.00    +0.223 C 
ATOM      3  O   UNL     1      -1.739   2.604   3.756  0.00  0.00    -0.275 OA
ATOM      4  H   UNL     1      -2.801   3.924   1.034  0.00  0.00    +0.149 HD
ENDROOT
BRANCH   1   5
ATOM      5  C   UNL     1      -1.535   2.092   1.118  0.00  0.00    +0.096 C 
BRANCH   5   6
ATOM      6  C   UNL     1      -1.649   2.132  -0.407  0.00  0.00    +0.016 C 
BRANCH   6   7
ATOM      7  C   UNL     1      -0.770   1.065  -1.006  0.00  0.00    +0.093 A 
ATOM      8  C   UNL     1      -1.185  -0.128  -1.469  0.00  0.00    +0.043 A 
ATOM      9  C   UNL     1      -0.038  -0.806  -1.942  0.00  0.00    +0.041 A 
ATOM     10  C   UNL     1       1.010   0.013  -1.739  0.00  0.00    +0.195 A 
ATOM     11  O   UNL     1       0.561   1.145  -1.172  0.00  0.00    -0.469 OA
ENDBRANCH   6   7
BRANCH   6  12
ATOM     12  N   UNL     1      -1.220   3.450  -0.896  0.00  0.00    +0.387 N 
ATOM     13  H   UNL     1      -1.892   4.206  -0.462  0.00  0.00    -0.081 HD
BRANCH  12  15
ATOM     14  C   UNL     1       0.098   4.527   0.865  0.00  0.00    -0.017 C 
ATOM     15  C   UNL     1       0.147   3.755  -0.455  0.00  0.00    -0.081 C 
ENDBRANCH  12  15
BRANCH  12  16
ATOM     16  C   UNL     1      -1.333   3.532  -2.358  0.00  0.00    -0.081 C 
ATOM     17  C   UNL     1      -1.279   4.998  -2.793  0.00  0.00    -0.017 C 
ENDBRANCH  12  16
ENDBRANCH   6  12
ENDBRANCH   5   6
ENDBRANCH   1   5
BRANCH   2  18
ATOM     18  C   UNL     1      -3.080   4.541   3.621  0.00  0.00    +0.172 C 
BRANCH  18  19
ATOM     19  S   UNL     1      -2.945   4.493   5.430  0.00  0.00    -0.088 S 
BRANCH  19  20
ATOM     20  C   UNL     1      -3.876   5.890   5.964  0.00  0.00    +0.160 A 
ATOM     21  N   UNL     1      -4.532   6.782   5.247  0.00  0.00    -0.133 NA
ATOM     22  N   UNL     1      -5.202   7.806   5.874  0.00  0.00    -0.125 NA
ATOM     23  C   UNL     1      -5.187   7.892   7.190  0.00  0.00    +0.180 A 
ATOM     24  S   UNL     1      -4.192   6.472   7.623  0.00  0.00    -0.025 S 
ATOM     25  N   UNL     1      -5.788   8.832   8.018  0.00  0.00    -0.336 N 
ATOM     26  H   UNL     1      -5.674   8.756   9.110  0.00  0.00    +0.144 HD
ATOM     27  H   UNL     1      -6.378   9.652   7.583  0.00  0.00    +0.144 HD
ENDBRANCH  19  20
ENDBRANCH  18  19
ENDBRANCH   2  18
TORSDOF 9
