REMARK  Name = ZINC42009921
REMARK  7 active torsions:
REMARK  status: ('A' for Active; 'I' for Inactive)
REMARK    1  A    between atoms: C_1  and  C_2
REMARK    2  A    between atoms: C_2  and  C_3
REMARK    3  A    between atoms: C_2  and  C_4
REMARK    4  A    between atoms: C_2  and  C_5
REMARK    5  A    between atoms: C_8  and  C_11
REMARK    6  A    between atoms: C_8  and  S_14
REMARK    7  A    between atoms: S_14  and  C_15
REMARK                            x       y       z     vdW  Elec       q    Type
REMARK                         _______ _______ _______ _____ _____    ______ ____
ROOT
ATOM      1  C   UNL     1       0.624  -0.469  -1.385  0.00  0.00    -0.005 C 
ATOM      2  C   UNL     1       0.718  -1.994  -1.296  0.00  0.00    +0.006 C 
ATOM      3  C   UNL     1       1.456  -2.533  -2.523  0.00  0.00    +0.030 C 
ATOM      4  C   UNL     1       2.864  -1.937  -2.572  0.00  0.00    +0.122 C 
ATOM      5  C   UNL     1       2.771  -0.413  -2.662  0.00  0.00    +0.030 C 
ATOM      6  C   UNL     1       2.033   0.126  -1.435  0.00  0.00    +0.006 C 
ENDROOT
BRANCH   1   8
ATOM      7  C   UNL     1      -0.208   1.594  -0.248  0.00  0.00    +0.011 C 
ATOM      8  C   UNL     1      -0.114   0.070  -0.158  0.00  0.00    -0.035 C 
ATOM      9  C   UNL     1       0.650  -0.321   1.109  0.00  0.00    +0.011 C 
ATOM     10  C   UNL     1      -1.523  -0.526  -0.108  0.00  0.00    +0.011 C 
ENDBRANCH   1   8
BRANCH   4  11
ATOM     11  C   UNL     1       3.617  -2.322  -1.325  0.00  0.00    +0.372 C 
ATOM     12  O   UNL     1       4.648  -2.967  -1.409  0.00  0.00    -0.245 OA
ATOM     13  O   UNL     1       3.194  -1.988  -0.231  0.00  0.00    -0.245 OA
ENDBRANCH   4  11
BRANCH   4  14
ATOM     14  S   UNL     1       3.740  -2.576  -4.027  0.00  0.00    -0.105 S 
BRANCH  14  15
ATOM     15  C   UNL     1       5.307  -1.773  -3.969  0.00  0.00    +0.027 A 
ATOM     16  C   UNL     1       6.205  -1.900  -5.028  0.00  0.00    +0.019 A 
ATOM     17  C   UNL     1       7.423  -1.252  -4.939  0.00  0.00    +0.044 A 
ATOM     18  C   UNL     1       7.710  -0.499  -3.805  0.00  0.00    +0.116 A 
ATOM     19  N   UNL     1       6.834  -0.401  -2.819  0.00  0.00    -0.240 NA
ATOM     20  C   UNL     1       5.660  -1.001  -2.872  0.00  0.00    +0.127 A 
ATOM     21  N   UNL     1       8.935   0.157  -3.706  0.00  0.00    -0.343 N 
ATOM     22  H   UNL     1       9.582   0.088  -4.426  0.00  0.00    +0.144 HD
ATOM     23  H   UNL     1       9.141   0.683  -2.918  0.00  0.00    +0.144 HD
ENDBRANCH  14  15
ENDBRANCH   4  14
TORSDOF 4
