REMARK  Name = ZINC03438910
REMARK  11 active torsions:
REMARK  status: ('A' for Active; 'I' for Inactive)
REMARK    1  A    between atoms: C_1  and  C_2
REMARK    2  A    between atoms: C_5  and  O_30
REMARK    3  A    between atoms: C_6  and  N_8
REMARK    4  A    between atoms: C_9  and  C_11
REMARK    5  A    between atoms: C_11  and  C_13
REMARK    6  A    between atoms: C_11  and  N_55
REMARK    7  A    between atoms: C_19  and  C_20
REMARK    8  A    between atoms: C_19  and  N_55
REMARK    9  A    between atoms: C_23  and  S_26
REMARK   10  A    between atoms: S_26  and  N_29
REMARK   11  A    between atoms: O_30  and  C_31
REMARK                            x       y       z     vdW  Elec       q    Type
REMARK                         _______ _______ _______ _____ _____    ______ ____
ROOT
ATOM      1  C   UNL     1      -4.885   0.010  -0.143  0.00  0.00    +0.048 C 
ENDROOT
BRANCH   1   2
ATOM      2  C   UNL     1      -4.886   0.883  -1.371  0.00  0.00    -0.053 A 
ATOM      3  C   UNL     1      -5.144   0.331  -2.612  0.00  0.00    +0.002 A 
ATOM      4  C   UNL     1      -5.150   1.132  -3.738  0.00  0.00    +0.000 A 
ATOM      5  C   UNL     1      -4.889   2.485  -3.624  0.00  0.00    +0.000 A 
ATOM      6  C   UNL     1      -4.626   3.037  -2.384  0.00  0.00    +0.000 A 
ATOM      7  C   UNL     1      -4.625   2.236  -1.258  0.00  0.00    +0.002 A 
ENDBRANCH   1   2
BRANCH   1   9
ATOM      8  N   UNL     1      -2.418  -0.038   0.037  0.00  0.00    -0.284 N 
ATOM      9  C   UNL     1      -3.573  -0.727  -0.052  0.00  0.00    +0.208 C 
ATOM     10  O   UNL     1      -3.557  -1.940  -0.059  0.00  0.00    -0.277 OA
ATOM     11  H   UNL     1      -2.435   0.928   0.123  0.00  0.00    +0.155 HD
BRANCH   8  17
ATOM     12  C   UNL     1       0.203  -3.978  -1.300  0.00  0.00    +0.044 C 
ATOM     13  C   UNL     1       0.106  -2.628  -0.637  0.00  0.00    -0.048 A 
ATOM     14  C   UNL     1       1.227  -2.064  -0.055  0.00  0.00    +0.007 A 
ATOM     15  C   UNL     1       1.145  -0.826   0.555  0.00  0.00    +0.048 A 
ATOM     16  C   UNL     1      -0.063  -0.147   0.585  0.00  0.00    +0.141 A 
ATOM     17  C   UNL     1      -1.193  -0.718   0.004  0.00  0.00    +0.076 A 
ATOM     18  C   UNL     1      -1.102  -1.958  -0.611  0.00  0.00    +0.030 A 
BRANCH  16  19
ATOM     19  O   UNL     1      -0.145   1.070   1.185  0.00  0.00    -0.493 OA
ATOM     20  C   UNL     1       1.052   1.590   1.765  0.00  0.00    +0.277 C 
ENDBRANCH  16  19
ENDBRANCH   8  17
ENDBRANCH   1   9
BRANCH   1  21
ATOM     21  N   UNL     1      -5.985  -0.969  -0.233  0.00  0.00    +0.392 N 
ATOM     22  H   UNL     1      -5.752  -1.793   0.333  0.00  0.00    -0.084 HD
ATOM     23  H   UNL     1      -6.108  -1.251  -1.213  0.00  0.00    -0.084 HD
BRANCH  21  24
ATOM     24  C   UNL     1      -7.240  -0.376   0.264  0.00  0.00    -0.045 C 
BRANCH  24  25
ATOM     25  C   UNL     1      -8.344  -1.397   0.159  0.00  0.00    -0.064 A 
ATOM     26  C   UNL     1      -9.108  -1.474  -0.990  0.00  0.00    +0.003 A 
ATOM     27  C   UNL     1     -10.118  -2.413  -1.087  0.00  0.00    +0.029 A 
ATOM     28  C   UNL     1     -10.369  -3.269  -0.032  0.00  0.00    +0.105 A 
ATOM     29  C   UNL     1      -9.609  -3.189   1.120  0.00  0.00    +0.029 A 
ATOM     30  C   UNL     1      -8.596  -2.252   1.216  0.00  0.00    +0.003 A 
BRANCH  28  31
ATOM     31  S   UNL     1     -11.659  -4.463  -0.154  0.00  0.00    +0.056 S 
ATOM     32  O   UNL     1     -11.864  -4.699  -1.540  0.00  0.00    -0.153 OA
ATOM     33  O   UNL     1     -11.335  -5.506   0.756  0.00  0.00    -0.153 OA
BRANCH  31  34
ATOM     34  N   UNL     1     -13.041  -3.751   0.415  0.00  0.00    -0.204 NA
ATOM     35  H   UNL     1     -13.020  -2.835   0.732  0.00  0.00    +0.144 HD
ATOM     36  H   UNL     1     -13.873  -4.251   0.432  0.00  0.00    +0.144 HD
ENDBRANCH  31  34
ENDBRANCH  28  31
ENDBRANCH  24  25
ENDBRANCH  21  24
ENDBRANCH   1  21
TORSDOF 9
