REMARK  Name = ZINC36026829
REMARK  7 active torsions:
REMARK  status: ('A' for Active; 'I' for Inactive)
REMARK    1  A    between atoms: C_1  and  C_2
REMARK    2  A    between atoms: N_6  and  C_24
REMARK    3  A    between atoms: N_11  and  C_14
REMARK    4  A    between atoms: C_14  and  N_16
REMARK    5  A    between atoms: N_16  and  C_17
REMARK    6  A    between atoms: C_24  and  C_25
REMARK    7  A    between atoms: C_29  and  C_31
REMARK                            x       y       z     vdW  Elec       q    Type
REMARK                         _______ _______ _______ _____ _____    ______ ____
ROOT
ATOM      1  C   UNL     1      -0.075   1.830   0.125  0.00  0.00    -0.004 C 
ATOM      2  C   UNL     1      -0.276   0.357  -0.239  0.00  0.00    +0.016 C 
ATOM      3  C   UNL     1      -1.705  -0.062   0.030  0.00  0.00    +0.200 C 
ATOM      4  O   UNL     1      -2.661   0.188  -0.673  0.00  0.00    -0.277 OA
ATOM      5  N   UNL     1      -1.736  -0.759   1.185  0.00  0.00    -0.309 N 
ATOM      6  C   UNL     1      -0.384  -0.842   1.743  0.00  0.00    +0.006 C 
ATOM      7  N   UNL     1       0.547  -0.508   0.640  0.00  0.00    +0.401 N 
ATOM      8  C   UNL     1      -0.219   0.165   2.880  0.00  0.00    +0.025 C 
ATOM      9  C   UNL     1      -1.213  -0.165   3.998  0.00  0.00    +0.107 C 
ATOM     10  N   UNL     1      -1.032  -1.569   4.393  0.00  0.00    -0.312 N 
ATOM     11  C   UNL     1      -1.097  -2.608   3.357  0.00  0.00    +0.107 C 
ATOM     12  C   UNL     1      -0.104  -2.258   2.243  0.00  0.00    +0.025 C 
ATOM     13  H   UNL     1       0.834  -1.343   0.151  0.00  0.00    -0.082 HD
ATOM     14  H   UNL     1       1.348  -0.004   0.989  0.00  0.00    -0.082 HD
ENDROOT
BRANCH  10  15
ATOM     15  C   UNL     1      -0.810  -1.897   5.681  0.00  0.00    +0.137 C 
ATOM     16  S   UNL     1      -0.862  -0.688   6.893  0.00  0.00    -0.018 S 
BRANCH  15  17
ATOM     17  N   UNL     1      -0.548  -3.175   6.015  0.00  0.00    -0.295 N 
ATOM     18  H   UNL     1       0.364  -3.454   6.187  0.00  0.00    +0.154 HD
BRANCH  17  19
ATOM     19  C   UNL     1      -1.594  -4.102   6.114  0.00  0.00    +0.068 A 
ATOM     20  C   UNL     1      -2.886  -3.732   5.766  0.00  0.00    +0.026 A 
ATOM     21  C   UNL     1      -3.915  -4.648   5.864  0.00  0.00    +0.002 A 
ATOM     22  C   UNL     1      -3.661  -5.932   6.309  0.00  0.00    +0.003 A 
ATOM     23  C   UNL     1      -2.376  -6.305   6.658  0.00  0.00    +0.040 A 
ATOM     24  C   UNL     1      -1.340  -5.395   6.557  0.00  0.00    +0.144 A 
ATOM     25  F   UNL     1      -0.083  -5.761   6.893  0.00  0.00    -0.204 F 
ENDBRANCH  17  19
ENDBRANCH  15  17
ENDBRANCH  10  15
BRANCH   5  26
ATOM     26  C   UNL     1      -2.937  -1.344   1.787  0.00  0.00    +0.141 C 
BRANCH  26  27
ATOM     27  C   UNL     1      -3.299  -2.611   1.057  0.00  0.00    -0.030 A 
ATOM     28  C   UNL     1      -4.050  -2.551  -0.102  0.00  0.00    +0.005 A 
ATOM     29  C   UNL     1      -4.382  -3.713  -0.772  0.00  0.00    +0.001 A 
ATOM     30  C   UNL     1      -3.963  -4.936  -0.284  0.00  0.00    +0.012 A 
ATOM     31  C   UNL     1      -3.212  -4.997   0.875  0.00  0.00    +0.055 A 
ATOM     32  C   UNL     1      -2.876  -3.834   1.543  0.00  0.00    +0.017 A 
BRANCH  31  33
ATOM     33  C   UNL     1      -2.755  -6.331   1.408  0.00  0.00    +0.417 C 
ATOM     34  F   UNL     1      -3.211  -7.351   0.566  0.00  0.00    -0.166 F 
ATOM     35  F   UNL     1      -1.357  -6.359   1.459  0.00  0.00    -0.166 F 
ATOM     36  F   UNL     1      -3.273  -6.521   2.693  0.00  0.00    -0.166 F 
ENDBRANCH  31  33
ENDBRANCH  26  27
ENDBRANCH   5  26
TORSDOF 6
