REMARK  Name = ZINC28938982
REMARK  6 active torsions:
REMARK  status: ('A' for Active; 'I' for Inactive)
REMARK    1  A    between atoms: C_1  and  C_2
REMARK    2  A    between atoms: C_9  and  C_16
REMARK    3  A    between atoms: C_11  and  O_12
REMARK    4  A    between atoms: C_16  and  O_17
REMARK    5  A    between atoms: O_17  and  C_18
REMARK    6  A    between atoms: C_18  and  C_20
REMARK                            x       y       z     vdW  Elec       q    Type
REMARK                         _______ _______ _______ _____ _____    ______ ____
ROOT
ATOM      1  C   UNL     1      -0.132   0.957   0.016  0.00  0.00    +0.268 C 
ENDROOT
BRANCH   1  10
ATOM      2  C   UNL     1       0.837   0.037   8.831  0.00  0.00    +0.109 C 
ATOM      3  C   UNL     1       0.313   0.272   7.438  0.00  0.00    +0.214 C 
ATOM      4  O   UNL     1      -0.874   0.448   7.258  0.00  0.00    -0.276 OA
ATOM      5  N   UNL     1       1.163   0.286   6.392  0.00  0.00    -0.286 N 
ATOM      6  C   UNL     1       0.696   0.611   5.118  0.00  0.00    +0.037 A 
ATOM      7  C   UNL     1       1.259   0.001   3.997  0.00  0.00    +0.024 A 
ATOM      8  C   UNL     1       0.813   0.309   2.745  0.00  0.00    +0.014 A 
ATOM      9  C   UNL     1      -0.220   1.240   2.584  0.00  0.00    +0.024 A 
ATOM     10  C   UNL     1      -0.714   1.594   1.252  0.00  0.00    +0.007 A 
ATOM     11  C   UNL     1      -1.715   2.508   1.161  0.00  0.00    +0.095 A 
ATOM     12  C   UNL     1      -2.243   3.090   2.332  0.00  0.00    +0.285 A 
ATOM     13  O   UNL     1      -1.782   2.764   3.550  0.00  0.00    -0.425 OA
ATOM     14  C   UNL     1      -0.789   1.863   3.710  0.00  0.00    +0.141 A 
ATOM     15  C   UNL     1      -0.325   1.539   4.976  0.00  0.00    +0.070 A 
ATOM     16  H   UNL     1       2.224   0.040   6.543  0.00  0.00    +0.155 HD
BRANCH  12  17
ATOM     17  O   UNL     1      -3.139   3.908   2.235  0.00  0.00    -0.480 OA
ATOM     18  H   UNL     1      -3.562   4.370   3.140  0.00  0.00    +0.295 HD
ENDBRANCH  12  17
ENDBRANCH   1  10
BRANCH   1  19
ATOM     19  O   UNL     1      -0.805   1.479  -1.160  0.00  0.00    -0.459 OA
BRANCH  19  20
ATOM     20  C   UNL     1      -0.401   1.010  -2.351  0.00  0.00    +0.320 C 
ATOM     21  O   UNL     1       0.484   0.190  -2.409  0.00  0.00    -0.250 OA
BRANCH  20  22
ATOM     22  C   UNL     1      -1.053   1.507  -3.616  0.00  0.00    +0.165 C 
ATOM     23  C   UNL     1      -2.525   1.200  -3.570  0.00  0.00    +0.013 A 
ATOM     24  C   UNL     1      -3.359   1.994  -2.801  0.00  0.00    +0.008 A 
ATOM     25  C   UNL     1      -4.714   1.730  -2.745  0.00  0.00    +0.001 A 
ATOM     26  C   UNL     1      -5.242   0.669  -3.458  0.00  0.00    +0.004 A 
ATOM     27  C   UNL     1      -4.415  -0.126  -4.226  0.00  0.00    +0.046 A 
ATOM     28  C   UNL     1      -3.051   0.138  -4.285  0.00  0.00    +0.133 A 
ATOM     29  O   UNL     1      -2.257  -0.654  -5.044  0.00  0.00    -0.455 OA
ATOM     30  C   UNL     1      -1.045  -0.209  -5.453  0.00  0.00    +0.133 A 
ATOM     31  C   UNL     1      -0.411   0.836  -4.801  0.00  0.00    +0.013 A 
ATOM     32  C   UNL     1       0.827   1.272  -5.239  0.00  0.00    +0.008 A 
ATOM     33  C   UNL     1       1.433   0.670  -6.324  0.00  0.00    +0.001 A 
ATOM     34  C   UNL     1       0.803  -0.374  -6.977  0.00  0.00    +0.004 A 
ATOM     35  C   UNL     1      -0.432  -0.813  -6.544  0.00  0.00    +0.046 A 
ENDBRANCH  20  22
ENDBRANCH  19  20
ENDBRANCH   1  19
TORSDOF 5
