REMARK  Name = ZINC63761096
REMARK  4 active torsions:
REMARK  status: ('A' for Active; 'I' for Inactive)
REMARK    1  A    between atoms: C_5  and  C_7
REMARK    2  A    between atoms: C_7  and  N_8
REMARK    3  A    between atoms: C_28  and  C_30
REMARK    4  A    between atoms: C_34  and  N_36
REMARK                            x       y       z     vdW  Elec       q    Type
REMARK                         _______ _______ _______ _____ _____    ______ ____
ROOT
ATOM      1  N   UNL     1       1.709  -2.558   1.342  0.00  0.00    -0.287 N 
ATOM      2  C   UNL     1       3.062  -2.832   1.794  0.00  0.00    +0.204 C 
ATOM      3  C   UNL     1       3.095  -3.359   3.191  0.00  0.00    +0.234 C 
ATOM      4  O   UNL     1       4.179  -3.622   3.668  0.00  0.00    -0.274 OA
ATOM      5  N   UNL     1       2.014  -3.562   3.953  0.00  0.00    -0.279 N 
ATOM      6  C   UNL     1       0.658  -3.302   3.483  0.00  0.00    +0.167 C 
ATOM      7  C   UNL     1       0.626  -2.761   2.092  0.00  0.00    +0.237 C 
ATOM      8  O   UNL     1      -0.455  -2.493   1.611  0.00  0.00    -0.274 OA
ATOM      9  C   UNL     1      -0.182  -4.590   3.562  0.00  0.00    +0.065 C 
ATOM     10  C   UNL     1       0.088  -5.196   4.917  0.00  0.00    -0.034 C 
ATOM     11  C   UNL     1      -0.732  -5.614   5.873  0.00  0.00    -0.001 A 
ATOM     12  C   UNL     1      -2.197  -5.744   5.921  0.00  0.00    +0.010 A 
ATOM     13  C   UNL     1      -2.721  -6.195   7.092  0.00  0.00    +0.001 A 
ATOM     14  C   UNL     1      -1.944  -6.526   8.206  0.00  0.00    +0.002 A 
ATOM     15  C   UNL     1      -0.590  -6.446   8.248  0.00  0.00    +0.026 A 
ATOM     16  C   UNL     1       0.077  -5.992   7.072  0.00  0.00    +0.043 A 
ATOM     17  N   UNL     1       1.346  -5.845   6.830  0.00  0.00    -0.375 N 
ATOM     18  C   UNL     1       1.503  -5.418   5.439  0.00  0.00    +0.131 C 
ATOM     19  C   UNL     1       2.224  -4.072   5.327  0.00  0.00    +0.133 C 
ATOM     20  H   UNL     1       2.066  -5.994   7.462  0.00  0.00    +0.160 HD
ENDROOT
BRANCH  19  21
ATOM     21  C   UNL     1       1.651  -3.100   6.326  0.00  0.00    -0.023 A 
ATOM     22  C   UNL     1       0.309  -2.771   6.278  0.00  0.00    +0.005 A 
ATOM     23  C   UNL     1      -0.217  -1.879   7.194  0.00  0.00    +0.003 A 
ATOM     24  C   UNL     1       0.598  -1.317   8.158  0.00  0.00    +0.033 A 
ATOM     25  C   UNL     1       1.940  -1.647   8.207  0.00  0.00    +0.127 A 
ATOM     26  C   UNL     1       2.465  -2.542   7.293  0.00  0.00    +0.038 A 
BRANCH  25  27
ATOM     27  N   UNL     1       2.813  -1.044   9.239  0.00  0.00    +0.056 N 
ATOM     28  O   UNL     1       2.353  -0.264  10.040  0.00  0.00    -0.126 OA
ATOM     29  O   UNL     1       3.986  -1.333   9.281  0.00  0.00    -0.126 OA
ENDBRANCH  25  27
ENDBRANCH  19  21
BRANCH   1  30
ATOM     30  C   UNL     1       1.525  -2.024  -0.009  0.00  0.00    +0.146 C 
BRANCH  30  35
ATOM     31  C   UNL     1       0.427   1.587   0.060  0.00  0.00    +0.000 A 
ATOM     32  C   UNL     1       1.641   2.246   0.117  0.00  0.00    +0.003 A 
ATOM     33  C   UNL     1       2.819   1.524   0.134  0.00  0.00    +0.038 A 
ATOM     34  C   UNL     1       2.783   0.140   0.093  0.00  0.00    +0.128 A 
ATOM     35  C   UNL     1       1.566  -0.518   0.036  0.00  0.00    +0.005 A 
ATOM     36  C   UNL     1       0.389   0.206   0.019  0.00  0.00    +0.008 A 
ATOM     37  F   UNL     1       3.934  -0.567   0.108  0.00  0.00    -0.205 F 
ENDBRANCH  30  35
ENDBRANCH   1  30
TORSDOF 4
