REMARK  Name = ZINC02187355
REMARK  10 active torsions:
REMARK  status: ('A' for Active; 'I' for Inactive)
REMARK    1  A    between atoms: C_4  and  C_7
REMARK    2  A    between atoms: C_7  and  C_9
REMARK    3  A    between atoms: C_7  and  C_29
REMARK    4  A    between atoms: C_9  and  N_52
REMARK    5  A    between atoms: C_10  and  C_11
REMARK    6  A    between atoms: C_10  and  N_52
REMARK    7  A    between atoms: N_13  and  C_14
REMARK    8  A    between atoms: C_19  and  C_20
REMARK    9  A    between atoms: C_20  and  C_22
REMARK   10  A    between atoms: C_29  and  O_30
REMARK                            x       y       z     vdW  Elec       q    Type
REMARK                         _______ _______ _______ _____ _____    ______ ____
ROOT
ATOM      1  C   UNL     1       0.019   9.559  -0.011  0.00  0.00    +0.200 C 
ATOM      2  O   UNL     1      -1.017  10.188   0.046  0.00  0.00    -0.278 OA
ATOM      3  N   UNL     1      -0.013   8.213  -0.067  0.00  0.00    -0.286 N 
ATOM      4  H   UNL     1       0.808   7.713  -0.198  0.00  0.00    +0.155 HD
ENDROOT
BRANCH   3   5
ATOM      5  C   UNL     1      -1.224   7.538   0.065  0.00  0.00    +0.044 A 
ATOM      6  C   UNL     1      -2.283   8.131   0.740  0.00  0.00    +0.025 A 
ATOM      7  C   UNL     1      -3.481   7.460   0.874  0.00  0.00    +0.022 A 
ATOM      8  C   UNL     1      -3.640   6.192   0.332  0.00  0.00    +0.042 A 
ATOM      9  C   UNL     1      -2.602   5.590  -0.345  0.00  0.00    +0.033 A 
ATOM     10  C   UNL     1      -1.383   6.258  -0.489  0.00  0.00    +0.045 A 
ATOM     11 CL   UNL     1      -5.154   5.361   0.510  0.00  0.00    -0.084 Cl
BRANCH  10  12
ATOM     12  C   UNL     1      -0.268   5.620  -1.212  0.00  0.00    +0.195 C 
ATOM     13  O   UNL     1       0.318   4.677  -0.716  0.00  0.00    -0.287 OA
BRANCH  12  14
ATOM     14  C   UNL     1       0.137   6.126  -2.541  0.00  0.00    +0.022 A 
ATOM     15  C   UNL     1       1.258   5.594  -3.181  0.00  0.00    +0.012 A 
ATOM     16  C   UNL     1       1.631   6.071  -4.421  0.00  0.00    +0.001 A 
ATOM     17  C   UNL     1       0.897   7.074  -5.029  0.00  0.00    +0.000 A 
ATOM     18  C   UNL     1      -0.212   7.609  -4.397  0.00  0.00    +0.001 A 
ATOM     19  C   UNL     1      -0.600   7.137  -3.160  0.00  0.00    +0.012 A 
ENDBRANCH  12  14
ENDBRANCH  10  12
ENDBRANCH   3   5
BRANCH   1  20
ATOM     20  C   UNL     1       1.340  10.283  -0.020  0.00  0.00    +0.015 C 
BRANCH  20  21
ATOM     21  N   UNL     1       1.096  11.736   0.049  0.00  0.00    +0.385 N 
ATOM     22  H   UNL     1       0.536  12.024  -0.762  0.00  0.00    -0.085 HD
ATOM     23  H   UNL     1       0.586  11.953   0.912  0.00  0.00    -0.085 HD
BRANCH  21  24
ATOM     24  C   UNL     1       2.375  12.471   0.041  0.00  0.00    -0.072 C 
BRANCH  24  25
ATOM     25  C   UNL     1       2.091  13.972   0.113  0.00  0.00    +0.027 C 
BRANCH  25  29
ATOM     26  C   UNL     1       5.777  16.105   0.445  0.00  0.00    +0.000 A 
ATOM     27  C   UNL     1       4.822  16.218   1.438  0.00  0.00    +0.000 A 
ATOM     28  C   UNL     1       3.629  15.527   1.330  0.00  0.00    +0.004 A 
ATOM     29  C   UNL     1       3.391  14.725   0.230  0.00  0.00    -0.044 A 
ATOM     30  C   UNL     1       4.349  14.608  -0.760  0.00  0.00    +0.004 A 
ATOM     31  C   UNL     1       5.540  15.302  -0.655  0.00  0.00    +0.000 A 
ENDBRANCH  25  29
BRANCH  25  32
ATOM     32  C   UNL     1       1.358  14.414  -1.156  0.00  0.00    +0.162 C 
BRANCH  32  33
ATOM     33  O   UNL     1       0.075  13.788  -1.207  0.00  0.00    -0.394 OA
ATOM     34  H   UNL     1      -0.446  14.023  -1.987  0.00  0.00    +0.209 HD
ENDBRANCH  32  33
ENDBRANCH  25  32
ENDBRANCH  24  25
ENDBRANCH  21  24
ENDBRANCH  20  21
ENDBRANCH   1  20
TORSDOF 10
