REMARK  Name = ZINC13451603
REMARK  13 active torsions:
REMARK  status: ('A' for Active; 'I' for Inactive)
REMARK    1  A    between atoms: C_1  and  C_2
REMARK    2  A    between atoms: C_2  and  O_3
REMARK    3  A    between atoms: O_3  and  C_4
REMARK    4  A    between atoms: C_4  and  C_6
REMARK    5  A    between atoms: C_7  and  C_29
REMARK    6  A    between atoms: C_9  and  N_11
REMARK    7  A    between atoms: C_12  and  C_14
REMARK    8  A    between atoms: C_14  and  S_15
REMARK    9  A    between atoms: S_15  and  C_16
REMARK   10  A    between atoms: C_20  and  C_24
REMARK   11  A    between atoms: C_21  and  C_23
REMARK   12  A    between atoms: C_24  and  C_25
REMARK   13  A    between atoms: C_25  and  C_26
REMARK                            x       y       z     vdW  Elec       q    Type
REMARK                         _______ _______ _______ _____ _____    ______ ____
ROOT
ATOM      1  N   UNL     1      -6.775  -2.931   0.047  0.00  0.00    -0.279 N 
ATOM      2  C   UNL     1      -7.468  -1.775   0.053  0.00  0.00    +0.228 C 
ATOM      3  O   UNL     1      -6.879  -0.715   0.049  0.00  0.00    -0.275 OA
ATOM      4  H   UNL     1      -7.246  -3.779   0.050  0.00  0.00    +0.155 HD
ENDROOT
BRANCH   1   8
ATOM      5  C   UNL     1      -2.799  -2.398   0.016  0.00  0.00    +0.101 A 
ATOM      6  C   UNL     1      -3.174  -3.736   0.018  0.00  0.00    -0.028 A 
ATOM      7  C   UNL     1      -4.522  -3.979   0.028  0.00  0.00    +0.035 A 
ATOM      8  C   UNL     1      -5.386  -2.908   0.036  0.00  0.00    +0.073 A 
ATOM      9  S   UNL     1      -4.375  -1.567   0.036  0.00  0.00    -0.067 S 
ATOM     10  C   UNL     1      -2.161  -4.851   0.009  0.00  0.00    +0.045 C 
BRANCH   5  11
ATOM     11  C   UNL     1      -1.497  -1.839   0.006  0.00  0.00    +0.346 C 
ATOM     12  O   UNL     1      -0.522  -2.567  -0.007  0.00  0.00    -0.244 OA
BRANCH  11  13
ATOM     13  O   UNL     1      -1.339  -0.499   0.012  0.00  0.00    -0.461 OA
BRANCH  13  15
ATOM     14  C   UNL     1      -0.019   1.526   0.010  0.00  0.00    +0.048 C 
ATOM     15  C   UNL     1       0.002  -0.004   0.002  0.00  0.00    +0.229 C 
ENDBRANCH  13  15
ENDBRANCH  11  13
ENDBRANCH   5  11
ENDBRANCH   1   8
BRANCH   2  16
ATOM     16  C   UNL     1      -8.975  -1.800   0.065  0.00  0.00    +0.173 C 
BRANCH  16  17
ATOM     17  S   UNL     1      -9.607  -0.100   0.071  0.00  0.00    -0.077 S 
BRANCH  17  18
ATOM     18  C   UNL     1     -11.358  -0.296   0.084  0.00  0.00    +0.192 A 
ATOM     19  N   UNL     1     -11.872  -1.518   0.093  0.00  0.00    -0.183 NA
ATOM     20  C   UNL     1     -13.186  -1.700   0.103  0.00  0.00    +0.277 A 
ATOM     21  O   UNL     1     -13.707  -2.951   0.112  0.00  0.00    -0.265 OA
ATOM     22  C   UNL     1     -14.024  -0.585   0.105  0.00  0.00    +0.040 A 
ATOM     23  C   UNL     1     -13.450   0.672   0.096  0.00  0.00    +0.049 A 
ATOM     24  N   UNL     1     -12.130   0.781   0.091  0.00  0.00    -0.227 NA
ATOM     25  C   UNL     1     -14.316   1.905   0.096  0.00  0.00    +0.066 C 
BRANCH  22  26
ATOM     26  C   UNL     1     -15.522  -0.748   0.116  0.00  0.00    +0.054 C 
BRANCH  26  27
ATOM     27  C   UNL     1     -16.019  -0.797   1.562  0.00  0.00    +0.130 C 
BRANCH  27  28
ATOM     28  C   UNL     1     -17.517  -0.960   1.573  0.00  0.00    +0.356 C 
ATOM     29  O   UNL     1     -18.131  -1.029   0.522  0.00  0.00    -0.246 OA
ATOM     30  O   UNL     1     -18.116  -1.021   2.633  0.00  0.00    -0.246 OA
ENDBRANCH  27  28
ENDBRANCH  26  27
ENDBRANCH  22  26
ENDBRANCH  17  18
ENDBRANCH  16  17
ENDBRANCH   2  16
TORSDOF 10
