REMARK  Name = ZINC36637807
REMARK  11 active torsions:
REMARK  status: ('A' for Active; 'I' for Inactive)
REMARK    1  A    between atoms: C_1  and  C_2
REMARK    2  A    between atoms: C_2  and  N_3
REMARK    3  A    between atoms: N_3  and  C_4
REMARK    4  A    between atoms: N_3  and  C_6
REMARK    5  A    between atoms: C_4  and  C_5
REMARK    6  A    between atoms: C_6  and  C_7
REMARK    7  A    between atoms: C_7  and  N_8
REMARK    8  A    between atoms: C_19  and  C_21
REMARK    9  A    between atoms: C_24  and  S_27
REMARK   10  A    between atoms: S_27  and  N_30
REMARK   11  A    between atoms: C_35  and  C_37
REMARK                            x       y       z     vdW  Elec       q    Type
REMARK                         _______ _______ _______ _____ _____    ______ ____
ROOT
ATOM      1  N   UNL     1      -0.160  -3.593  -2.265  0.00  0.00    -0.248 N 
ATOM      2  C   UNL     1      -1.140  -4.056  -3.127  0.00  0.00    +0.168 A 
ATOM      3  N   UNL     1      -1.532  -3.552  -4.274  0.00  0.00    -0.224 NA
ATOM      4  C   UNL     1      -2.510  -4.115  -5.017  0.00  0.00    +0.080 A 
ATOM      5  C   UNL     1      -3.023  -3.677  -6.260  0.00  0.00    +0.032 A 
ATOM      6  C   UNL     1      -4.026  -4.368  -6.887  0.00  0.00    +0.040 A 
ATOM      7  C   UNL     1      -4.573  -5.517  -6.330  0.00  0.00    +0.125 A 
ATOM      8  C   UNL     1      -4.094  -5.974  -5.114  0.00  0.00    +0.055 A 
ATOM      9  C   UNL     1      -3.090  -5.287  -4.480  0.00  0.00    +0.043 A 
ATOM     10  S   UNL     1      -2.187  -5.495  -2.964  0.00  0.00    -0.052 S 
ATOM     11  F   UNL     1      -5.562  -6.180  -6.968  0.00  0.00    -0.205 F 
ATOM     12  C   UNL     1       0.104  -4.260  -1.124  0.00  0.00    +0.252 C 
ATOM     13  O   UNL     1      -0.479  -5.298  -0.878  0.00  0.00    -0.270 OA
ENDROOT
BRANCH  12  14
ATOM     14  C   UNL     1       1.102  -3.730  -0.172  0.00  0.00    +0.037 A 
ATOM     15  C   UNL     1       1.317  -2.354  -0.075  0.00  0.00    +0.015 A 
ATOM     16  C   UNL     1       2.251  -1.866   0.816  0.00  0.00    +0.029 A 
ATOM     17  C   UNL     1       2.973  -2.736   1.613  0.00  0.00    +0.106 A 
ATOM     18  C   UNL     1       2.764  -4.101   1.522  0.00  0.00    +0.029 A 
ATOM     19  C   UNL     1       1.829  -4.603   0.640  0.00  0.00    +0.015 A 
BRANCH  17  20
ATOM     20  S   UNL     1       4.163  -2.104   2.747  0.00  0.00    +0.061 S 
ATOM     21  O   UNL     1       5.185  -3.086   2.852  0.00  0.00    -0.153 OA
ATOM     22  O   UNL     1       4.431  -0.766   2.352  0.00  0.00    -0.153 OA
BRANCH  20  23
ATOM     23  N   UNL     1       3.432  -2.023   4.230  0.00  0.00    -0.174 NA
ATOM     24  C   UNL     1       3.635  -3.085   5.225  0.00  0.00    +0.110 C 
ATOM     25  C   UNL     1       4.114  -2.449   6.534  0.00  0.00    +0.017 C 
ATOM     26  C   UNL     1       3.122  -1.367   6.964  0.00  0.00    +0.003 C 
ATOM     27  C   UNL     1       3.058  -0.276   5.892  0.00  0.00    +0.020 C 
ATOM     28  C   UNL     1       2.571  -0.884   4.579  0.00  0.00    +0.077 C 
ATOM     29  C   UNL     1       2.642   0.170   3.471  0.00  0.00    +0.026 C 
ENDBRANCH  20  23
ENDBRANCH  17  20
ENDBRANCH  12  14
BRANCH   1  30
ATOM     30  C   UNL     1       0.590  -2.378  -2.593  0.00  0.00    +0.097 C 
BRANCH  30  31
ATOM     31  C   UNL     1      -0.273  -1.150  -2.296  0.00  0.00    -0.059 C 
BRANCH  31  32
ATOM     32  N   UNL     1       0.520   0.068  -2.507  0.00  0.00    +0.380 N 
ATOM     33  H   UNL     1       1.353   0.030  -1.940  0.00  0.00    -0.082 HD
BRANCH  32  35
ATOM     34  C   UNL     1       1.824   1.369  -4.121  0.00  0.00    -0.017 C 
ATOM     35  C   UNL     1       0.896   0.169  -3.923  0.00  0.00    -0.082 C 
ENDBRANCH  32  35
BRANCH  32  36
ATOM     36  C   UNL     1      -0.277   1.243  -2.127  0.00  0.00    -0.082 C 
ATOM     37  C   UNL     1      -0.526   1.224  -0.618  0.00  0.00    -0.017 C 
ENDBRANCH  32  36
ENDBRANCH  31  32
ENDBRANCH  30  31
ENDBRANCH   1  30
TORSDOF 8
