REMARK  Name = ZINC00143628
REMARK  8 active torsions:
REMARK  status: ('A' for Active; 'I' for Inactive)
REMARK    1  A    between atoms: C_1  and  C_2
REMARK    2  A    between atoms: C_4  and  C_28
REMARK    3  A    between atoms: C_5  and  C_9
REMARK    4  A    between atoms: C_6  and  C_8
REMARK    5  A    between atoms: C_18  and  C_26
REMARK    6  A    between atoms: C_19  and  N_25
REMARK    7  A    between atoms: C_20  and  C_21
REMARK    8  A    between atoms: C_20  and  C_23
REMARK                            x       y       z     vdW  Elec       q    Type
REMARK                         _______ _______ _______ _____ _____    ______ ____
ROOT
ATOM      1  C   UNL     1      -2.604   2.702  -0.134  0.00  0.00    +0.067 C 
ATOM      2  C   UNL     1      -3.066   4.160  -0.098  0.00  0.00    +0.030 C 
ATOM      3  C   UNL     1      -1.900   5.121  -0.120  0.00  0.00    +0.009 C 
ATOM      4  C   UNL     1      -1.558   5.634   1.277  0.00  0.00    +0.005 C 
ATOM      5  C   UNL     1      -2.796   6.337   1.850  0.00  0.00    +0.027 C 
ATOM      6  C   UNL     1      -3.903   5.319   1.939  0.00  0.00    -0.022 C 
ATOM      7  C   UNL     1      -3.993   4.333   1.068  0.00  0.00    -0.029 C 
ATOM      8  C   UNL     1      -5.035   3.291   1.259  0.00  0.00    +0.074 C 
ATOM      9  C   UNL     1      -4.930   2.115   0.590  0.00  0.00    +0.054 C 
ATOM     10  C   UNL     1      -3.818   1.802  -0.369  0.00  0.00    +0.188 C 
ENDROOT
BRANCH   1  15
ATOM     11  C   UNL     1      -0.123   1.344   4.905  0.00  0.00    +0.044 C 
ATOM     12  C   UNL     1      -0.771   1.696   3.591  0.00  0.00    -0.050 A 
ATOM     13  C   UNL     1      -2.110   2.037   3.550  0.00  0.00    +0.007 A 
ATOM     14  C   UNL     1      -2.704   2.359   2.344  0.00  0.00    -0.046 A 
ATOM     15  C   UNL     1      -1.958   2.345   1.180  0.00  0.00    -0.035 A 
ATOM     16  C   UNL     1      -0.620   2.000   1.221  0.00  0.00    -0.046 A 
ATOM     17  C   UNL     1      -0.026   1.677   2.426  0.00  0.00    +0.007 A 
ATOM     18  C   UNL     1       0.192   1.980  -0.049  0.00  0.00    +0.044 C 
ATOM     19  C   UNL     1      -4.164   2.732   2.299  0.00  0.00    +0.044 C 
ENDBRANCH   1  15
BRANCH   9  20
ATOM     20  N   UNL     1      -5.888   1.164   0.800  0.00  0.00    -0.358 N 
ATOM     21  H   UNL     1      -5.832   0.200   0.272  0.00  0.00    +0.142 HD
ATOM     22  H   UNL     1      -6.716   1.362   1.496  0.00  0.00    +0.142 HD
ENDBRANCH   9  20
BRANCH  10  23
ATOM     23  C   UNL     1      -4.301   1.996  -1.745  0.00  0.00    +0.091 C 
ATOM     24  N   UNL     1      -4.674   2.147  -2.808  0.00  0.00    -0.194 NA
ENDBRANCH  10  23
BRANCH  10  25
ATOM     25  C   UNL     1      -3.413   0.397  -0.198  0.00  0.00    +0.091 C 
ATOM     26  N   UNL     1      -3.101  -0.688  -0.066  0.00  0.00    -0.194 NA
ENDBRANCH  10  25
BRANCH   8  27
ATOM     27  C   UNL     1      -6.139   3.525   2.141  0.00  0.00    +0.101 C 
ATOM     28  N   UNL     1      -7.015   3.710   2.840  0.00  0.00    -0.191 NA
ENDBRANCH   8  27
TORSDOF 5
