REMARK  Name = ZINC55458070
REMARK  4 active torsions:
REMARK  status: ('A' for Active; 'I' for Inactive)
REMARK    1  A    between atoms: C_1  and  C_2
REMARK    2  A    between atoms: C_14  and  C_16
REMARK    3  A    between atoms: C_16  and  O_18
REMARK    4  A    between atoms: O_18  and  C_19
REMARK                            x       y       z     vdW  Elec       q    Type
REMARK                         _______ _______ _______ _____ _____    ______ ____
ROOT
ATOM      1  C   UNL     1       0.065   1.360  -0.107  0.00  0.00    +0.109 C 
ATOM      2  C   UNL     1       0.001  -0.146  -0.100  0.00  0.00    +0.213 C 
ATOM      3  O   UNL     1       1.023  -0.796  -0.150  0.00  0.00    -0.276 OA
ATOM      4  N   UNL     1      -1.192  -0.769  -0.039  0.00  0.00    -0.285 N 
ATOM      5  C   UNL     1      -1.407  -2.218  -0.019  0.00  0.00    +0.080 C 
ATOM      6  C   UNL     1      -0.347  -2.983  -0.779  0.00  0.00    +0.023 C 
ATOM      7  C   UNL     1      -0.413  -2.682  -2.277  0.00  0.00    +0.002 C 
ATOM      8  C   UNL     1      -1.803  -3.074  -2.789  0.00  0.00    +0.000 C 
ATOM      9  C   UNL     1      -2.845  -2.202  -2.093  0.00  0.00    +0.005 C 
ATOM     10  C   UNL     1      -2.818  -2.437  -0.596  0.00  0.00    +0.012 C 
ATOM     11  C   UNL     1      -3.576  -1.232   0.041  0.00  0.00    +0.039 C 
ATOM     12  C   UNL     1      -2.511  -0.113   0.026  0.00  0.00    +0.185 C 
ENDROOT
BRANCH  12  13
ATOM     13  C   UNL     1      -2.708   0.763  -1.184  0.00  0.00    +0.328 C 
ATOM     14  O   UNL     1      -1.940   0.691  -2.114  0.00  0.00    -0.249 OA
BRANCH  13  15
ATOM     15  O   UNL     1      -3.737   1.624  -1.229  0.00  0.00    -0.467 OA
ATOM     16  C   UNL     1      -3.863   2.424  -2.406  0.00  0.00    +0.280 C 
ENDBRANCH  13  15
ENDBRANCH  12  13
TORSDOF 2
