REMARK  Name = ZINC16958131
REMARK  11 active torsions:
REMARK  status: ('A' for Active; 'I' for Inactive)
REMARK    1  A    between atoms: C_1  and  C_2
REMARK    2  A    between atoms: C_3  and  C_12
REMARK    3  A    between atoms: N_7  and  N_8
REMARK    4  A    between atoms: C_9  and  C_11
REMARK    5  A    between atoms: C_12  and  C_19
REMARK    6  A    between atoms: N_13  and  N_14
REMARK    7  A    between atoms: N_14  and  C_15
REMARK    8  A    between atoms: C_15  and  N_17
REMARK    9  A    between atoms: N_17  and  N_18
REMARK   10  A    between atoms: C_20  and  C_21
REMARK   11  A    between atoms: C_25  and  N_27
REMARK                            x       y       z     vdW  Elec       q    Type
REMARK                         _______ _______ _______ _____ _____    ______ ____
ROOT
ATOM      1  C   UNL     1      -0.481   7.390  -0.931  0.00  0.00    +0.097 C 
ATOM      2  N   UNL     1       0.166   8.569  -0.827  0.00  0.00    -0.180 NA
ENDROOT
BRANCH   1   5
ATOM      3  C   UNL     1      -2.340   9.706  -0.045  0.00  0.00    +0.067 C 
ATOM      4  C   UNL     1      -2.816   8.361  -0.529  0.00  0.00    +0.057 A 
ATOM      5  C   UNL     1      -1.886   7.356  -0.916  0.00  0.00    +0.063 A 
ATOM      6  S   UNL     1      -3.003   6.035  -1.372  0.00  0.00    -0.049 S 
ATOM      7  C   UNL     1      -4.527   6.905  -1.028  0.00  0.00    +0.175 A 
ATOM      8  N   UNL     1      -4.078   8.096  -0.606  0.00  0.00    -0.228 NA
ATOM      9  N   UNL     1      -5.811   6.470  -1.161  0.00  0.00    -0.243 N 
ATOM     10  H   UNL     1      -5.988   5.572  -1.482  0.00  0.00    +0.172 HD
BRANCH   9  11
ATOM     11  N   UNL     1      -6.875   7.320  -0.833  0.00  0.00    -0.235 N 
ATOM     12  C   UNL     1      -8.146   6.890  -0.964  0.00  0.00    +0.226 C 
ATOM     13  O   UNL     1      -8.368   5.767  -1.366  0.00  0.00    -0.275 OA
ATOM     14  C   UNL     1      -9.291   7.804  -0.612  0.00  0.00    +0.110 C 
ATOM     15  H   UNL     1      -6.698   8.218  -0.511  0.00  0.00    +0.173 HD
ENDBRANCH   9  11
ENDBRANCH   1   5
BRANCH   2  16
ATOM     16  N   UNL     1       1.456   8.601  -0.842  0.00  0.00    -0.217 N 
ATOM     17  H   UNL     1       1.961   7.773  -0.848  0.00  0.00    +0.176 HD
BRANCH  16  18
ATOM     18  C   UNL     1       2.101   9.784  -0.851  0.00  0.00    +0.164 C 
ATOM     19  S   UNL     1       3.799   9.832  -1.069  0.00  0.00    -0.016 S 
BRANCH  18  20
ATOM     20  N   UNL     1       1.410  10.930  -0.687  0.00  0.00    -0.264 N 
ATOM     21  H   UNL     1       1.857  11.784  -0.791  0.00  0.00    +0.168 HD
BRANCH  20  22
ATOM     22  N   UNL     1       0.081  10.887  -0.374  0.00  0.00    -0.255 NA
ATOM     23  H   UNL     1      -0.299  11.817  -0.284  0.00  0.00    +0.140 HD
ATOM     24  H   UNL     1      -0.434  10.351  -1.056  0.00  0.00    +0.140 HD
ENDBRANCH  20  22
ENDBRANCH  18  20
ENDBRANCH  16  18
ENDBRANCH   2  16
BRANCH   1  25
ATOM     25  C   UNL     1       0.255   6.187  -1.054  0.00  0.00    +0.031 C 
ATOM     26  C   UNL     1      -0.390   4.991  -1.025  0.00  0.00    +0.010 C 
BRANCH  26  27
ATOM     27  C   UNL     1       0.334   3.760  -1.365  0.00  0.00    -0.023 A 
ATOM     28  C   UNL     1       1.689   3.814  -1.720  0.00  0.00    +0.008 A 
ATOM     29  C   UNL     1       2.361   2.653  -2.033  0.00  0.00    +0.003 A 
ATOM     30  C   UNL     1       1.699   1.436  -2.009  0.00  0.00    +0.033 A 
ATOM     31  C   UNL     1       0.360   1.374  -1.658  0.00  0.00    +0.127 A 
ATOM     32  C   UNL     1      -0.327   2.524  -1.337  0.00  0.00    +0.040 A 
BRANCH  31  33
ATOM     33  N   UNL     1      -0.335   0.067  -1.629  0.00  0.00    +0.056 N 
ATOM     34  O   UNL     1       0.320  -1.034  -1.937  0.00  0.00    -0.126 OA
ATOM     35  O   UNL     1      -1.607   0.005  -1.297  0.00  0.00    -0.126 OA
ENDBRANCH  31  33
ENDBRANCH  26  27
ENDBRANCH   1  25
TORSDOF 9
