REMARK  Name = ZINC35458932
REMARK  10 active torsions:
REMARK  status: ('A' for Active; 'I' for Inactive)
REMARK    1  A    between atoms: C_1  and  C_2
REMARK    2  A    between atoms: C_2  and  C_3
REMARK    3  A    between atoms: C_2  and  C_4
REMARK    4  A    between atoms: C_2  and  O_33
REMARK    5  A    between atoms: C_4  and  C_5
REMARK    6  A    between atoms: C_5  and  C_7
REMARK    7  A    between atoms: C_5  and  O_32
REMARK    8  A    between atoms: C_10  and  O_31
REMARK    9  A    between atoms: C_18  and  O_22
REMARK   10  A    between atoms: C_23  and  O_30
REMARK                            x       y       z     vdW  Elec       q    Type
REMARK                         _______ _______ _______ _____ _____    ______ ____
ROOT
ATOM      1  C   UNL     1      -3.453  -0.827  -1.429  0.00  0.00    +0.024 A 
ATOM      2  C   UNL     1      -4.550  -0.100  -1.013  0.00  0.00    +0.013 A 
ATOM      3  C   UNL     1      -5.822  -0.643  -1.061  0.00  0.00    +0.047 A 
ATOM      4  C   UNL     1      -6.008  -1.932  -1.534  0.00  0.00    +0.131 A 
ATOM      5  C   UNL     1      -4.902  -2.674  -1.962  0.00  0.00    +0.106 A 
ATOM      6  C   UNL     1      -3.612  -2.121  -1.910  0.00  0.00    +0.148 A 
ATOM      7  O   UNL     1      -2.535  -2.829  -2.306  0.00  0.00    -0.454 OA
ATOM      8  C   UNL     1      -2.651  -3.946  -3.054  0.00  0.00    +0.146 A 
ATOM      9  C   UNL     1      -1.541  -4.457  -3.709  0.00  0.00    +0.093 A 
ATOM     10  C   UNL     1      -1.639  -5.613  -4.479  0.00  0.00    +0.139 A 
ATOM     11  C   UNL     1      -2.867  -6.260  -4.594  0.00  0.00    +0.079 A 
ATOM     12  C   UNL     1      -3.985  -5.774  -3.950  0.00  0.00    +0.141 A 
ATOM     13  C   UNL     1      -3.885  -4.607  -3.181  0.00  0.00    +0.107 A 
ATOM     14  C   UNL     1      -5.060  -4.045  -2.486  0.00  0.00    +0.207 A 
ATOM     15  O   UNL     1      -6.100  -4.668  -2.364  0.00  0.00    -0.286 OA
ATOM     16  C   UNL     1      -2.663  -7.456  -5.501  0.00  0.00    +0.193 C 
ATOM     17  C   UNL     1      -2.328  -8.674  -4.662  0.00  0.00    +0.057 C 
ATOM     18  C   UNL     1      -1.166  -9.133  -5.074  0.00  0.00    +0.191 C 
ATOM     19  O   UNL     1      -0.633  -8.421  -6.092  0.00  0.00    -0.458 OA
ATOM     20  C   UNL     1      -1.279  -7.135  -6.148  0.00  0.00    +0.403 C 
ATOM     21  O   UNL     1      -0.673  -6.268  -5.177  0.00  0.00    -0.450 OA
ENDROOT
BRANCH  12  22
ATOM     22  O   UNL     1      -5.173  -6.420  -4.060  0.00  0.00    -0.505 OA
ATOM     23  H   UNL     1      -5.319  -7.093  -3.381  0.00  0.00    +0.292 HD
ENDBRANCH  12  22
BRANCH  16  24
ATOM     24  O   UNL     1      -3.720  -7.653  -6.443  0.00  0.00    -0.373 OA
ATOM     25  H   UNL     1      -3.592  -8.416  -7.023  0.00  0.00    +0.211 HD
ENDBRANCH  16  24
BRANCH   4  26
ATOM     26  O   UNL     1      -7.253  -2.471  -1.581  0.00  0.00    -0.506 OA
ATOM     27  H   UNL     1      -7.718  -2.311  -2.413  0.00  0.00    +0.292 HD
ENDBRANCH   4  26
BRANCH   1  28
ATOM     28  C   UNL     1      -2.078  -0.213  -1.366  0.00  0.00    +0.151 C 
BRANCH  28  29
ATOM     29  O   UNL     1      -2.189   1.210  -1.415  0.00  0.00    -0.387 OA
ATOM     30  H   UNL     1      -2.704   1.590  -0.690  0.00  0.00    +0.210 HD
ENDBRANCH  28  29
BRANCH  28  31
ATOM     31  C   UNL     1      -1.394  -0.627  -0.062  0.00  0.00    +0.070 C 
BRANCH  31  33
ATOM     32  C   UNL     1       0.778  -0.663   1.173  0.00  0.00    +0.041 C 
ATOM     33  C   UNL     1       0.054  -0.133  -0.066  0.00  0.00    +0.063 C 
ATOM     34  C   UNL     1       0.762  -0.640  -1.325  0.00  0.00    +0.041 C 
BRANCH  33  35
ATOM     35  O   UNL     1       0.070   1.295  -0.054  0.00  0.00    -0.389 OA
ATOM     36  H   UNL     1      -0.372   1.701  -0.812  0.00  0.00    +0.210 HD
ENDBRANCH  33  35
ENDBRANCH  31  33
ENDBRANCH  28  31
ENDBRANCH   1  28
TORSDOF 8
