REMARK  Name = ZINC06947784
REMARK  2 active torsions:
REMARK  status: ('A' for Active; 'I' for Inactive)
REMARK    1  A    between atoms: C_3  and  C_8
REMARK    2  A    between atoms: C_11  and  C_19
REMARK                            x       y       z     vdW  Elec       q    Type
REMARK                         _______ _______ _______ _____ _____    ______ ____
ROOT
ATOM      1  C   UNL     1       3.672   2.183  -0.022  0.00  0.00    +0.143 C 
ATOM      2  C   UNL     1       4.474   1.828  -1.280  0.00  0.00    +0.058 C 
ATOM      3  C   UNL     1       5.896   2.389  -1.163  0.00  0.00    +0.106 C 
ATOM      4  N   UNL     1       6.561   1.751  -0.011  0.00  0.00    -0.307 N 
ATOM      5  C   UNL     1       5.802   1.630   1.146  0.00  0.00    +0.215 A 
ATOM      6  N   UNL     1       4.460   1.832   1.158  0.00  0.00    -0.226 N 
ATOM      7  N   UNL     1       4.039   1.634   2.474  0.00  0.00    -0.156 NA
ATOM      8  C   UNL     1       5.106   1.333   3.171  0.00  0.00    +0.247 A 
ATOM      9  N   UNL     1       6.175   1.327   2.360  0.00  0.00    -0.202 NA
ATOM     10  H   UNL     1       7.476   1.433  -0.059  0.00  0.00    +0.149 HD
ENDROOT
BRANCH   1  13
ATOM     11  C   UNL     1      -0.017   1.378   0.010  0.00  0.00    +0.001 A 
ATOM     12  C   UNL     1       1.171   2.086   0.002  0.00  0.00    +0.006 A 
ATOM     13  C   UNL     1       2.378   1.411  -0.013  0.00  0.00    -0.022 A 
ATOM     14  C   UNL     1       2.397   0.029  -0.022  0.00  0.00    +0.021 A 
ATOM     15  C   UNL     1       1.210  -0.679  -0.014  0.00  0.00    +0.018 A 
ATOM     16  C   UNL     1       0.002  -0.004   0.002  0.00  0.00    +0.015 A 
ATOM     17 BR   UNL     1       1.236  -2.570  -0.025  0.00  0.00    -0.050 Br
ENDBRANCH   1  13
BRANCH   3  18
ATOM     18  C   UNL     1       5.836   3.880  -0.955  0.00  0.00    -0.027 A 
ATOM     19  C   UNL     1       5.575   4.392   0.302  0.00  0.00    +0.008 A 
ATOM     20  C   UNL     1       5.520   5.760   0.494  0.00  0.00    +0.038 A 
ATOM     21  C   UNL     1       5.726   6.617  -0.573  0.00  0.00    +0.123 A 
ATOM     22  C   UNL     1       5.987   6.103  -1.832  0.00  0.00    +0.038 A 
ATOM     23  C   UNL     1       6.047   4.735  -2.021  0.00  0.00    +0.008 A 
ATOM     24  F   UNL     1       5.673   7.954  -0.386  0.00  0.00    -0.205 F 
ENDBRANCH   3  18
TORSDOF 2
