REMARK  Name = ZINC36007383
REMARK  6 active torsions:
REMARK  status: ('A' for Active; 'I' for Inactive)
REMARK    1  A    between atoms: C_1  and  C_2
REMARK    2  A    between atoms: C_2  and  C_4
REMARK    3  A    between atoms: C_2  and  N_18
REMARK    4  A    between atoms: N_6  and  C_7
REMARK    5  A    between atoms: C_8  and  C_15
REMARK    6  A    between atoms: C_22  and  C_25
REMARK                            x       y       z     vdW  Elec       q    Type
REMARK                         _______ _______ _______ _____ _____    ______ ____
ROOT
ATOM      1  C   UNL     1       0.791  -0.610   1.134  0.00  0.00    +0.204 C 
ATOM      2  O   UNL     1       1.690  -1.389   0.898  0.00  0.00    -0.277 OA
ATOM      3  N   UNL     1       0.496  -0.287   2.409  0.00  0.00    -0.281 N 
ATOM      4  H   UNL     1      -0.223   0.335   2.598  0.00  0.00    +0.155 HD
ENDROOT
BRANCH   3   5
ATOM      5  C   UNL     1       1.222  -0.845   3.451  0.00  0.00    +0.084 A 
ATOM      6  C   UNL     1       1.059  -0.637   4.808  0.00  0.00    +0.068 A 
ATOM      7  C   UNL     1       1.961  -1.352   5.709  0.00  0.00    -0.023 A 
ATOM      8  C   UNL     1       2.854  -2.138   5.080  0.00  0.00    -0.004 A 
ATOM      9  S   UNL     1       2.494  -1.934   3.355  0.00  0.00    -0.077 S 
ATOM     10  C   UNL     1       3.759  -2.846   6.052  0.00  0.00    +0.043 C 
ATOM     11  C   UNL     1       3.594  -2.069   7.377  0.00  0.00    +0.010 C 
ATOM     12  C   UNL     1       2.183  -1.467   7.215  0.00  0.00    +0.037 C 
BRANCH   6  13
ATOM     13  C   UNL     1       0.024   0.265   5.322  0.00  0.00    +0.244 C 
ATOM     14  O   UNL     1      -1.086  -0.165   5.578  0.00  0.00    -0.270 OA
ATOM     15  N   UNL     1       0.301   1.570   5.512  0.00  0.00    -0.325 N 
ATOM     16  H   UNL     1       1.185   1.913   5.308  0.00  0.00    +0.145 HD
ATOM     17  H   UNL     1      -0.384   2.167   5.852  0.00  0.00    +0.145 HD
ENDBRANCH   6  13
ENDBRANCH   3   5
BRANCH   1  19
ATOM     18  C   UNL     1       0.629   1.333  -0.397  0.00  0.00    -0.004 C 
ATOM     19  C   UNL     1       0.002  -0.004   0.002  0.00  0.00    +0.016 C 
BRANCH  19  20
ATOM     20  N   UNL     1       0.019  -0.916  -1.150  0.00  0.00    +0.388 N 
ATOM     21  C   UNL     1      -0.711  -0.304  -2.267  0.00  0.00    -0.078 C 
ATOM     22  C   UNL     1      -0.627  -1.213  -3.495  0.00  0.00    -0.018 C 
ATOM     23  C   UNL     1      -1.249  -2.572  -3.160  0.00  0.00    +0.008 C 
ATOM     24  C   UNL     1      -0.528  -3.167  -1.947  0.00  0.00    +0.077 C 
ATOM     25  C   UNL     1      -0.615  -2.186  -0.776  0.00  0.00    -0.066 C 
ATOM     26  H   UNL     1       0.974  -1.087  -1.428  0.00  0.00    -0.081 HD
BRANCH  24  27
ATOM     27  C   UNL     1      -1.191  -4.490  -1.556  0.00  0.00    +0.391 C 
ATOM     28  F   UNL     1      -1.115  -5.384  -2.629  0.00  0.00    -0.171 F 
ATOM     29  F   UNL     1      -0.532  -5.032  -0.448  0.00  0.00    -0.171 F 
ATOM     30  F   UNL     1      -2.533  -4.261  -1.234  0.00  0.00    -0.171 F 
ENDBRANCH  24  27
ENDBRANCH  19  20
ENDBRANCH   1  19
TORSDOF 5
