REMARK  Name = ZINC04845569
REMARK  16 active torsions:
REMARK  status: ('A' for Active; 'I' for Inactive)
REMARK    1  A    between atoms: C_1  and  C_2
REMARK    2  A    between atoms: C_2  and  O_3
REMARK    3  A    between atoms: O_3  and  C_4
REMARK    4  A    between atoms: C_4  and  C_6
REMARK    5  A    between atoms: C_6  and  C_7
REMARK    6  A    between atoms: C_6  and  C_22
REMARK    7  A    between atoms: C_7  and  C_8
REMARK    8  A    between atoms: C_8  and  C_9
REMARK    9  A    between atoms: C_9  and  C_10
REMARK   10  A    between atoms: C_10  and  O_11
REMARK   11  A    between atoms: O_11  and  C_12
REMARK   12  A    between atoms: C_17  and  C_18
REMARK   13  A    between atoms: C_18  and  C_19
REMARK   14  A    between atoms: C_22  and  O_24
REMARK   15  A    between atoms: O_24  and  C_25
REMARK   16  A    between atoms: C_25  and  C_26
REMARK                            x       y       z     vdW  Elec       q    Type
REMARK                         _______ _______ _______ _____ _____    ______ ____
ROOT
ATOM      1  C   UNL     1       1.743  -6.263   1.564  0.00  0.00    +0.005 C 
ENDROOT
BRANCH   1   2
ATOM      2  C   UNL     1       2.373  -6.495   2.939  0.00  0.00    +0.026 C 
BRANCH   2   3
ATOM      3  C   UNL     1       3.008  -7.887   2.981  0.00  0.00    +0.206 C 
BRANCH   3   4
ATOM      4  C   UNL     1       4.152  -7.947   2.002  0.00  0.00    +0.321 C 
ATOM      5  O   UNL     1       4.432  -6.976   1.339  0.00  0.00    -0.250 OA
BRANCH   4   6
ATOM      6  O   UNL     1       4.861  -9.079   1.867  0.00  0.00    -0.464 OA
BRANCH   6   8
ATOM      7  C   UNL     1       6.636 -10.431   0.892  0.00  0.00    +0.048 C 
ATOM      8  C   UNL     1       5.949  -9.064   0.906  0.00  0.00    +0.229 C 
ENDBRANCH   6   8
ENDBRANCH   4   6
ENDBRANCH   3   4
BRANCH   3   9
ATOM      9  C   UNL     1       3.521  -8.163   4.371  0.00  0.00    +0.321 C 
ATOM     10  O   UNL     1       3.392  -7.333   5.239  0.00  0.00    -0.250 OA
BRANCH   9  11
ATOM     11  O   UNL     1       4.120  -9.332   4.644  0.00  0.00    -0.464 OA
BRANCH  11  12
ATOM     12  C   UNL     1       4.589  -9.530   6.004  0.00  0.00    +0.229 C 
ATOM     13  C   UNL     1       5.240 -10.910   6.124  0.00  0.00    +0.048 C 
ENDBRANCH  11  12
ENDBRANCH   9  11
ENDBRANCH   3   9
ENDBRANCH   2   3
ENDBRANCH   1   2
BRANCH   1  14
ATOM     14  C   UNL     1       1.108  -4.872   1.522  0.00  0.00    +0.041 C 
BRANCH  14  15
ATOM     15  C   UNL     1       0.478  -4.640   0.147  0.00  0.00    +0.229 C 
BRANCH  15  16
ATOM     16  O   UNL     1      -0.115  -3.341   0.108  0.00  0.00    -0.492 OA
BRANCH  16  17
ATOM     17  C   UNL     1      -0.723  -2.974  -1.051  0.00  0.00    +0.124 A 
ATOM     18  C   UNL     1      -0.753  -3.850  -2.127  0.00  0.00    +0.047 A 
ATOM     19  C   UNL     1      -1.365  -3.474  -3.306  0.00  0.00    +0.023 A 
ATOM     20  C   UNL     1      -1.954  -2.226  -3.413  0.00  0.00    +0.041 A 
ATOM     21  C   UNL     1      -1.931  -1.353  -2.340  0.00  0.00    +0.027 A 
ATOM     22  C   UNL     1      -1.318  -1.726  -1.159  0.00  0.00    -0.001 A 
ATOM     23 CL   UNL     1      -2.724  -1.755  -4.896  0.00  0.00    -0.084 Cl
BRANCH  22  24
ATOM     24  C   UNL     1      -1.293  -0.775   0.010  0.00  0.00    +0.065 C 
BRANCH  24  25
ATOM     25  C   UNL     1       0.002  -0.004   0.002  0.00  0.00    -0.030 C 
ATOM     26  C   UNL     1      -0.016   1.306   0.009  0.00  0.00    +0.004 C 
ENDBRANCH  24  25
ENDBRANCH  22  24
ENDBRANCH  16  17
ENDBRANCH  15  16
ENDBRANCH  14  15
ENDBRANCH   1  14
TORSDOF 14
