REMARK  Name = ZINC66062492
REMARK  11 active torsions:
REMARK  status: ('A' for Active; 'I' for Inactive)
REMARK    1  A    between atoms: C_2  and  C_3
REMARK    2  A    between atoms: C_3  and  O_4
REMARK    3  A    between atoms: O_4  and  C_5
REMARK    4  A    between atoms: C_10  and  N_11
REMARK    5  A    between atoms: N_11  and  C_12
REMARK    6  A    between atoms: C_12  and  C_13
REMARK    7  A    between atoms: N_15  and  C_16
REMARK    8  A    between atoms: C_20  and  N_22
REMARK    9  A    between atoms: C_23  and  C_25
REMARK   10  A    between atoms: C_25  and  C_26
REMARK   11  A    between atoms: C_26  and  C_27
REMARK                            x       y       z     vdW  Elec       q    Type
REMARK                         _______ _______ _______ _____ _____    ______ ____
ROOT
ATOM      1  C   UNL     1       1.622  -6.032  -5.999  0.00  0.00    +0.035 A 
ATOM      2  C   UNL     1       2.606  -5.135  -5.603  0.00  0.00    +0.023 A 
ATOM      3  C   UNL     1       3.859  -5.183  -6.181  0.00  0.00    +0.004 A 
ATOM      4  C   UNL     1       4.139  -6.122  -7.155  0.00  0.00    +0.023 A 
ATOM      5  C   UNL     1       3.160  -7.022  -7.556  0.00  0.00    +0.035 A 
ATOM      6  C   UNL     1       1.901  -6.980  -6.973  0.00  0.00    +0.046 A 
ENDROOT
BRANCH   1   9
ATOM      7  C   UNL     1      -0.335  -7.123  -5.199  0.00  0.00    +0.234 C 
ATOM      8  O   UNL     1       0.109  -8.182  -5.589  0.00  0.00    -0.274 OA
ATOM      9  N   UNL     1       0.352  -5.984  -5.413  0.00  0.00    -0.284 N 
ATOM     10  H   UNL     1      -0.033  -5.130  -5.161  0.00  0.00    +0.155 HD
BRANCH   7  11
ATOM     11  C   UNL     1      -1.655  -7.082  -4.473  0.00  0.00    +0.198 C 
BRANCH  11  12
ATOM     12  N   UNL     1      -2.198  -8.439  -4.369  0.00  0.00    -0.333 N 
ATOM     13  H   UNL     1      -1.707  -9.188  -4.741  0.00  0.00    +0.147 HD
BRANCH  12  19
ATOM     14  C   UNL     1      -3.942  -9.944  -3.630  0.00  0.00    +0.142 A 
ATOM     15  C   UNL     1      -5.154 -10.153  -2.992  0.00  0.00    +0.047 A 
ATOM     16  C   UNL     1      -5.850  -9.082  -2.462  0.00  0.00    +0.004 A 
ATOM     17  C   UNL     1      -5.340  -7.801  -2.567  0.00  0.00    +0.002 A 
ATOM     18  C   UNL     1      -4.131  -7.584  -3.201  0.00  0.00    +0.026 A 
ATOM     19  C   UNL     1      -3.425  -8.655  -3.731  0.00  0.00    +0.070 A 
BRANCH  14  20
ATOM     20  O   UNL     1      -3.257 -10.997  -4.151  0.00  0.00    -0.486 OA
BRANCH  20  21
ATOM     21  C   UNL     1      -3.848 -12.290  -4.011  0.00  0.00    +0.256 C 
BRANCH  21  23
ATOM     22  C   UNL     1      -2.703 -14.446  -4.018  0.00  0.00    +0.007 C 
ATOM     23  C   UNL     1      -2.953 -13.323  -4.644  0.00  0.00    +0.006 C 
ENDBRANCH  21  23
ENDBRANCH  20  21
ENDBRANCH  14  20
ENDBRANCH  12  19
ENDBRANCH  11  12
ENDBRANCH   7  11
ENDBRANCH   1   9
BRANCH   5  24
ATOM     24  N   UNL     1       3.444  -7.972  -8.543  0.00  0.00    -0.285 N 
ATOM     25  C   UNL     1       4.672  -8.521  -8.616  0.00  0.00    +0.218 C 
ATOM     26  O   UNL     1       5.555  -8.132  -7.881  0.00  0.00    -0.275 OA
ATOM     27  H   UNL     1       2.756  -8.236  -9.174  0.00  0.00    +0.155 HD
BRANCH  25  28
ATOM     28  C   UNL     1       4.949  -9.620  -9.610  0.00  0.00    +0.101 C 
BRANCH  28  29
ATOM     29  C   UNL     1       6.408 -10.063  -9.487  0.00  0.00    +0.044 C 
BRANCH  29  30
ATOM     30  C   UNL     1       6.685 -11.161 -10.482  0.00  0.00    -0.047 A 
ATOM     31  C   UNL     1       6.489 -12.482 -10.124  0.00  0.00    +0.003 A 
ATOM     32  C   UNL     1       6.743 -13.489 -11.037  0.00  0.00    +0.000 A 
ATOM     33  C   UNL     1       7.192 -13.176 -12.306  0.00  0.00    +0.000 A 
ATOM     34  C   UNL     1       7.386 -11.855 -12.663  0.00  0.00    +0.000 A 
ATOM     35  C   UNL     1       7.129 -10.847 -11.752  0.00  0.00    +0.003 A 
ENDBRANCH  29  30
ENDBRANCH  28  29
ENDBRANCH  25  28
ENDBRANCH   5  24
TORSDOF 11
