REMARK  Name = ZINC09324689
REMARK  4 active torsions:
REMARK  status: ('A' for Active; 'I' for Inactive)
REMARK    1  A    between atoms: C_6  and  N_7
REMARK    2  A    between atoms: C_14  and  S_16
REMARK    3  A    between atoms: S_16  and  C_17
REMARK    4  A    between atoms: C_17  and  C_18
REMARK                            x       y       z     vdW  Elec       q    Type
REMARK                         _______ _______ _______ _____ _____    ______ ____
ROOT
ATOM      1  N   UNL     1       3.084  -1.050  -7.886  0.00  0.00    -0.269 N 
ATOM      2  C   UNL     1       2.685  -0.772  -6.629  0.00  0.00    +0.310 C 
ATOM      3  O   UNL     1       3.319  -1.196  -5.682  0.00  0.00    -0.252 OA
ATOM      4  N   UNL     1       1.583  -0.025  -6.422  0.00  0.00    -0.247 N 
ATOM      5  C   UNL     1       1.170   0.263  -5.123  0.00  0.00    +0.190 A 
ATOM      6  N   UNL     1       1.711  -0.098  -3.976  0.00  0.00    -0.125 NA
ATOM      7  N   UNL     1       1.135   0.300  -2.792  0.00  0.00    -0.133 NA
ATOM      8  C   UNL     1       0.042   1.040  -2.810  0.00  0.00    +0.160 A 
ATOM      9  S   UNL     1      -0.237   1.210  -4.566  0.00  0.00    -0.024 S 
ATOM     10  H   UNL     1       2.542  -0.769  -8.640  0.00  0.00    +0.156 HD
ATOM     11  H   UNL     1       1.077   0.314  -7.177  0.00  0.00    +0.158 HD
ENDROOT
BRANCH   1  17
ATOM     12  C   UNL     1       5.066  -1.445  -9.209  0.00  0.00    +0.025 A 
ATOM     13  C   UNL     1       6.249  -2.127  -9.419  0.00  0.00    +0.023 A 
ATOM     14  C   UNL     1       6.646  -3.115  -8.535  0.00  0.00    +0.059 A 
ATOM     15  C   UNL     1       5.862  -3.418  -7.434  0.00  0.00    +0.061 A 
ATOM     16  C   UNL     1       4.681  -2.735  -7.217  0.00  0.00    +0.044 A 
ATOM     17  C   UNL     1       4.280  -1.743  -8.103  0.00  0.00    +0.036 A 
ATOM     18 CL   UNL     1       6.363  -4.657  -6.327  0.00  0.00    -0.082 Cl
ATOM     19 CL   UNL     1       8.130  -3.975  -8.806  0.00  0.00    -0.082 Cl
ENDBRANCH   1  17
BRANCH   8  20
ATOM     20  S   UNL     1      -0.894   1.683  -1.462  0.00  0.00    -0.088 S 
BRANCH  20  21
ATOM     21  C   UNL     1      -0.009   1.092   0.008  0.00  0.00    +0.172 C 
BRANCH  21  22
ATOM     22  C   UNL     1      -0.715   1.578   1.247  0.00  0.00    +0.229 C 
ATOM     23  O   UNL     1      -1.716   2.255   1.149  0.00  0.00    -0.275 OA
ATOM     24  N   UNL     1      -0.234   1.259   2.465  0.00  0.00    -0.264 N 
ATOM     25  C   UNL     1      -0.885   1.707   3.609  0.00  0.00    +0.164 A 
ATOM     26  N   UNL     1      -1.970   2.450   3.707  0.00  0.00    -0.233 NA
ATOM     27  C   UNL     1      -2.465   2.785   4.883  0.00  0.00    +0.120 A 
ATOM     28  C   UNL     1      -1.824   2.357   5.998  0.00  0.00    +0.068 A 
ATOM     29  S   UNL     1      -0.474   1.438   5.274  0.00  0.00    -0.061 S 
ATOM     30  H   UNL     1       0.567   0.717   2.544  0.00  0.00    +0.157 HD
ENDBRANCH  21  22
ENDBRANCH  20  21
ENDBRANCH   8  20
TORSDOF 4
