REMARK  Name = ZINC63140076
REMARK  10 active torsions:
REMARK  status: ('A' for Active; 'I' for Inactive)
REMARK    1  A    between atoms: C_1  and  O_2
REMARK    2  A    between atoms: O_2  and  C_3
REMARK    3  A    between atoms: C_6  and  C_11
REMARK    4  A    between atoms: C_8  and  O_9
REMARK    5  A    between atoms: O_9  and  C_10
REMARK    6  A    between atoms: C_11  and  C_12
REMARK    7  A    between atoms: C_12  and  N_13
REMARK    8  A    between atoms: C_33  and  C_35
REMARK    9  A    between atoms: C_35  and  C_36
REMARK   10  A    between atoms: C_36  and  C_37
REMARK                            x       y       z     vdW  Elec       q    Type
REMARK                         _______ _______ _______ _____ _____    ______ ____
ROOT
ATOM      1  N   UNL     1       4.640  -3.366  -5.213  0.00  0.00    -0.291 N 
ATOM      2  C   UNL     1       4.667  -4.818  -5.257  0.00  0.00    +0.203 C 
ATOM      3  C   UNL     1       5.373  -5.334  -6.467  0.00  0.00    +0.234 C 
ATOM      4  O   UNL     1       5.454  -6.536  -6.602  0.00  0.00    -0.274 OA
ATOM      5  N   UNL     1       5.922  -4.564  -7.414  0.00  0.00    -0.283 N 
ATOM      6  C   UNL     1       5.872  -3.106  -7.371  0.00  0.00    +0.167 C 
ATOM      7  C   UNL     1       5.172  -2.591  -6.157  0.00  0.00    +0.237 C 
ATOM      8  O   UNL     1       5.085  -1.389  -6.020  0.00  0.00    -0.274 OA
ATOM      9  C   UNL     1       5.176  -2.567  -8.634  0.00  0.00    +0.065 C 
ATOM     10  C   UNL     1       5.774  -3.309  -9.804  0.00  0.00    -0.034 C 
ATOM     11  C   UNL     1       6.302  -2.878 -10.942  0.00  0.00    -0.001 A 
ATOM     12  C   UNL     1       6.399  -1.532 -11.530  0.00  0.00    +0.010 A 
ATOM     13  C   UNL     1       7.037  -1.445 -12.727  0.00  0.00    +0.001 A 
ATOM     14  C   UNL     1       7.583  -2.549 -13.390  0.00  0.00    +0.002 A 
ATOM     15  C   UNL     1       7.531  -3.823 -12.927  0.00  0.00    +0.026 A 
ATOM     16  C   UNL     1       6.877  -4.043 -11.680  0.00  0.00    +0.043 A 
ATOM     17  N   UNL     1       6.665  -5.146 -11.025  0.00  0.00    -0.376 N 
ATOM     18  C   UNL     1       5.882  -4.829  -9.830  0.00  0.00    +0.127 C 
ATOM     19  C   UNL     1       6.604  -5.237  -8.542  0.00  0.00    +0.104 C 
ATOM     20  H   UNL     1       6.973  -6.029 -11.284  0.00  0.00    +0.160 HD
ENDROOT
BRANCH   1  21
ATOM     21  C   UNL     1       3.989  -2.719  -4.072  0.00  0.00    +0.113 C 
BRANCH  21  22
ATOM     22  C   UNL     1       2.507  -2.501  -4.386  0.00  0.00    +0.054 C 
BRANCH  22  26
ATOM     23  C   UNL     1       0.606  -0.608  -1.056  0.00  0.00    +0.161 A 
ATOM     24  C   UNL     1       1.173   0.159  -2.062  0.00  0.00    +0.049 A 
ATOM     25  C   UNL     1       1.787  -0.456  -3.137  0.00  0.00    +0.007 A 
ATOM     26  C   UNL     1       1.837  -1.836  -3.212  0.00  0.00    -0.042 A 
ATOM     27  C   UNL     1       1.273  -2.606  -2.212  0.00  0.00    +0.053 A 
ATOM     28  C   UNL     1       0.662  -1.996  -1.129  0.00  0.00    +0.162 A 
BRANCH  23  30
ATOM     29  C   UNL     1      -0.017   1.425   0.010  0.00  0.00    +0.277 C 
ATOM     30  O   UNL     1       0.002  -0.004   0.002  0.00  0.00    -0.491 OA
ENDBRANCH  23  30
BRANCH  28  31
ATOM     31  O   UNL     1       0.112  -2.753  -0.142  0.00  0.00    -0.491 OA
ATOM     32  C   UNL     1       0.206  -4.171  -0.283  0.00  0.00    +0.277 C 
ENDBRANCH  28  31
ENDBRANCH  22  26
ENDBRANCH  21  22
ENDBRANCH   1  21
BRANCH  19  33
ATOM     33  C   UNL     1       8.067  -4.793  -8.604  0.00  0.00    +0.029 C 
BRANCH  33  34
ATOM     34  C   UNL     1       8.799  -5.273  -7.350  0.00  0.00    +0.037 C 
BRANCH  34  35
ATOM     35  C   UNL     1      10.240  -4.835  -7.410  0.00  0.00    -0.047 A 
ATOM     36  C   UNL     1      11.186  -5.652  -8.001  0.00  0.00    +0.003 A 
ATOM     37  C   UNL     1      12.507  -5.251  -8.057  0.00  0.00    +0.000 A 
ATOM     38  C   UNL     1      12.883  -4.032  -7.522  0.00  0.00    +0.000 A 
ATOM     39  C   UNL     1      11.937  -3.215  -6.933  0.00  0.00    +0.000 A 
ATOM     40  C   UNL     1      10.614  -3.615  -6.881  0.00  0.00    +0.003 A 
ENDBRANCH  34  35
ENDBRANCH  33  34
ENDBRANCH  19  33
TORSDOF 8
