REMARK  Name = ZINC40057792
REMARK  8 active torsions:
REMARK  status: ('A' for Active; 'I' for Inactive)
REMARK    1  A    between atoms: C_1  and  C_2
REMARK    2  A    between atoms: C_2  and  O_3
REMARK    3  A    between atoms: O_3  and  C_4
REMARK    4  A    between atoms: C_7  and  C_10
REMARK    5  A    between atoms: C_16  and  C_34
REMARK    6  A    between atoms: C_18  and  C_33
REMARK    7  A    between atoms: C_28  and  C_32
REMARK    8  A    between atoms: C_29  and  C_31
REMARK                            x       y       z     vdW  Elec       q    Type
REMARK                         _______ _______ _______ _____ _____    ______ ____
ROOT
ATOM      1  C   UNL     1      -2.001  -6.092  -0.011  0.00  0.00    +0.151 C 
ATOM      2  C   UNL     1      -2.335  -6.566  -1.387  0.00  0.00    +0.072 A 
ATOM      3  C   UNL     1      -1.594  -6.469  -2.649  0.00  0.00    +0.199 A 
ATOM      4  O   UNL     1      -0.435  -6.099  -2.715  0.00  0.00    -0.287 OA
ATOM      5  C   UNL     1      -2.390  -6.866  -3.838  0.00  0.00    +0.067 A 
ATOM      6  C   UNL     1      -1.899  -6.643  -5.124  0.00  0.00    -0.036 A 
ATOM      7  C   UNL     1      -2.646  -7.010  -6.208  0.00  0.00    +0.007 A 
ATOM      8  C   UNL     1      -3.889  -7.601  -6.032  0.00  0.00    -0.047 A 
ATOM      9  C   UNL     1      -4.389  -7.830  -4.770  0.00  0.00    +0.050 A 
ATOM     10  C   UNL     1      -3.645  -7.468  -3.647  0.00  0.00    +0.140 A 
ATOM     11  O   UNL     1      -4.151  -7.711  -2.417  0.00  0.00    -0.450 OA
ATOM     12  C   UNL     1      -3.561  -7.168  -1.334  0.00  0.00    +0.199 A 
ATOM     13  C   UNL     1      -4.050  -7.097   0.052  0.00  0.00    +0.289 C 
ATOM     14  O   UNL     1      -5.115  -7.539   0.438  0.00  0.00    -0.266 OA
ATOM     15  N   UNL     1      -3.144  -6.472   0.834  0.00  0.00    -0.232 N 
ATOM     16  C   UNL     1      -3.269  -6.229   2.195  0.00  0.00    +0.169 A 
ATOM     17  N   UNL     1      -2.422  -5.621   2.998  0.00  0.00    -0.229 NA
ATOM     18  C   UNL     1      -2.689  -5.467   4.281  0.00  0.00    +0.050 A 
ATOM     19  C   UNL     1      -3.870  -5.962   4.729  0.00  0.00    +0.011 A 
ATOM     20  S   UNL     1      -4.543  -6.634   3.218  0.00  0.00    -0.057 S 
ATOM     21  C   UNL     1      -4.455  -5.944   6.117  0.00  0.00    +0.053 C 
ATOM     22  C   UNL     1      -1.724  -4.773   5.208  0.00  0.00    +0.066 C 
ATOM     23  C   UNL     1      -4.702  -7.997  -7.238  0.00  0.00    +0.044 C 
ATOM     24  C   UNL     1      -0.549  -6.000  -5.317  0.00  0.00    +0.044 C 
ENDROOT
BRANCH   1  28
ATOM     25  C   UNL     1      -1.498  -1.848   0.006  0.00  0.00    +0.121 A 
ATOM     26  C   UNL     1      -0.388  -2.679  -0.003  0.00  0.00    +0.046 A 
ATOM     27  C   UNL     1      -0.553  -4.051  -0.008  0.00  0.00    +0.009 A 
ATOM     28  C   UNL     1      -1.823  -4.596  -0.005  0.00  0.00    -0.022 A 
ATOM     29  C   UNL     1      -2.932  -3.769   0.004  0.00  0.00    +0.009 A 
ATOM     30  C   UNL     1      -2.772  -2.397   0.016  0.00  0.00    +0.046 A 
BRANCH  25  31
ATOM     31  O   UNL     1      -1.339  -0.499   0.012  0.00  0.00    -0.492 OA
BRANCH  31  33
ATOM     32  C   UNL     1      -0.019   1.526   0.010  0.00  0.00    +0.048 C 
ATOM     33  C   UNL     1       0.002  -0.004   0.002  0.00  0.00    +0.225 C 
ENDBRANCH  31  33
ENDBRANCH  25  31
ENDBRANCH   1  28
TORSDOF 3
