REMARK  Name = ZINC35551545
REMARK  8 active torsions:
REMARK  status: ('A' for Active; 'I' for Inactive)
REMARK    1  A    between atoms: C_1  and  C_2
REMARK    2  A    between atoms: C_5  and  C_8
REMARK    3  A    between atoms: C_10  and  C_33
REMARK    4  A    between atoms: C_11  and  C_30
REMARK    5  A    between atoms: C_12  and  N_14
REMARK    6  A    between atoms: N_22  and  C_23
REMARK    7  A    between atoms: C_30  and  C_31
REMARK    8  A    between atoms: C_30  and  C_32
REMARK                            x       y       z     vdW  Elec       q    Type
REMARK                         _______ _______ _______ _____ _____    ______ ____
ROOT
ATOM      1  C   UNL     1      -0.042  -5.385   1.159  0.00  0.00    +0.140 A 
ATOM      2  N   UNL     1       0.917  -6.030   1.808  0.00  0.00    -0.343 N 
ATOM      3  C   UNL     1       1.448  -7.138   1.315  0.00  0.00    +0.021 A 
ATOM      4  C   UNL     1       0.991  -7.625   0.105  0.00  0.00    +0.014 A 
ATOM      5  C   UNL     1      -0.021  -6.925  -0.557  0.00  0.00    +0.129 A 
ATOM      6  N   UNL     1      -0.511  -5.823  -0.001  0.00  0.00    -0.214 NA
ATOM      7  C   UNL     1       2.538  -7.860   2.064  0.00  0.00    +0.064 C 
ATOM      8  H   UNL     1       1.236  -5.685   2.657  0.00  0.00    +0.167 HD
ENDROOT
BRANCH   5   9
ATOM      9  N   UNL     1      -0.509  -7.377  -1.772  0.00  0.00    -0.312 N 
ATOM     10  C   UNL     1      -1.722  -8.205  -1.830  0.00  0.00    +0.125 C 
ATOM     11  C   UNL     1      -2.729  -7.534  -2.772  0.00  0.00    +0.128 C 
ATOM     12  N   UNL     1      -2.044  -7.192  -4.027  0.00  0.00    -0.282 N 
ATOM     13  C   UNL     1      -0.832  -6.364  -3.969  0.00  0.00    +0.128 C 
ATOM     14  C   UNL     1       0.173  -7.031  -3.027  0.00  0.00    +0.125 C 
ATOM     15  C   UNL     1      -2.519  -7.632  -5.209  0.00  0.00    +0.307 C 
ATOM     16  O   UNL     1      -3.464  -8.396  -5.238  0.00  0.00    -0.252 OA
ATOM     17  N   UNL     1      -1.947  -7.223  -6.359  0.00  0.00    -0.269 N 
ATOM     18  H   UNL     1      -1.139  -6.687  -6.335  0.00  0.00    +0.156 HD
BRANCH  17  19
ATOM     19  C   UNL     1      -2.519  -7.572  -7.588  0.00  0.00    +0.035 A 
ATOM     20  C   UNL     1      -3.898  -7.681  -7.707  0.00  0.00    +0.024 A 
ATOM     21  C   UNL     1      -4.460  -8.025  -8.921  0.00  0.00    +0.017 A 
ATOM     22  C   UNL     1      -3.650  -8.262 -10.017  0.00  0.00    +0.018 A 
ATOM     23  C   UNL     1      -2.275  -8.155  -9.901  0.00  0.00    +0.017 A 
ATOM     24  C   UNL     1      -1.708  -7.805  -8.691  0.00  0.00    +0.024 A 
ATOM     25 BR   UNL     1      -4.422  -8.735 -11.678  0.00  0.00    -0.050 Br
ENDBRANCH  17  19
ENDBRANCH   5   9
BRANCH   1  30
ATOM     26  C   UNL     1      -2.242  -0.580   3.446  0.00  0.00    +0.044 C 
ATOM     27  C   UNL     1      -1.666  -1.837   2.847  0.00  0.00    -0.050 A 
ATOM     28  C   UNL     1      -2.145  -2.306   1.637  0.00  0.00    +0.004 A 
ATOM     29  C   UNL     1      -1.621  -3.457   1.084  0.00  0.00    +0.012 A 
ATOM     30  C   UNL     1      -0.608  -4.147   1.748  0.00  0.00    +0.017 A 
ATOM     31  C   UNL     1      -0.130  -3.670   2.967  0.00  0.00    +0.012 A 
ATOM     32  C   UNL     1      -0.657  -2.515   3.507  0.00  0.00    +0.004 A 
ENDBRANCH   1  30
BRANCH   4  33
ATOM     33  C   UNL     1       1.571  -8.884  -0.488  0.00  0.00    +0.018 C 
ATOM     34  C   UNL     1       0.444  -9.742  -1.066  0.00  0.00    +0.012 C 
ATOM     35  C   UNL     1       2.555  -8.517  -1.600  0.00  0.00    +0.012 C 
ENDBRANCH   4  33
TORSDOF 4
