REMARK  Name = ZINC61720269
REMARK  4 active torsions:
REMARK  status: ('A' for Active; 'I' for Inactive)
REMARK    1  A    between atoms: C_11  and  C_13
REMARK    2  A    between atoms: C_16  and  O_19
REMARK    3  A    between atoms: O_19  and  C_20
REMARK    4  A    between atoms: C_21  and  C_26
REMARK                            x       y       z     vdW  Elec       q    Type
REMARK                         _______ _______ _______ _____ _____    ______ ____
ROOT
ATOM      1  C   UNL     1       0.119   1.430  -0.062  0.00  0.00    +0.000 A 
ATOM      2  C   UNL     1       1.324   2.107  -0.118  0.00  0.00    +0.002 A 
ATOM      3  C   UNL     1       2.513   1.410  -0.152  0.00  0.00    +0.023 A 
ATOM      4  C   UNL     1       2.511   0.018  -0.129  0.00  0.00    +0.038 A 
ATOM      5  C   UNL     1       1.292  -0.653  -0.073  0.00  0.00    -0.013 A 
ATOM      6  C   UNL     1       0.107   0.047  -0.039  0.00  0.00    +0.006 A 
ATOM      7  C   UNL     1       1.630  -2.117  -0.065  0.00  0.00    +0.064 C 
ATOM      8  C   UNL     1       1.091  -2.809   1.197  0.00  0.00    +0.000 C 
ATOM      9  C   UNL     1       0.649  -4.197   0.663  0.00  0.00    -0.080 C 
ATOM     10  N   UNL     1       0.107  -3.889  -0.686  0.00  0.00    +0.385 N 
ATOM     11  C   UNL     1       0.998  -2.849  -1.252  0.00  0.00    -0.021 C 
ATOM     12  C   UNL     1       3.132  -2.173  -0.118  0.00  0.00    +0.226 C 
ATOM     13  O   UNL     1       3.820  -3.172  -0.127  0.00  0.00    -0.275 OA
ATOM     14  N   UNL     1       3.565  -0.898  -0.153  0.00  0.00    -0.285 N 
ATOM     15  H   UNL     1       0.126  -4.715  -1.265  0.00  0.00    -0.085 HD
ATOM     16  H   UNL     1       4.501  -0.645  -0.191  0.00  0.00    +0.155 HD
ATOM     17  H   UNL     1      -0.835  -3.536  -0.611  0.00  0.00    -0.085 HD
ENDROOT
BRANCH  11  18
ATOM     18  C   UNL     1       0.197  -1.882  -2.086  0.00  0.00    -0.060 A 
ATOM     19  C   UNL     1       0.793  -1.228  -3.149  0.00  0.00    +0.005 A 
ATOM     20  C   UNL     1       0.061  -0.342  -3.914  0.00  0.00    +0.046 A 
ATOM     21  C   UNL     1      -1.274  -0.108  -3.617  0.00  0.00    +0.130 A 
ATOM     22  C   UNL     1      -1.870  -0.766  -2.551  0.00  0.00    +0.046 A 
ATOM     23  C   UNL     1      -1.135  -1.655  -1.792  0.00  0.00    +0.005 A 
BRANCH  21  24
ATOM     24  O   UNL     1      -1.996   0.764  -4.369  0.00  0.00    -0.437 OA
BRANCH  24  25
ATOM     25  C   UNL     1      -2.417   0.355  -5.590  0.00  0.00    +0.238 A 
ATOM     26  C   UNL     1      -3.067   1.260  -6.443  0.00  0.00    +0.114 A 
ATOM     27  C   UNL     1      -3.493   0.814  -7.700  0.00  0.00    +0.026 A 
ATOM     28  C   UNL     1      -3.253  -0.504  -8.046  0.00  0.00    +0.021 A 
ATOM     29  C   UNL     1      -2.606  -1.336  -7.150  0.00  0.00    +0.115 A 
ATOM     30  N   UNL     1      -2.208  -0.893  -5.972  0.00  0.00    -0.220 NA
BRANCH  26  31
ATOM     31  C   UNL     1      -3.291   2.614  -6.036  0.00  0.00    +0.105 C 
ATOM     32  N   UNL     1      -3.468   3.688  -5.712  0.00  0.00    -0.191 NA
ENDBRANCH  26  31
ENDBRANCH  24  25
ENDBRANCH  21  24
ENDBRANCH  11  18
TORSDOF 4
