REMARK  Name = ZINC02203751
REMARK  2 active torsions:
REMARK  status: ('A' for Active; 'I' for Inactive)
REMARK    1  A    between atoms: C_3  and  N_21
REMARK    2  A    between atoms: C_6  and  N_7
REMARK                            x       y       z     vdW  Elec       q    Type
REMARK                         _______ _______ _______ _____ _____    ______ ____
ROOT
ATOM      1  N   UNL     1      -1.137  -2.142   0.001  0.00  0.00    -0.212 N 
ATOM      2  C   UNL     1      -1.187  -0.882  -0.486  0.00  0.00    +0.272 A 
ATOM      3  O   UNL     1      -2.224  -0.417  -0.919  0.00  0.00    -0.266 OA
ATOM      4  C   UNL     1       0.056  -0.088  -0.474  0.00  0.00    +0.084 A 
ATOM      5  C   UNL     1       0.093   1.218  -0.956  0.00  0.00    +0.032 A 
ATOM      6  C   UNL     1       1.280   1.922  -0.924  0.00  0.00    +0.020 A 
ATOM      7  C   UNL     1       2.428   1.334  -0.415  0.00  0.00    +0.034 A 
ATOM      8  C   UNL     1       2.403   0.039   0.065  0.00  0.00    +0.062 A 
ATOM      9  C   UNL     1       1.219  -0.682   0.040  0.00  0.00    +0.160 A 
ATOM     10  O   UNL     1       1.158  -1.954   0.502  0.00  0.00    -0.407 OA
ATOM     11  C   UNL     1       0.012  -2.648   0.477  0.00  0.00    +0.428 A 
ATOM     12  O   UNL     1       0.013  -3.786   0.905  0.00  0.00    -0.222 OA
ATOM     13 BR   UNL     1       3.978  -0.749   0.753  0.00  0.00    -0.046 Br
ATOM     14 BR   UNL     1       1.341   3.696  -1.577  0.00  0.00    -0.050 Br
ENDROOT
BRANCH   1  20
ATOM     15  C   UNL     1      -2.601  -3.729  -1.086  0.00  0.00    +0.029 A 
ATOM     16  C   UNL     1      -3.742  -4.508  -1.074  0.00  0.00    +0.035 A 
ATOM     17  C   UNL     1      -4.587  -4.482   0.021  0.00  0.00    +0.126 A 
ATOM     18  C   UNL     1      -4.289  -3.682   1.108  0.00  0.00    +0.035 A 
ATOM     19  C   UNL     1      -3.147  -2.906   1.105  0.00  0.00    +0.029 A 
ATOM     20  C   UNL     1      -2.297  -2.929   0.007  0.00  0.00    +0.056 A 
BRANCH  17  21
ATOM     21  N   UNL     1      -5.812  -5.312   0.027  0.00  0.00    +0.056 N 
ATOM     22  O   UNL     1      -6.557  -5.291   0.991  0.00  0.00    -0.126 OA
ATOM     23  O   UNL     1      -6.075  -6.018  -0.930  0.00  0.00    -0.126 OA
ENDBRANCH  17  21
ENDBRANCH   1  20
TORSDOF 2
