REMARK  Name = ZINC63384970
REMARK  3 active torsions:
REMARK  status: ('A' for Active; 'I' for Inactive)
REMARK    1  A    between atoms: C_1  and  C_2
REMARK    2  A    between atoms: C_2  and  C_3
REMARK    3  A    between atoms: C_2  and  C_4
REMARK                            x       y       z     vdW  Elec       q    Type
REMARK                         _______ _______ _______ _____ _____    ______ ____
ROOT
ATOM      1  C   UNL     1       0.597  -0.491  -1.294  0.00  0.00    +0.219 C 
ATOM      2  O   UNL     1      -0.078  -1.141  -2.064  0.00  0.00    -0.275 OA
ATOM      3  N   UNL     1       1.888  -0.232  -1.583  0.00  0.00    -0.281 N 
ATOM      4  C   UNL     1       2.737   0.423  -0.582  0.00  0.00    +0.113 C 
ATOM      5  C   UNL     1       3.334   1.711  -1.179  0.00  0.00    +0.052 C 
ATOM      6  C   UNL     1       3.843   1.359  -2.554  0.00  0.00    -0.034 C 
ATOM      7  C   UNL     1       5.022   1.551  -3.131  0.00  0.00    -0.001 A 
ATOM      8  C   UNL     1       6.223   2.277  -2.688  0.00  0.00    +0.010 A 
ATOM      9  C   UNL     1       7.285   2.255  -3.537  0.00  0.00    +0.001 A 
ATOM     10  C   UNL     1       7.272   1.590  -4.767  0.00  0.00    +0.002 A 
ATOM     11  C   UNL     1       6.208   0.906  -5.258  0.00  0.00    +0.026 A 
ATOM     12  C   UNL     1       5.029   0.866  -4.460  0.00  0.00    +0.043 A 
ATOM     13  N   UNL     1       3.873   0.317  -4.693  0.00  0.00    -0.375 N 
ATOM     14  C   UNL     1       2.977   0.638  -3.582  0.00  0.00    +0.143 C 
ATOM     15  C   UNL     1       2.428  -0.612  -2.891  0.00  0.00    +0.165 C 
ATOM     16  C   UNL     1       1.390  -1.288  -3.727  0.00  0.00    +0.009 A 
ATOM     17  C   UNL     1       0.175  -0.850  -4.210  0.00  0.00    +0.023 A 
ATOM     18  C   UNL     1      -0.563  -1.749  -4.973  0.00  0.00    +0.018 A 
ATOM     19  C   UNL     1      -0.097  -3.023  -5.232  0.00  0.00    +0.017 A 
ATOM     20  C   UNL     1       1.123  -3.471  -4.750  0.00  0.00    +0.025 A 
ATOM     21  C   UNL     1       1.873  -2.578  -3.984  0.00  0.00    +0.039 A 
ATOM     22  N   UNL     1       3.110  -2.755  -3.387  0.00  0.00    -0.283 N 
ATOM     23  C   UNL     1       3.515  -1.651  -2.724  0.00  0.00    +0.248 C 
ATOM     24  O   UNL     1       4.553  -1.517  -2.112  0.00  0.00    -0.273 OA
ATOM     25 BR   UNL     1      -2.238  -1.216  -5.670  0.00  0.00    -0.050 Br
ATOM     26  H   UNL     1       3.624  -3.576  -3.438  0.00  0.00    +0.155 HD
ATOM     27  H   UNL     1       3.644  -0.215  -5.471  0.00  0.00    +0.160 HD
ENDROOT
BRANCH   1  29
ATOM     28  C   UNL     1      -0.415   1.489  -0.198  0.00  0.00    +0.017 C 
ATOM     29  C   UNL     1      -0.008   0.026  -0.014  0.00  0.00    +0.069 C 
ATOM     30  C   UNL     1      -1.241  -0.807   0.340  0.00  0.00    +0.017 C 
ENDBRANCH   1  29
TORSDOF 1
