REMARK  Name = ZINC23448423
REMARK  11 active torsions:
REMARK  status: ('A' for Active; 'I' for Inactive)
REMARK    1  A    between atoms: C_1  and  C_2
REMARK    2  A    between atoms: C_3  and  C_7
REMARK    3  A    between atoms: N_12  and  C_15
REMARK    4  A    between atoms: C_15  and  C_16
REMARK    5  A    between atoms: C_16  and  C_18
REMARK    6  A    between atoms: C_16  and  O_25
REMARK    7  A    between atoms: O_25  and  C_26
REMARK    8  A    between atoms: C_26  and  C_27
REMARK    9  A    between atoms: C_30  and  C_33
REMARK   10  A    between atoms: C_33  and  O_35
REMARK   11  A    between atoms: O_35  and  C_36
REMARK                            x       y       z     vdW  Elec       q    Type
REMARK                         _______ _______ _______ _____ _____    ______ ____
ROOT
ATOM      1  C   UNL     1       1.575  -7.006  -4.246  0.00  0.00    +0.132 C 
ENDROOT
BRANCH   1   2
ATOM      2  C   UNL     1       0.657  -7.929  -5.006  0.00  0.00    -0.021 A 
ATOM      3  C   UNL     1      -0.310  -7.405  -5.844  0.00  0.00    +0.007 A 
ATOM      4  C   UNL     1      -1.148  -8.251  -6.545  0.00  0.00    +0.020 A 
ATOM      5  C   UNL     1      -1.027  -9.622  -6.400  0.00  0.00    +0.041 A 
ATOM      6  C   UNL     1      -0.063 -10.145  -5.557  0.00  0.00    +0.020 A 
ATOM      7  C   UNL     1       0.779  -9.298  -4.860  0.00  0.00    +0.007 A 
ATOM      8 CL   UNL     1      -2.084 -10.685  -7.276  0.00  0.00    -0.084 Cl
ENDBRANCH   1   2
BRANCH   1   9
ATOM      9  C   UNL     1       2.697  -6.529  -5.170  0.00  0.00    -0.042 C 
BRANCH   9  15
ATOM     10  C   UNL     1       7.327  -4.343  -3.374  0.00  0.00    +0.256 C 
ATOM     11  O   UNL     1       7.881  -3.509  -4.064  0.00  0.00    -0.269 OA
ATOM     12  N   UNL     1       6.001  -4.551  -3.502  0.00  0.00    -0.301 N 
ATOM     13  C   UNL     1       5.304  -5.523  -2.647  0.00  0.00    +0.089 C 
ATOM     14  C   UNL     1       4.489  -6.462  -3.543  0.00  0.00    -0.059 C 
ATOM     15  N   UNL     1       3.618  -5.666  -4.418  0.00  0.00    +0.384 N 
ATOM     16  C   UNL     1       4.403  -4.818  -5.324  0.00  0.00    -0.059 C 
ATOM     17  C   UNL     1       5.214  -3.811  -4.500  0.00  0.00    +0.089 C 
ATOM     18  H   UNL     1       3.016  -5.004  -3.777  0.00  0.00    -0.082 HD
BRANCH  10  21
ATOM     19  C   UNL     1      10.160  -5.690  -3.795  0.00  0.00    +0.069 C 
ATOM     20  C   UNL     1       9.345  -5.735  -2.528  0.00  0.00    +0.081 A 
ATOM     21  C   UNL     1       8.103  -5.124  -2.398  0.00  0.00    +0.117 A 
ATOM     22  S   UNL     1       7.722  -5.550  -0.708  0.00  0.00    +0.041 S 
ATOM     23  N   UNL     1       9.026  -6.379  -0.373  0.00  0.00    -0.110 NA
ATOM     24  N   UNL     1       9.738  -6.355  -1.441  0.00  0.00    -0.146 NA
ENDBRANCH  10  21
ENDBRANCH   9  15
ENDBRANCH   1   9
BRANCH   1  25
ATOM     25  O   UNL     1       0.834  -5.879  -3.775  0.00  0.00    -0.369 OA
BRANCH  25  26
ATOM     26  C   UNL     1       0.262  -6.061  -2.478  0.00  0.00    +0.195 C 
BRANCH  26  27
ATOM     27  C   UNL     1      -0.493  -4.817  -2.083  0.00  0.00    -0.022 A 
ATOM     28  C   UNL     1      -1.833  -4.694  -2.405  0.00  0.00    +0.007 A 
ATOM     29  C   UNL     1      -2.529  -3.558  -2.046  0.00  0.00    +0.015 A 
ATOM     30  C   UNL     1      -1.879  -2.533  -1.358  0.00  0.00    +0.059 A 
ATOM     31  C   UNL     1      -0.527  -2.664  -1.036  0.00  0.00    +0.015 A 
ATOM     32  C   UNL     1       0.158  -3.805  -1.401  0.00  0.00    +0.007 A 
BRANCH  30  33
ATOM     33  C   UNL     1      -2.618  -1.313  -0.971  0.00  0.00    +0.339 C 
ATOM     34  O   UNL     1      -3.795  -1.202  -1.252  0.00  0.00    -0.245 OA
BRANCH  33  35
ATOM     35  O   UNL     1      -1.988  -0.326  -0.307  0.00  0.00    -0.464 OA
ATOM     36  C   UNL     1      -2.777   0.843   0.041  0.00  0.00    +0.280 C 
ENDBRANCH  33  35
ENDBRANCH  30  33
ENDBRANCH  26  27
ENDBRANCH  25  26
ENDBRANCH   1  25
TORSDOF 9
