REMARK  Name = ZINC07381925
REMARK  5 active torsions:
REMARK  status: ('A' for Active; 'I' for Inactive)
REMARK    1  A    between atoms: C_1  and  C_2
REMARK    2  A    between atoms: C_3  and  S_8
REMARK    3  A    between atoms: C_4  and  C_7
REMARK    4  A    between atoms: S_8  and  N_11
REMARK    5  A    between atoms: N_11  and  C_12
REMARK                            x       y       z     vdW  Elec       q    Type
REMARK                         _______ _______ _______ _____ _____    ______ ____
ROOT
ATOM      1  S   UNL     1      -2.502  -0.454   0.727  0.00  0.00    +0.077 S 
ATOM      2  O   UNL     1      -3.811  -0.952   0.487  0.00  0.00    -0.150 OA
ATOM      3  O   UNL     1      -1.334  -1.155   0.322  0.00  0.00    -0.150 OA
ENDROOT
BRANCH   1   6
ATOM      4  C   UNL     1      -4.883   0.061   3.107  0.00  0.00    +0.071 C 
ATOM      5  C   UNL     1      -3.407  -0.003   3.401  0.00  0.00    +0.107 A 
ATOM      6  C   UNL     1      -2.366  -0.213   2.467  0.00  0.00    +0.173 A 
ATOM      7  C   UNL     1      -1.241  -0.192   3.221  0.00  0.00    +0.161 A 
ATOM      8  O   UNL     1      -1.634   0.024   4.484  0.00  0.00    -0.358 OA
ATOM      9  N   UNL     1      -2.837   0.123   4.565  0.00  0.00    -0.081 NA
ATOM     10  C   UNL     1       0.174  -0.372   2.736  0.00  0.00    +0.091 C 
ENDBRANCH   1   6
BRANCH   1  11
ATOM     11  N   UNL     1      -2.426   1.041   0.019  0.00  0.00    -0.215 N 
ATOM     12  H   UNL     1      -3.174   1.367  -0.507  0.00  0.00    +0.174 HD
BRANCH  11  13
ATOM     13  C   UNL     1      -1.286   1.834   0.178  0.00  0.00    +0.066 A 
ATOM     14  C   UNL     1      -0.030   1.244   0.226  0.00  0.00    +0.027 A 
ATOM     15  C   UNL     1       1.096   2.030   0.378  0.00  0.00    +0.017 A 
ATOM     16  C   UNL     1       0.973   3.403   0.487  0.00  0.00    +0.019 A 
ATOM     17  C   UNL     1      -0.277   3.994   0.445  0.00  0.00    +0.037 A 
ATOM     18  C   UNL     1      -1.407   3.213   0.293  0.00  0.00    +0.064 A 
ATOM     19 CL   UNL     1      -2.976   3.955   0.240  0.00  0.00    -0.082 Cl
ATOM     20 BR   UNL     1       2.517   4.475   0.694  0.00  0.00    -0.050 Br
ENDBRANCH  11  13
ENDBRANCH   1  11
TORSDOF 3
