REMARK  Name = ZINC20069656
REMARK  10 active torsions:
REMARK  status: ('A' for Active; 'I' for Inactive)
REMARK    1  A    between atoms: C_1  and  C_2
REMARK    2  A    between atoms: C_5  and  S_8
REMARK    3  A    between atoms: S_8  and  N_11
REMARK    4  A    between atoms: N_11  and  C_12
REMARK    5  A    between atoms: C_12  and  C_33
REMARK    6  A    between atoms: C_16  and  C_20
REMARK    7  A    between atoms: C_16  and  C_21
REMARK    8  A    between atoms: N_22  and  C_25
REMARK    9  A    between atoms: C_28  and  C_32
REMARK   10  A    between atoms: C_29  and  C_31
REMARK                            x       y       z     vdW  Elec       q    Type
REMARK                         _______ _______ _______ _____ _____    ______ ____
ROOT
ATOM      1  C   UNL     1      -2.585  -4.516  -1.670  0.00  0.00    +0.240 C 
ATOM      2  C   UNL     1      -3.379  -5.630  -1.047  0.00  0.00    +0.052 C 
ATOM      3  C   UNL     1      -3.478  -6.613  -1.982  0.00  0.00    +0.028 C 
ATOM      4  C   UNL     1      -4.214  -7.906  -1.696  0.00  0.00    +0.058 C 
ATOM      5  C   UNL     1      -4.161  -8.161  -0.186  0.00  0.00    -0.023 C 
ATOM      6  C   UNL     1      -4.732  -6.963   0.575  0.00  0.00    +0.086 C 
ATOM      7  C   UNL     1      -3.942  -5.718   0.235  0.00  0.00    +0.164 C 
ATOM      8  O   UNL     1      -3.801  -4.824   1.045  0.00  0.00    -0.292 OA
ATOM      9  C   UNL     1      -2.709  -8.385   0.239  0.00  0.00    +0.011 C 
ATOM     10  C   UNL     1      -4.984  -9.409   0.143  0.00  0.00    +0.011 C 
ATOM     11  N   UNL     1      -2.847  -6.263  -3.134  0.00  0.00    -0.241 N 
ATOM     12  C   UNL     1      -2.281  -5.037  -3.064  0.00  0.00    +0.259 C 
ATOM     13  O   UNL     1      -1.659  -4.468  -3.934  0.00  0.00    -0.272 OA
ENDROOT
BRANCH  11  14
ATOM     14  C   UNL     1      -2.792  -7.080  -4.271  0.00  0.00    +0.041 A 
ATOM     15  C   UNL     1      -2.076  -8.270  -4.237  0.00  0.00    +0.024 A 
ATOM     16  C   UNL     1      -2.028  -9.076  -5.357  0.00  0.00    +0.005 A 
ATOM     17  C   UNL     1      -2.682  -8.695  -6.515  0.00  0.00    -0.047 A 
ATOM     18  C   UNL     1      -3.391  -7.509  -6.552  0.00  0.00    -0.046 A 
ATOM     19  C   UNL     1      -3.448  -6.700  -5.434  0.00  0.00    +0.027 A 
ATOM     20  C   UNL     1      -4.103  -7.097  -7.815  0.00  0.00    +0.044 C 
ATOM     21  C   UNL     1      -2.622  -9.575  -7.737  0.00  0.00    +0.044 C 
ENDBRANCH  11  14
BRANCH   1  22
ATOM     22  C   UNL     1      -3.417  -3.234  -1.743  0.00  0.00    +0.422 C 
ATOM     23  F   UNL     1      -2.779  -2.311  -2.578  0.00  0.00    -0.168 F 
ATOM     24  F   UNL     1      -4.684  -3.529  -2.256  0.00  0.00    -0.168 F 
ATOM     25  F   UNL     1      -3.548  -2.690  -0.461  0.00  0.00    -0.168 F 
ENDBRANCH   1  22
BRANCH   1  26
ATOM     26  N   UNL     1      -1.345  -4.284  -0.924  0.00  0.00    -0.162 NA
ATOM     27  H   UNL     1      -1.376  -4.161   0.168  0.00  0.00    +0.150 HD
BRANCH  26  28
ATOM     28  S   UNL     1       0.061  -3.960  -1.736  0.00  0.00    +0.060 S 
ATOM     29  O   UNL     1       1.059  -3.742  -0.748  0.00  0.00    -0.153 OA
ATOM     30  O   UNL     1      -0.255  -2.991  -2.726  0.00  0.00    -0.153 OA
BRANCH  28  35
ATOM     31  C   UNL     1       1.622  -8.989  -4.682  0.00  0.00    +0.044 C 
ATOM     32  C   UNL     1       1.232  -7.733  -3.946  0.00  0.00    -0.050 A 
ATOM     33  C   UNL     1       1.208  -7.721  -2.564  0.00  0.00    +0.005 A 
ATOM     34  C   UNL     1       0.856  -6.567  -1.889  0.00  0.00    +0.029 A 
ATOM     35  C   UNL     1       0.517  -5.429  -2.596  0.00  0.00    +0.105 A 
ATOM     36  C   UNL     1       0.535  -5.443  -3.978  0.00  0.00    +0.029 A 
ATOM     37  C   UNL     1       0.893  -6.595  -4.653  0.00  0.00    +0.005 A 
ENDBRANCH  28  35
ENDBRANCH  26  28
ENDBRANCH   1  26
TORSDOF 5
