REMARK  Name = ZINC05520878
REMARK  17 active torsions:
REMARK  status: ('A' for Active; 'I' for Inactive)
REMARK    1  A    between atoms: C_1  and  C_2
REMARK    2  A    between atoms: C_2  and  O_3
REMARK    3  A    between atoms: C_4  and  C_6
REMARK    4  A    between atoms: C_4  and  C_22
REMARK    5  A    between atoms: C_6  and  C_8
REMARK    6  A    between atoms: C_6  and  S_16
REMARK    7  A    between atoms: S_16  and  C_17
REMARK    8  A    between atoms: C_17  and  C_18
REMARK    9  A    between atoms: C_18  and  C_20
REMARK   10  A    between atoms: C_18  and  N_51
REMARK   11  A    between atoms: C_22  and  C_24
REMARK   12  A    between atoms: C_24  and  C_25
REMARK   13  A    between atoms: C_25  and  S_26
REMARK   14  A    between atoms: S_26  and  C_27
REMARK   15  A    between atoms: C_27  and  C_28
REMARK   16  A    between atoms: C_28  and  C_30
REMARK   17  A    between atoms: C_28  and  N_54
REMARK                            x       y       z     vdW  Elec       q    Type
REMARK                         _______ _______ _______ _____ _____    ______ ____
ROOT
ATOM      1  C   UNK     1       0.813   3.197   2.447  0.00  0.00    +0.085 C 
ATOM      2  C   UNK     1       1.344   4.223   1.479  0.00  0.00    +0.099 C 
ATOM      3  C   UNK     1       1.859   3.791   0.130  0.00  0.00    +0.049 C 
ENDROOT
BRANCH   3   4
ATOM      4  C   UNK     1       2.329   5.000  -0.638  0.00  0.00    +0.165 C 
ATOM      5  O   UNK     1       3.494   5.315  -0.615  0.00  0.00    -0.292 OA
BRANCH   4   6
ATOM      6  C   UNK     1       1.343   5.815  -1.436  0.00  0.00    +0.090 C 
BRANCH   6   7
ATOM      7  C   UNK     1       2.073   6.976  -2.115  0.00  0.00    +0.077 C 
BRANCH   7   8
ATOM      8  S   UNK     1       0.887   7.957  -3.075  0.00  0.00    -0.161 S 
BRANCH   8   9
ATOM      9  C   UNK     1       1.898   9.274  -3.806  0.00  0.00    +0.064 C 
BRANCH   9  10
ATOM     10  C   UNK     1       1.010  10.187  -4.653  0.00  0.00    +0.050 C 
BRANCH  10  13
ATOM     11  H   UNK     1      -0.261   9.968  -6.258  0.00  0.00    -0.089 HD
ATOM     12  H   UNK     1       1.076   8.982  -6.321  0.00  0.00    -0.089 HD
ATOM     13  N   UNK     1       0.368   9.384  -5.710  0.00  0.00    +0.388 N 
ATOM     14  H   UNK     1      -0.171   8.626  -5.276  0.00  0.00    -0.089 HD
ENDBRANCH  10  13
BRANCH  10  15
ATOM     15  C   UNK     1       1.849  11.282  -5.261  0.00  0.00    +0.343 C 
ATOM     16  O   UNK     1       2.215  11.196  -6.409  0.00  0.00    -0.248 OA
ATOM     17  O   UNK     1       2.190  12.352  -4.526  0.00  0.00    -0.248 OA
ENDBRANCH  10  15
ENDBRANCH   9  10
ENDBRANCH   8   9
ENDBRANCH   7   8
ENDBRANCH   6   7
ENDBRANCH   4   6
ENDBRANCH   3   4
BRANCH   2  18
ATOM     18  O   UNK     1       1.357   5.391   1.785  0.00  0.00    -0.511 OA
ATOM     19  H   UNK     1       1.738   5.928   1.033  0.00  0.00    +0.292 HD
ENDBRANCH   2  18
BRANCH   3  20
ATOM     20  C   UNK     1       1.731   2.272  -0.002  0.00  0.00    +0.113 C 
BRANCH  20  21
ATOM     21  C   UNK     1       2.358   1.827  -1.298  0.00  0.00    -0.028 A 
ATOM     22  C   UNK     1       3.415   0.936  -1.284  0.00  0.00    +0.006 A 
ATOM     23  C   UNK     1       3.991   0.527  -2.472  0.00  0.00    +0.022 A 
ATOM     24  C   UNK     1       3.509   1.008  -3.676  0.00  0.00    +0.059 A 
ATOM     25  C   UNK     1       2.450   1.900  -3.691  0.00  0.00    +0.060 A 
ATOM     26  C   UNK     1       1.872   2.305  -2.501  0.00  0.00    +0.026 A 
ATOM     27 CL   UNK     1       1.845   2.506  -5.201  0.00  0.00    -0.082 Cl
ATOM     28 CL   UNK     1       4.232   0.495  -5.169  0.00  0.00    -0.082 Cl
ENDBRANCH  20  21
BRANCH  20  29
ATOM     29  S   UNK     1      -0.022   1.810   0.012  0.00  0.00    -0.149 S 
BRANCH  29  30
ATOM     30  C   UNK     1       0.002  -0.004   0.002  0.00  0.00    +0.065 C 
BRANCH  30  31
ATOM     31  C   UNK     1      -1.433  -0.534   0.013  0.00  0.00    +0.050 C 
BRANCH  31  34
ATOM     32  H   UNK     1      -3.090  -0.343   1.221  0.00  0.00    -0.089 HD
ATOM     33  H   UNK     1      -1.651  -0.382   2.054  0.00  0.00    -0.089 HD
ATOM     34  N   UNK     1      -2.118  -0.035   1.218  0.00  0.00    +0.388 N 
ATOM     35  H   UNK     1      -2.092   0.992   1.221  0.00  0.00    -0.089 HD
ENDBRANCH  31  34
BRANCH  31  36
ATOM     36  C   UNK     1      -1.413  -2.041   0.005  0.00  0.00    +0.343 C 
ATOM     37  O   UNK     1      -1.577  -2.653   1.033  0.00  0.00    -0.248 OA
ATOM     38  O   UNK     1      -1.213  -2.703  -1.146  0.00  0.00    -0.248 OA
ENDBRANCH  31  36
ENDBRANCH  30  31
ENDBRANCH  29  30
ENDBRANCH  20  29
ENDBRANCH   3  20
TORSDOF 16
