REMARK  Name = ZINC13232564
REMARK  8 active torsions:
REMARK  status: ('A' for Active; 'I' for Inactive)
REMARK    1  A    between atoms: C_1  and  C_2
REMARK    2  A    between atoms: C_8  and  C_16
REMARK    3  A    between atoms: C_12  and  C_13
REMARK    4  A    between atoms: C_16  and  S_17
REMARK    5  A    between atoms: S_17  and  C_18
REMARK    6  A    between atoms: C_21  and  C_27
REMARK    7  A    between atoms: N_22  and  C_23
REMARK    8  A    between atoms: C_23  and  C_24
REMARK                            x       y       z     vdW  Elec       q    Type
REMARK                         _______ _______ _______ _____ _____    ______ ____
ROOT
ATOM      1  S   UNL     1       0.003  -5.105  -3.942  0.00  0.00    -0.078 S 
ENDROOT
BRANCH   1   2
ATOM      2  C   UNL     1       0.039  -6.020  -5.448  0.00  0.00    +0.193 A 
ATOM      3  N   UNL     1      -0.128  -5.537  -6.658  0.00  0.00    -0.122 NA
ATOM      4  N   UNL     1      -0.040  -6.480  -7.526  0.00  0.00    -0.128 NA
ATOM      5  C   UNL     1       0.188  -7.624  -6.924  0.00  0.00    +0.165 A 
ATOM      6  N   UNL     1       0.251  -7.364  -5.574  0.00  0.00    -0.291 N 
BRANCH   5   7
ATOM      7  C   UNL     1       0.353  -8.941  -7.573  0.00  0.00    +0.019 A 
ATOM      8  C   UNL     1       0.665  -9.019  -8.932  0.00  0.00    +0.013 A 
ATOM      9  C   UNL     1       0.817 -10.252  -9.532  0.00  0.00    +0.021 A 
ATOM     10  C   UNL     1       0.660 -11.410  -8.790  0.00  0.00    +0.041 A 
ATOM     11  C   UNL     1       0.350 -11.340  -7.443  0.00  0.00    +0.021 A 
ATOM     12  C   UNL     1       0.202 -10.113  -6.830  0.00  0.00    +0.013 A 
ATOM     13 CL   UNL     1       0.854 -12.958  -9.553  0.00  0.00    -0.084 Cl
ENDBRANCH   5   7
BRANCH   6  14
ATOM     14  C   UNL     1       0.493  -8.327  -4.497  0.00  0.00    +0.250 C 
BRANCH  14  15
ATOM     15  C   UNL     1      -0.824  -8.865  -4.000  0.00  0.00    +0.375 C 
ATOM     16  O   UNL     1      -1.868  -8.479  -4.498  0.00  0.00    -0.244 OA
ATOM     17  O   UNL     1      -0.846  -9.686  -3.099  0.00  0.00    -0.244 OA
ENDBRANCH  14  15
ENDBRANCH   6  14
ENDBRANCH   1   2
BRANCH   1  18
ATOM     18  C   UNL     1      -0.319  -3.401  -4.472  0.00  0.00    +0.151 C 
BRANCH  18  26
ATOM     19  C   UNL     1      -0.729   1.267   0.251  0.00  0.00    +0.046 C 
ATOM     20  C   UNL     1      -0.487  -0.220   0.194  0.00  0.00    -0.015 A 
ATOM     21  C   UNL     1      -0.472  -0.882  -1.033  0.00  0.00    +0.076 A 
ATOM     22  C   UNL     1      -0.668  -0.331  -2.394  0.00  0.00    +0.260 A 
ATOM     23  O   UNL     1      -0.877   0.857  -2.563  0.00  0.00    -0.267 OA
ATOM     24  N   UNL     1      -0.608  -1.177  -3.441  0.00  0.00    -0.310 N 
ATOM     25  H   UNL     1      -0.733  -0.832  -4.339  0.00  0.00    +0.170 HD
ATOM     26  C   UNL     1      -0.375  -2.501  -3.265  0.00  0.00    +0.121 A 
ATOM     27  N   UNL     1      -0.199  -3.020  -2.080  0.00  0.00    -0.226 NA
ATOM     28  C   UNL     1      -0.238  -2.276  -0.982  0.00  0.00    +0.116 A 
ATOM     29  S   UNL     1      -0.052  -2.599   0.754  0.00  0.00    -0.062 S 
ATOM     30  C   UNL     1      -0.275  -0.932   1.353  0.00  0.00    +0.106 A 
BRANCH  30  31
ATOM     31  C   UNL     1      -0.244  -0.460   2.690  0.00  0.00    +0.393 C 
ATOM     32  O   UNL     1      -0.422   0.729   2.924  0.00  0.00    -0.240 OA
ATOM     33  O   UNL     1      -0.040  -1.242   3.611  0.00  0.00    -0.240 OA
ENDBRANCH  30  31
ENDBRANCH  18  26
ENDBRANCH   1  18
TORSDOF 7
