REMARK  Name = ZINC12594406
REMARK  3 active torsions:
REMARK  status: ('A' for Active; 'I' for Inactive)
REMARK    1  A    between atoms: C_6  and  N_7
REMARK    2  A    between atoms: C_8  and  C_10
REMARK    3  A    between atoms: C_10  and  C_11
REMARK                            x       y       z     vdW  Elec       q    Type
REMARK                         _______ _______ _______ _____ _____    ______ ____
ROOT
ATOM      1  C   UNL     1      -4.887   0.368   0.450  0.00  0.00    +0.027 A 
ATOM      2  C   UNL     1      -6.144   0.625   0.966  0.00  0.00    +0.051 A 
ATOM      3  C   UNL     1      -7.270   0.171   0.304  0.00  0.00    +0.167 A 
ATOM      4  C   UNL     1      -7.138  -0.541  -0.889  0.00  0.00    +0.169 A 
ATOM      5  C   UNL     1      -5.881  -0.792  -1.407  0.00  0.00    +0.072 A 
ATOM      6  C   UNL     1      -4.753  -0.336  -0.739  0.00  0.00    +0.037 A 
ATOM      7  O   UNL     1      -8.392  -0.871  -1.335  0.00  0.00    -0.447 OA
ATOM      8  C   UNL     1      -9.206  -0.788  -0.156  0.00  0.00    +0.254 C 
ATOM      9  O   UNL     1      -8.607   0.279   0.593  0.00  0.00    -0.448 OA
ATOM     10  C   UNL     1     -10.664  -0.473  -0.506  0.00  0.00    +0.093 C 
ATOM     11  C   UNL     1     -11.369  -1.853  -0.448  0.00  0.00    +0.008 C 
ATOM     12  C   UNL     1     -10.664  -2.552   0.742  0.00  0.00    +0.008 C 
ATOM     13  C   UNL     1      -9.190  -2.100   0.628  0.00  0.00    +0.093 C 
ENDROOT
BRANCH   6  14
ATOM     14  N   UNL     1      -3.478  -0.590  -1.262  0.00  0.00    -0.285 N 
ATOM     15  C   UNL     1      -2.488   0.309  -1.090  0.00  0.00    +0.218 C 
ATOM     16  O   UNL     1      -2.723   1.378  -0.568  0.00  0.00    -0.275 OA
ATOM     17  H   UNL     1      -3.308  -1.412  -1.747  0.00  0.00    +0.155 HD
BRANCH  15  18
ATOM     18  C   UNL     1      -1.089  -0.016  -1.548  0.00  0.00    +0.103 C 
BRANCH  18  19
ATOM     19  C   UNL     1      -0.165   1.164  -1.238  0.00  0.00    +0.020 C 
ATOM     20  C   UNL     1       1.286   0.836  -1.659  0.00  0.00    +0.012 C 
ATOM     21  C   UNL     1       1.772   2.210  -2.176  0.00  0.00    +0.027 C 
ATOM     22  C   UNL     1       0.511   2.935  -2.585  0.00  0.00    -0.031 C 
ATOM     23  C   UNL     1      -0.546   2.364  -2.073  0.00  0.00    -0.027 C 
ENDBRANCH  18  19
ENDBRANCH  15  18
ENDBRANCH   6  14
TORSDOF 3
