REMARK  Name = ZINC39335034
REMARK  7 active torsions:
REMARK  status: ('A' for Active; 'I' for Inactive)
REMARK    1  A    between atoms: C_4  and  N_8
REMARK    2  A    between atoms: C_9  and  C_11
REMARK    3  A    between atoms: C_11  and  S_12
REMARK    4  A    between atoms: S_12  and  C_13
REMARK    5  A    between atoms: C_14  and  C_22
REMARK    6  A    between atoms: C_16  and  C_20
REMARK    7  A    between atoms: C_17  and  N_19
REMARK                            x       y       z     vdW  Elec       q    Type
REMARK                         _______ _______ _______ _____ _____    ______ ____
ROOT
ATOM      1  S   UNL     1       4.662  -4.507   0.268  0.00  0.00    -0.095 S 
ENDROOT
BRANCH   1   2
ATOM      2  C   UNL     1       6.276  -5.205   0.373  0.00  0.00    +0.117 A 
ATOM      3  C   UNL     1       6.425  -6.604   0.469  0.00  0.00    +0.085 A 
ATOM      4  C   UNL     1       7.710  -7.146   0.552  0.00  0.00    +0.043 A 
ATOM      5  C   UNL     1       8.800  -6.273   0.535  0.00  0.00    +0.092 A 
ATOM      6  C   UNL     1       8.568  -4.887   0.437  0.00  0.00    +0.135 A 
ATOM      7  N   UNL     1       7.335  -4.410   0.355  0.00  0.00    -0.224 NA
BRANCH   6   8
ATOM      8  N   UNL     1       9.638  -4.015   0.420  0.00  0.00    -0.342 N 
ATOM      9  H   UNL     1      10.543  -4.358   0.476  0.00  0.00    +0.144 HD
ATOM     10  H   UNL     1       9.484  -3.060   0.352  0.00  0.00    +0.144 HD
ENDBRANCH   6   8
BRANCH   5  11
ATOM     11  C   UNL     1      10.137  -6.780   0.618  0.00  0.00    +0.103 C 
ATOM     12  N   UNL     1      11.197  -7.182   0.684  0.00  0.00    -0.191 NA
ENDBRANCH   5  11
BRANCH   3  13
ATOM     13  C   UNL     1       5.275  -7.457   0.483  0.00  0.00    +0.102 C 
ATOM     14  N   UNL     1       4.363  -8.134   0.494  0.00  0.00    -0.191 NA
ENDBRANCH   3  13
ENDBRANCH   1   2
BRANCH   1  15
ATOM     15  C   UNL     1       4.963  -2.722   0.154  0.00  0.00    +0.172 C 
BRANCH  15  17
ATOM     16  N   UNL     1       3.622  -0.652  -0.037  0.00  0.00    -0.284 N 
ATOM     17  C   UNL     1       3.646  -1.996   0.058  0.00  0.00    +0.227 C 
ATOM     18  O   UNL     1       2.606  -2.621   0.065  0.00  0.00    -0.275 OA
ATOM     19  H   UNL     1       4.452  -0.157  -0.123  0.00  0.00    +0.155 HD
BRANCH  16  23
ATOM     20  C   UNL     1      -0.015   1.381   0.042  0.00  0.00    +0.016 A 
ATOM     21  C   UNL     1       1.083   1.955  -0.572  0.00  0.00    +0.018 A 
ATOM     22  C   UNL     1       2.290   1.284  -0.600  0.00  0.00    +0.039 A 
ATOM     23  C   UNL     1       2.401   0.031  -0.010  0.00  0.00    +0.049 A 
ATOM     24  C   UNL     1       1.297  -0.543   0.606  0.00  0.00    +0.039 A 
ATOM     25  C   UNL     1       0.092   0.134   0.630  0.00  0.00    +0.020 A 
ATOM     26 BR   UNL     1      -1.413  -0.647   1.469  0.00  0.00    -0.050 Br
ATOM     27 BR   UNL     1       3.791   2.070  -1.441  0.00  0.00    -0.048 Br
ENDBRANCH  16  23
ENDBRANCH  15  17
ENDBRANCH   1  15
TORSDOF 7
