REMARK  Name = ZINC15858242
REMARK  3 active torsions:
REMARK  status: ('A' for Active; 'I' for Inactive)
REMARK    1  A    between atoms: C_5  and  N_7
REMARK    2  A    between atoms: C_13  and  C_15
REMARK    3  A    between atoms: C_18  and  N_22
REMARK                            x       y       z     vdW  Elec       q    Type
REMARK                         _______ _______ _______ _____ _____    ______ ____
ROOT
ATOM      1  N   UNL     1      -1.405   6.134  -0.649  0.00  0.00    -0.325 N 
ATOM      2  C   UNL     1      -2.612   5.310  -0.795  0.00  0.00    +0.124 C 
ATOM      3  C   UNL     1      -2.592   4.190   0.251  0.00  0.00    +0.127 C 
ATOM      4  N   UNL     1      -1.321   3.460   0.129  0.00  0.00    -0.295 N 
ATOM      5  C   UNL     1      -0.070   4.233   0.135  0.00  0.00    +0.127 C 
ATOM      6  C   UNL     1      -0.190   5.352  -0.912  0.00  0.00    +0.124 C 
ATOM      7  C   UNL     1      -1.303   2.116   0.020  0.00  0.00    +0.248 C 
ATOM      8  O   UNL     1      -2.347   1.501  -0.085  0.00  0.00    -0.270 OA
ENDROOT
BRANCH   1  13
ATOM      9  C   UNL     1      -2.548   9.294  -2.141  0.00  0.00    +0.002 A 
ATOM     10  C   UNL     1      -1.583   9.491  -3.111  0.00  0.00    +0.003 A 
ATOM     11  C   UNL     1      -0.557   8.577  -3.267  0.00  0.00    +0.040 A 
ATOM     12  C   UNL     1      -0.494   7.461  -2.451  0.00  0.00    +0.144 A 
ATOM     13  C   UNL     1      -1.464   7.261  -1.475  0.00  0.00    +0.065 A 
ATOM     14  C   UNL     1      -2.494   8.180  -1.326  0.00  0.00    +0.026 A 
ATOM     15  F   UNL     1       0.507   6.567  -2.604  0.00  0.00    -0.204 F 
ENDBRANCH   1  13
BRANCH   7  16
ATOM     16  C   UNL     1      -0.018   1.393   0.027  0.00  0.00    +0.055 A 
ATOM     17  C   UNL     1       0.891   1.590   1.071  0.00  0.00    +0.016 A 
ATOM     18  C   UNL     1       2.092   0.918   1.072  0.00  0.00    +0.026 A 
ATOM     19  C   UNL     1       2.403   0.042   0.036  0.00  0.00    +0.061 A 
ATOM     20  C   UNL     1       1.502  -0.158  -1.004  0.00  0.00    +0.046 A 
ATOM     21  C   UNL     1       0.297   0.512  -1.012  0.00  0.00    +0.055 A 
ATOM     22 CL   UNL     1      -0.827   0.263  -2.312  0.00  0.00    -0.083 Cl
BRANCH  19  23
ATOM     23  N   UNL     1       3.621  -0.637   0.042  0.00  0.00    -0.144 N 
ATOM     24  C   UNL     1       3.874  -1.807  -0.564  0.00  0.00    +0.240 C 
ATOM     25  O   UNL     1       3.019  -2.366  -1.217  0.00  0.00    -0.274 OA
ATOM     26  C   UNL     1       5.241  -2.406  -0.419  0.00  0.00    +0.122 C 
ATOM     27  C   UNL     1       6.226  -1.295   0.034  0.00  0.00    +0.198 C 
ATOM     28  S   UNL     1       5.022  -0.141   0.811  0.00  0.00    +0.052 S 
ATOM     29  O   UNL     1       5.247   1.194   0.377  0.00  0.00    -0.155 OA
ATOM     30  O   UNL     1       4.837  -0.450   2.186  0.00  0.00    -0.155 OA
ENDBRANCH  19  23
ENDBRANCH   7  16
TORSDOF 3
