REMARK  Name = ZINC63139565
REMARK  5 active torsions:
REMARK  status: ('A' for Active; 'I' for Inactive)
REMARK    1  A    between atoms: C_4  and  C_7
REMARK    2  A    between atoms: C_7  and  C_8
REMARK    3  A    between atoms: C_8  and  C_9
REMARK    4  A    between atoms: N_28  and  C_31
REMARK    5  A    between atoms: C_31  and  C_32
REMARK                            x       y       z     vdW  Elec       q    Type
REMARK                         _______ _______ _______ _____ _____    ______ ____
ROOT
ATOM      1  C   UNL     1       5.520  -1.673   1.262  0.00  0.00    +0.104 C 
ATOM      2  C   UNL     1       6.101  -1.956   2.650  0.00  0.00    +0.127 C 
ATOM      3  C   UNL     1       7.287  -2.889   2.447  0.00  0.00    -0.034 C 
ATOM      4  C   UNL     1       8.333  -2.296   3.010  0.00  0.00    -0.001 A 
ATOM      5  C   UNL     1       9.725  -2.735   3.197  0.00  0.00    +0.010 A 
ATOM      6  C   UNL     1      10.553  -1.853   3.817  0.00  0.00    +0.001 A 
ATOM      7  C   UNL     1      10.141  -0.594   4.263  0.00  0.00    +0.002 A 
ATOM      8  C   UNL     1       8.879  -0.110   4.137  0.00  0.00    +0.026 A 
ATOM      9  C   UNL     1       7.915  -0.949   3.506  0.00  0.00    +0.043 A 
ATOM     10  N   UNL     1       6.631  -0.745   3.279  0.00  0.00    -0.376 N 
ATOM     11  C   UNL     1       7.179  -4.175   1.664  0.00  0.00    +0.065 C 
ATOM     12  C   UNL     1       6.497  -3.821   0.330  0.00  0.00    +0.167 C 
ATOM     13  N   UNL     1       5.337  -2.971   0.576  0.00  0.00    -0.283 N 
ATOM     14  C   UNL     1       4.097  -3.317   0.209  0.00  0.00    +0.234 C 
ATOM     15  O   UNL     1       3.196  -2.550   0.478  0.00  0.00    -0.274 OA
ATOM     16  C   UNL     1       3.744  -4.577  -0.508  0.00  0.00    +0.204 C 
ATOM     17  N   UNL     1       4.911  -5.401  -0.777  0.00  0.00    -0.287 N 
ATOM     18  C   UNL     1       6.147  -5.073  -0.404  0.00  0.00    +0.237 C 
ATOM     19  O   UNL     1       7.045  -5.839  -0.681  0.00  0.00    -0.274 OA
ATOM     20  H   UNL     1       6.125   0.057   3.482  0.00  0.00    +0.160 HD
ENDROOT
BRANCH   1  21
ATOM     21  C   UNL     1       4.171  -0.963   1.399  0.00  0.00    +0.029 C 
BRANCH  21  22
ATOM     22  C   UNL     1       4.377   0.401   2.061  0.00  0.00    +0.037 C 
BRANCH  22  26
ATOM     23  C   UNL     1       0.694   2.564   2.045  0.00  0.00    +0.000 A 
ATOM     24  C   UNL     1       1.007   1.740   3.110  0.00  0.00    +0.000 A 
ATOM     25  C   UNL     1       2.199   1.040   3.115  0.00  0.00    +0.003 A 
ATOM     26  C   UNL     1       3.078   1.163   2.055  0.00  0.00    -0.047 A 
ATOM     27  C   UNL     1       2.765   1.987   0.990  0.00  0.00    +0.003 A 
ATOM     28  C   UNL     1       1.573   2.688   0.985  0.00  0.00    +0.000 A 
ENDBRANCH  22  26
ENDBRANCH  21  22
ENDBRANCH   1  21
BRANCH  17  29
ATOM     29  C   UNL     1       4.716  -6.664  -1.494  0.00  0.00    +0.143 C 
BRANCH  29  30
ATOM     30  C   UNL     1       4.840  -6.423  -2.977  0.00  0.00    -0.026 A 
ATOM     31  C   UNL     1       3.721  -6.090  -3.717  0.00  0.00    +0.009 A 
ATOM     32  C   UNL     1       3.830  -5.868  -5.077  0.00  0.00    +0.050 A 
ATOM     33  C   UNL     1       5.062  -5.979  -5.702  0.00  0.00    +0.166 A 
ATOM     34  C   UNL     1       6.189  -6.314  -4.956  0.00  0.00    +0.167 A 
ATOM     35  C   UNL     1       6.073  -6.530  -3.592  0.00  0.00    +0.054 A 
ATOM     36  O   UNL     1       7.267  -6.360  -5.792  0.00  0.00    -0.453 OA
ATOM     37  C   UNL     1       6.720  -6.451  -7.120  0.00  0.00    +0.466 C 
ATOM     38  O   UNL     1       5.434  -5.814  -7.005  0.00  0.00    -0.453 OA
ENDBRANCH  29  30
ENDBRANCH  17  29
TORSDOF 5
