REMARK  Name = ZINC18200688
REMARK  4 active torsions:
REMARK  status: ('A' for Active; 'I' for Inactive)
REMARK    1  A    between atoms: C_3  and  C_6
REMARK    2  A    between atoms: C_11  and  C_20
REMARK    3  A    between atoms: C_23  and  O_26
REMARK    4  A    between atoms: O_26  and  C_27
REMARK                            x       y       z     vdW  Elec       q    Type
REMARK                         _______ _______ _______ _____ _____    ______ ____
ROOT
ATOM      1  C   UNL     1       4.195   2.551   3.629  0.00  0.00    +0.068 C 
ATOM      2  C   UNL     1       5.137   2.552   2.424  0.00  0.00    +0.063 C 
ATOM      3  C   UNL     1       4.361   2.215   1.172  0.00  0.00    +0.020 C 
ATOM      4  C   UNL     1       3.283   1.405   1.221  0.00  0.00    +0.041 C 
ATOM      5  C   UNL     1       2.490   1.045  -0.016  0.00  0.00    +0.175 C 
ATOM      6  N   UNL     1       3.236   1.414  -1.212  0.00  0.00    -0.219 N 
ATOM      7  C   UNL     1       4.320   2.229  -1.193  0.00  0.00    +0.220 A 
ATOM      8  N   UNL     1       4.747   2.365  -2.419  0.00  0.00    -0.180 NA
ATOM      9  C   UNL     1       3.970   1.651  -3.246  0.00  0.00    +0.233 A 
ATOM     10  N   UNL     1       3.032   1.053  -2.543  0.00  0.00    -0.132 NA
ATOM     11  N   UNL     1       4.128   1.558  -4.629  0.00  0.00    -0.326 N 
ATOM     12  N   UNL     1       4.803   2.761  -0.009  0.00  0.00    -0.287 N 
ATOM     13  C   UNL     1       2.848   0.856   2.441  0.00  0.00    +0.164 C 
ATOM     14  O   UNL     1       1.884   0.115   2.450  0.00  0.00    -0.292 OA
ATOM     15  C   UNL     1       3.548   1.166   3.735  0.00  0.00    +0.091 C 
ATOM     16  H   UNL     1       3.517   1.017  -5.152  0.00  0.00    +0.145 HD
ATOM     17  H   UNL     1       4.851   2.035  -5.067  0.00  0.00    +0.145 HD
ATOM     18  H   UNL     1       5.434   3.498  -0.014  0.00  0.00    +0.155 HD
ENDROOT
BRANCH   5  19
ATOM     19  C   UNL     1       1.176   1.783   0.000  0.00  0.00    -0.018 A 
ATOM     20  C   UNL     1      -0.013   1.076   0.008  0.00  0.00    +0.009 A 
ATOM     21  C   UNL     1      -1.218   1.750   0.017  0.00  0.00    +0.046 A 
ATOM     22  C   UNL     1      -1.237   3.137   0.031  0.00  0.00    +0.130 A 
ATOM     23  C   UNL     1      -0.043   3.844   0.023  0.00  0.00    +0.046 A 
ATOM     24  C   UNL     1       1.160   3.165   0.007  0.00  0.00    +0.009 A 
BRANCH  22  25
ATOM     25  O   UNL     1      -2.422   3.802   0.045  0.00  0.00    -0.406 OA
BRANCH  25  26
ATOM     26  C   UNL     1      -3.611   3.009   0.053  0.00  0.00    +0.575 C 
ATOM     27  F   UNL     1      -3.622   2.196   1.191  0.00  0.00    -0.133 F 
ATOM     28  F   UNL     1      -4.730   3.848   0.067  0.00  0.00    -0.133 F 
ATOM     29  F   UNL     1      -3.643   2.207  -1.093  0.00  0.00    -0.133 F 
ENDBRANCH  25  26
ENDBRANCH  22  25
ENDBRANCH   5  19
BRANCH   1  32
ATOM     30  C   UNL     1       5.712   3.764   6.761  0.00  0.00    +0.041 A 
ATOM     31  C   UNL     1       4.757   3.872   5.725  0.00  0.00    +0.045 A 
ATOM     32  C   UNL     1       4.975   2.845   4.885  0.00  0.00    +0.109 A 
ATOM     33  O   UNL     1       6.003   2.121   5.357  0.00  0.00    -0.468 OA
ATOM     34  C   UNL     1       6.458   2.677   6.492  0.00  0.00    +0.195 A 
ENDBRANCH   1  32
TORSDOF 4
