REMARK  Name = ZINC22103169
REMARK  11 active torsions:
REMARK  status: ('A' for Active; 'I' for Inactive)
REMARK    1  A    between atoms: C_1  and  C_2
REMARK    2  A    between atoms: C_2  and  C_4
REMARK    3  A    between atoms: C_2  and  N_33
REMARK    4  A    between atoms: C_7  and  S_16
REMARK    5  A    between atoms: N_8  and  C_9
REMARK    6  A    between atoms: S_16  and  C_17
REMARK    7  A    between atoms: C_17  and  C_19
REMARK    8  A    between atoms: C_17  and  C_20
REMARK    9  A    between atoms: N_22  and  C_23
REMARK   10  A    between atoms: N_33  and  C_34
REMARK   11  A    between atoms: N_33  and  C_35
REMARK                            x       y       z     vdW  Elec       q    Type
REMARK                         _______ _______ _______ _____ _____    ______ ____
ROOT
ATOM      1  C   UNL     1       6.933  -0.542   1.267  0.00  0.00    +0.125 A 
ATOM      2  N   UNL     1       6.054  -1.378   0.789  0.00  0.00    -0.135 NA
ATOM      3  N   UNL     1       4.943  -0.772   0.566  0.00  0.00    -0.122 NA
ATOM      4  C   UNL     1       5.054   0.497   0.882  0.00  0.00    +0.197 A 
ATOM      5  N   UNL     1       6.329   0.684   1.344  0.00  0.00    -0.275 N 
ENDROOT
BRANCH   5   6
ATOM      6  C   UNL     1       6.897   1.882   1.801  0.00  0.00    +0.050 A 
ATOM      7  C   UNL     1       7.954   2.458   1.109  0.00  0.00    +0.028 A 
ATOM      8  C   UNL     1       8.509   3.641   1.558  0.00  0.00    +0.022 A 
ATOM      9  C   UNL     1       8.020   4.245   2.702  0.00  0.00    +0.041 A 
ATOM     10  C   UNL     1       6.971   3.670   3.397  0.00  0.00    +0.022 A 
ATOM     11  C   UNL     1       6.408   2.491   2.948  0.00  0.00    +0.028 A 
ATOM     12 CL   UNL     1       8.724   5.728   3.268  0.00  0.00    -0.084 Cl
ENDBRANCH   5   6
BRANCH   1  14
ATOM     13  C   UNL     1       8.351  -1.622   2.990  0.00  0.00    -0.005 C 
ATOM     14  C   UNL     1       8.351  -0.866   1.661  0.00  0.00    -0.003 C 
BRANCH  14  15
ATOM     15  N   UNL     1       8.969  -1.701   0.622  0.00  0.00    +0.382 N 
ATOM     16  C   UNL     1       8.902  -1.045  -0.690  0.00  0.00    -0.096 C 
ATOM     17  C   UNL     1      10.356  -2.037   0.973  0.00  0.00    -0.096 C 
ATOM     18  H   UNL     1       8.399  -2.640   0.560  0.00  0.00    -0.082 HD
ENDBRANCH  14  15
ENDBRANCH   1  14
BRANCH   4  19
ATOM     19  S   UNL     1       3.799   1.726   0.745  0.00  0.00    -0.073 S 
BRANCH  19  20
ATOM     20  C   UNL     1       2.450   0.723   0.074  0.00  0.00    +0.137 C 
ATOM     21  C   UNL     1       2.830   0.222  -1.320  0.00  0.00    +0.029 C 
BRANCH  20  22
ATOM     22  C   UNL     1       1.199   1.559  -0.016  0.00  0.00    +0.230 C 
ATOM     23  O   UNL     1       1.282   2.765  -0.110  0.00  0.00    -0.274 OA
ATOM     24  N   UNL     1      -0.011   0.966   0.007  0.00  0.00    -0.284 N 
ATOM     25  H   UNL     1      -0.086  -0.132   0.023  0.00  0.00    +0.155 HD
BRANCH  24  26
ATOM     26  C   UNL     1      -1.169   1.744   0.013  0.00  0.00    +0.043 A 
ATOM     27  C   UNL     1      -1.210   2.935  -0.681  0.00  0.00    +0.024 A 
ATOM     28  C   UNL     1      -2.364   3.713  -0.686  0.00  0.00    +0.004 A 
ATOM     29  C   UNL     1      -3.476   3.329   0.001  0.00  0.00    +0.028 A 
ATOM     30  C   UNL     1      -3.474   2.125   0.726  0.00  0.00    +0.073 A 
ATOM     31  C   UNL     1      -2.307   1.323   0.732  0.00  0.00    +0.022 A 
ATOM     32  C   UNL     1      -2.309   0.119   1.458  0.00  0.00    +0.013 A 
ATOM     33  C   UNL     1      -3.447  -0.226   2.131  0.00  0.00    +0.020 A 
ATOM     34  C   UNL     1      -4.561   0.608   2.085  0.00  0.00    +0.111 A 
ATOM     35  N   UNL     1      -4.555   1.730   1.407  0.00  0.00    -0.255 NA
ENDBRANCH  24  26
ENDBRANCH  20  22
ENDBRANCH  19  20
ENDBRANCH   4  19
TORSDOF 7
