REMARK  Name = ZINC08589481
REMARK  7 active torsions:
REMARK  status: ('A' for Active; 'I' for Inactive)
REMARK    1  A    between atoms: C_1  and  O_2
REMARK    2  A    between atoms: O_2  and  C_3
REMARK    3  A    between atoms: C_6  and  S_9
REMARK    4  A    between atoms: S_9  and  C_12
REMARK    5  A    between atoms: C_17  and  C_24
REMARK    6  A    between atoms: N_26  and  C_27
REMARK    7  A    between atoms: C_27  and  C_28
REMARK                            x       y       z     vdW  Elec       q    Type
REMARK                         _______ _______ _______ _____ _____    ______ ____
ROOT
ATOM      1  C   UNL     1       4.313  -2.840  -4.154  0.00  0.00    +0.204 A 
ATOM      2  C   UNL     1       5.138  -1.720  -3.950  0.00  0.00    +0.218 A 
ATOM      3  C   UNL     1       6.552  -1.958  -3.595  0.00  0.00    +0.047 A 
ATOM      4  C   UNL     1       7.430  -0.896  -3.376  0.00  0.00    +0.014 A 
ATOM      5  C   UNL     1       8.731  -1.145  -3.048  0.00  0.00    +0.014 A 
ATOM      6  C   UNL     1       9.192  -2.461  -2.930  0.00  0.00    +0.039 A 
ATOM      7  C   UNL     1       8.328  -3.529  -3.146  0.00  0.00    +0.039 A 
ATOM      8  C   UNL     1       7.001  -3.283  -3.479  0.00  0.00    +0.054 A 
ATOM      9  N   UNL     1       6.120  -4.323  -3.697  0.00  0.00    -0.320 N 
ATOM     10  H   UNL     1       6.436  -5.237  -3.616  0.00  0.00    +0.169 HD
ATOM     11  C   UNL     1       4.821  -4.097  -4.019  0.00  0.00    +0.278 A 
ATOM     12  O   UNL     1       4.004  -5.154  -4.216  0.00  0.00    -0.266 OA
ATOM     13  O   UNL     1       4.700  -0.587  -4.063  0.00  0.00    -0.285 OA
ENDROOT
BRANCH   6  14
ATOM     14  C   UNL     1      10.606  -2.717  -2.575  0.00  0.00    +0.244 C 
ATOM     15  O   UNL     1      11.009  -3.859  -2.471  0.00  0.00    -0.270 OA
ATOM     16  N   UNL     1      11.446  -1.684  -2.366  0.00  0.00    -0.307 N 
ATOM     17  H   UNL     1      11.124  -0.773  -2.448  0.00  0.00    +0.149 HD
BRANCH  16  18
ATOM     18  C   UNL     1      12.845  -1.937  -2.014  0.00  0.00    +0.139 C 
BRANCH  18  19
ATOM     19  C   UNL     1      13.564  -0.625  -1.836  0.00  0.00    -0.030 A 
ATOM     20  C   UNL     1      14.180  -0.023  -2.917  0.00  0.00    +0.008 A 
ATOM     21  C   UNL     1      14.839   1.181  -2.755  0.00  0.00    +0.038 A 
ATOM     22  C   UNL     1      14.882   1.784  -1.509  0.00  0.00    +0.123 A 
ATOM     23  C   UNL     1      14.265   1.180  -0.427  0.00  0.00    +0.038 A 
ATOM     24  C   UNL     1      13.602  -0.021  -0.593  0.00  0.00    +0.008 A 
ATOM     25  F   UNL     1      15.527   2.961  -1.349  0.00  0.00    -0.205 F 
ENDBRANCH  18  19
ENDBRANCH  16  18
ENDBRANCH   6  14
BRANCH   1  26
ATOM     26  S   UNL     1       2.618  -2.616  -4.580  0.00  0.00    +0.034 S 
ATOM     27  O   UNL     1       2.051  -3.915  -4.685  0.00  0.00    -0.164 OA
ATOM     28  O   UNL     1       2.587  -1.683  -5.651  0.00  0.00    -0.164 OA
BRANCH  26  32
ATOM     29  C   UNL     1       0.606  -0.607  -1.056  0.00  0.00    +0.120 A 
ATOM     30  C   UNL     1       1.173   0.161  -2.062  0.00  0.00    +0.047 A 
ATOM     31  C   UNL     1       1.786  -0.455  -3.136  0.00  0.00    +0.031 A 
ATOM     32  C   UNL     1       1.835  -1.835  -3.209  0.00  0.00    +0.094 A 
ATOM     33  C   UNL     1       1.270  -2.602  -2.207  0.00  0.00    +0.031 A 
ATOM     34  C   UNL     1       0.661  -1.992  -1.128  0.00  0.00    +0.047 A 
BRANCH  29  36
ATOM     35  C   UNL     1      -0.017   1.425   0.010  0.00  0.00    +0.277 C 
ATOM     36  O   UNL     1       0.002  -0.004   0.002  0.00  0.00    -0.495 OA
ENDBRANCH  29  36
ENDBRANCH  26  32
ENDBRANCH   1  26
TORSDOF 6
