REMARK  Name = ZINC67059398
REMARK  8 active torsions:
REMARK  status: ('A' for Active; 'I' for Inactive)
REMARK    1  A    between atoms: C_1  and  C_2
REMARK    2  A    between atoms: C_3  and  C_13
REMARK    3  A    between atoms: C_5  and  C_7
REMARK    4  A    between atoms: C_13  and  N_14
REMARK    5  A    between atoms: N_17  and  C_18
REMARK    6  A    between atoms: C_18  and  C_19
REMARK    7  A    between atoms: N_25  and  C_26
REMARK    8  A    between atoms: N_25  and  C_27
REMARK                            x       y       z     vdW  Elec       q    Type
REMARK                         _______ _______ _______ _____ _____    ______ ____
ROOT
ATOM      1  N   UNL     1       1.367   0.042  -3.054  0.00  0.00    -0.295 N 
ATOM      2  C   UNL     1       1.600   0.510  -4.296  0.00  0.00    +0.300 C 
ATOM      3  O   UNL     1       0.668   0.775  -5.030  0.00  0.00    -0.253 OA
ATOM      4  N   UNL     1       2.866   0.686  -4.723  0.00  0.00    -0.295 N 
ATOM      5  H   UNL     1       2.110  -0.170  -2.468  0.00  0.00    +0.151 HD
ATOM      6  H   UNL     1       3.609   0.475  -4.137  0.00  0.00    +0.151 HD
ENDROOT
BRANCH   1   7
ATOM      7  C   UNL     1      -0.010  -0.149  -2.589  0.00  0.00    +0.150 C 
BRANCH   7  10
ATOM      8  C   UNL     1      -0.018   1.503   0.010  0.00  0.00    +0.066 C 
ATOM      9  C   UNL     1       0.002  -0.004   0.002  0.00  0.00    +0.051 A 
ATOM     10  C   UNL     1       0.005  -0.679  -1.179  0.00  0.00    +0.030 A 
ATOM     11  S   UNL     1       0.031  -2.368  -0.593  0.00  0.00    -0.070 S 
ATOM     12  C   UNL     1       0.035  -1.993   1.155  0.00  0.00    +0.109 A 
ATOM     13  N   UNL     1       0.022  -0.667   1.134  0.00  0.00    -0.244 NA
BRANCH  12  14
ATOM     14  C   UNL     1       0.053  -2.913   2.313  0.00  0.00    +0.007 A 
ATOM     15  C   UNL     1       0.076  -4.293   2.110  0.00  0.00    +0.010 A 
ATOM     16  C   UNL     1       0.092  -5.146   3.194  0.00  0.00    +0.001 A 
ATOM     17  C   UNL     1       0.086  -4.636   4.480  0.00  0.00    +0.000 A 
ATOM     18  C   UNL     1       0.063  -3.268   4.688  0.00  0.00    +0.001 A 
ATOM     19  C   UNL     1       0.053  -2.404   3.612  0.00  0.00    +0.010 A 
ENDBRANCH  12  14
ENDBRANCH   7  10
ENDBRANCH   1   7
BRANCH   4  20
ATOM     20  C   UNL     1       3.119   1.196  -6.073  0.00  0.00    +0.141 C 
BRANCH  20  21
ATOM     21  C   UNL     1       4.606   1.299  -6.300  0.00  0.00    -0.026 A 
ATOM     22  C   UNL     1       5.294   2.462  -5.982  0.00  0.00    +0.023 A 
ATOM     23  C   UNL     1       6.655   2.525  -6.202  0.00  0.00    +0.084 A 
ATOM     24  N   UNL     1       7.306   1.495  -6.708  0.00  0.00    -0.350 N 
ATOM     25  C   UNL     1       6.687   0.368  -7.025  0.00  0.00    +0.098 A 
ATOM     26  C   UNL     1       5.316   0.234  -6.824  0.00  0.00    +0.047 A 
ATOM     27  N   UNL     1       7.412  -0.691  -7.556  0.00  0.00    -0.323 N 
ATOM     28  C   UNL     1       8.856  -0.559  -7.764  0.00  0.00    +0.130 C 
ATOM     29  C   UNL     1       6.733  -1.941  -7.908  0.00  0.00    +0.130 C 
ATOM     30  H   UNL     1       8.263   1.565  -6.853  0.00  0.00    +0.166 HD
ENDBRANCH  20  21
ENDBRANCH   4  20
TORSDOF 5
