REMARK  Name = ZINC20833728
REMARK  8 active torsions:
REMARK  status: ('A' for Active; 'I' for Inactive)
REMARK    1  A    between atoms: C_6  and  C_7
REMARK    2  A    between atoms: N_8  and  N_9
REMARK    3  A    between atoms: C_12  and  S_15
REMARK    4  A    between atoms: S_15  and  C_16
REMARK    5  A    between atoms: C_16  and  C_17
REMARK    6  A    between atoms: N_19  and  C_20
REMARK    7  A    between atoms: C_23  and  S_26
REMARK    8  A    between atoms: S_26  and  N_29
REMARK                            x       y       z     vdW  Elec       q    Type
REMARK                         _______ _______ _______ _____ _____    ______ ____
ROOT
ATOM      1  S   UNL     1      -1.455   2.378   0.024  0.00  0.00    -0.075 S 
ENDROOT
BRANCH   1   5
ATOM      2  N   UNL     1       1.755  -1.722   0.002  0.00  0.00    -0.205 N 
ATOM      3  C   UNL     1       1.309  -0.409   0.010  0.00  0.00    +0.232 A 
ATOM      4  N   UNL     1       0.003  -0.004   0.015  0.00  0.00    -0.186 NA
ATOM      5  C   UNL     1      -0.016   1.362   0.022  0.00  0.00    +0.211 A 
ATOM      6  N   UNL     1       1.226   1.784   0.022  0.00  0.00    -0.144 NA
ATOM      7  N   UNL     1       2.065   0.662   0.014  0.00  0.00    -0.245 N 
ATOM      8  H   UNL     1       1.030  -2.550  -0.001  0.00  0.00    +0.177 HD
ATOM      9  H   UNL     1       3.160   0.562   0.011  0.00  0.00    +0.192 HD
BRANCH   2  11
ATOM     10  C   UNL     1       3.548  -3.224  -0.010  0.00  0.00    +0.138 C 
ATOM     11  N   UNL     1       3.130  -1.995  -0.002  0.00  0.00    -0.188 NA
BRANCH  10  17
ATOM     12  C   UNL     1       5.917  -2.463  -0.016  0.00  0.00    +0.010 A 
ATOM     13  C   UNL     1       7.268  -2.738  -0.015  0.00  0.00    +0.016 A 
ATOM     14  C   UNL     1       7.711  -4.050  -0.024  0.00  0.00    +0.018 A 
ATOM     15  C   UNL     1       6.801  -5.094  -0.027  0.00  0.00    +0.016 A 
ATOM     16  C   UNL     1       5.447  -4.833  -0.023  0.00  0.00    +0.010 A 
ATOM     17  C   UNL     1       4.994  -3.511  -0.015  0.00  0.00    -0.005 A 
ATOM     18 BR   UNL     1       9.566  -4.418  -0.030  0.00  0.00    -0.050 Br
ENDBRANCH  10  17
ENDBRANCH   2  11
ENDBRANCH   1   5
BRANCH   1  19
ATOM     19  C   UNL     1      -0.799   4.069   0.035  0.00  0.00    +0.173 C 
BRANCH  19  20
ATOM     20  C   UNL     1      -1.942   5.051   0.037  0.00  0.00    +0.227 C 
ATOM     21  O   UNL     1      -3.086   4.650   0.032  0.00  0.00    -0.275 OA
ATOM     22  N   UNL     1      -1.692   6.376   0.045  0.00  0.00    -0.285 N 
ATOM     23  H   UNL     1      -0.657   6.740   0.126  0.00  0.00    +0.155 HD
BRANCH  22  24
ATOM     24  C   UNL     1      -2.749   7.288  -0.050  0.00  0.00    +0.034 A 
ATOM     25  C   UNL     1      -2.577   8.483  -0.736  0.00  0.00    +0.025 A 
ATOM     26  C   UNL     1      -3.624   9.378  -0.834  0.00  0.00    +0.030 A 
ATOM     27  C   UNL     1      -4.839   9.091  -0.239  0.00  0.00    +0.105 A 
ATOM     28  C   UNL     1      -5.011   7.904   0.449  0.00  0.00    +0.030 A 
ATOM     29  C   UNL     1      -3.970   7.002   0.545  0.00  0.00    +0.025 A 
BRANCH  27  30
ATOM     30  S   UNL     1      -6.170  10.239  -0.360  0.00  0.00    +0.056 S 
ATOM     31  O   UNL     1      -5.925  11.025  -1.518  0.00  0.00    -0.153 OA
ATOM     32  O   UNL     1      -7.367   9.493  -0.185  0.00  0.00    -0.153 OA
BRANCH  30  33
ATOM     33  N   UNL     1      -6.055  11.261   0.938  0.00  0.00    -0.204 NA
ATOM     34  H   UNL     1      -6.872  11.996   0.899  0.00  0.00    +0.144 HD
ATOM     35  H   UNL     1      -5.088  11.784   0.908  0.00  0.00    +0.144 HD
ENDBRANCH  30  33
ENDBRANCH  27  30
ENDBRANCH  22  24
ENDBRANCH  19  20
ENDBRANCH   1  19
TORSDOF 8
