REMARK  Name = ZINC33808891
REMARK  8 active torsions:
REMARK  status: ('A' for Active; 'I' for Inactive)
REMARK    1  A    between atoms: C_1  and  C_2
REMARK    2  A    between atoms: C_5  and  S_8
REMARK    3  A    between atoms: S_8  and  N_11
REMARK    4  A    between atoms: N_11  and  N_12
REMARK    5  A    between atoms: C_13  and  C_15
REMARK    6  A    between atoms: C_18  and  C_35
REMARK    7  A    between atoms: C_19  and  C_20
REMARK    8  A    between atoms: C_19  and  C_21
REMARK                            x       y       z     vdW  Elec       q    Type
REMARK                         _______ _______ _______ _____ _____    ______ ____
ROOT
ATOM      1  C   UNL     1       1.471  -0.436  -0.014  0.00  0.00    +0.098 C 
ATOM      2  C   UNL     1       1.973  -0.042  -1.439  0.00  0.00    +0.024 C 
ATOM      3  C   UNL     1       1.951   1.505  -1.431  0.00  0.00    +0.015 C 
ATOM      4  C   UNL     1       1.439   1.871  -0.002  0.00  0.00    +0.018 C 
ATOM      5  C   UNL     1       2.107   0.722   0.840  0.00  0.00    -0.005 C 
ATOM      6  C   UNL     1       1.622   0.708   2.291  0.00  0.00    +0.013 C 
ATOM      7  C   UNL     1       3.634   0.742   0.747  0.00  0.00    +0.013 C 
ATOM      8  C   UNL     1      -0.017   1.398   0.010  0.00  0.00    +0.071 A 
ATOM      9  C   UNL     1       0.002  -0.004   0.002  0.00  0.00    +0.079 A 
ATOM     10  N   UNL     1      -1.112  -0.690   0.010  0.00  0.00    -0.247 NA
ATOM     11  C   UNL     1      -2.284  -0.043   0.029  0.00  0.00    +0.093 A 
ATOM     12  C   UNL     1      -3.498  -0.750   0.042  0.00  0.00    +0.079 A 
ATOM     13  C   UNL     1      -4.681  -0.070   0.069  0.00  0.00    +0.168 A 
ATOM     14  C   UNL     1      -4.700   1.337   0.081  0.00  0.00    +0.168 A 
ATOM     15  C   UNL     1      -3.536   2.049   0.064  0.00  0.00    +0.079 A 
ATOM     16  C   UNL     1      -2.303   1.375   0.039  0.00  0.00    +0.093 A 
ATOM     17  N   UNL     1      -1.149   2.054   0.029  0.00  0.00    -0.248 NA
ATOM     18  O   UNL     1      -6.001   1.749   0.110  0.00  0.00    -0.453 OA
ATOM     19  C   UNL     1      -6.777   0.608  -0.301  0.00  0.00    +0.466 C 
ATOM     20  O   UNL     1      -5.971  -0.518   0.089  0.00  0.00    -0.453 OA
ATOM     21  C   UNL     1       1.690   3.302   0.477  0.00  0.00    +0.018 C 
ENDROOT
BRANCH   1  23
ATOM     22  N   UNL     1       1.222  -2.889  -0.221  0.00  0.00    -0.231 N 
ATOM     23  C   UNL     1       1.755  -1.844   0.443  0.00  0.00    +0.240 C 
ATOM     24  O   UNL     1       2.464  -2.037   1.408  0.00  0.00    -0.273 OA
ATOM     25  H   UNL     1       0.579  -2.714  -1.096  0.00  0.00    +0.171 HD
BRANCH  22  26
ATOM     26  N   UNL     1       1.487  -4.197   0.203  0.00  0.00    -0.108 NA
ATOM     27  H   UNL     1       2.403  -4.500   0.299  0.00  0.00    +0.172 HD
BRANCH  26  28
ATOM     28  S   UNL     1       0.235  -5.227   0.542  0.00  0.00    +0.074 S 
ATOM     29  O   UNL     1       0.814  -6.499   0.800  0.00  0.00    -0.152 OA
ATOM     30  O   UNL     1      -0.594  -4.562   1.485  0.00  0.00    -0.152 OA
BRANCH  28  35
ATOM     31  C   UNL     1      -3.016  -5.805  -4.508  0.00  0.00    +0.044 C 
ATOM     32  C   UNL     1      -2.204  -5.661  -3.247  0.00  0.00    -0.050 A 
ATOM     33  C   UNL     1      -1.155  -6.526  -2.997  0.00  0.00    +0.005 A 
ATOM     34  C   UNL     1      -0.410  -6.393  -1.840  0.00  0.00    +0.029 A 
ATOM     35  C   UNL     1      -0.714  -5.396  -0.933  0.00  0.00    +0.107 A 
ATOM     36  C   UNL     1      -1.767  -4.535  -1.180  0.00  0.00    +0.029 A 
ATOM     37  C   UNL     1      -2.509  -4.664  -2.339  0.00  0.00    +0.005 A 
ENDBRANCH  28  35
ENDBRANCH  26  28
ENDBRANCH  22  26
ENDBRANCH   1  23
TORSDOF 4
