REMARK  Name = ZINC66110641
REMARK  11 active torsions:
REMARK  status: ('A' for Active; 'I' for Inactive)
REMARK    1  A    between atoms: C_1  and  C_2
REMARK    2  A    between atoms: C_2  and  C_3
REMARK    3  A    between atoms: N_5  and  C_6
REMARK    4  A    between atoms: C_10  and  N_13
REMARK    5  A    between atoms: C_11  and  C_12
REMARK    6  A    between atoms: N_13  and  C_14
REMARK    7  A    between atoms: C_14  and  C_15
REMARK    8  A    between atoms: N_17  and  C_18
REMARK    9  A    between atoms: C_23  and  O_24
REMARK   10  A    between atoms: O_24  and  C_25
REMARK   11  A    between atoms: C_25  and  C_26
REMARK                            x       y       z     vdW  Elec       q    Type
REMARK                         _______ _______ _______ _____ _____    ______ ____
ROOT
ATOM      1  C   UNL     1       3.860  -7.276   5.152  0.00  0.00    +0.234 C 
ATOM      2  O   UNL     1       3.337  -7.926   4.272  0.00  0.00    -0.274 OA
ATOM      3  N   UNL     1       4.556  -7.897   6.125  0.00  0.00    -0.281 N 
ATOM      4  H   UNL     1       4.907  -7.388   6.872  0.00  0.00    +0.155 HD
ENDROOT
BRANCH   3   5
ATOM      5  C   UNL     1       4.773  -9.280   6.057  0.00  0.00    +0.076 A 
ATOM      6  C   UNL     1       4.756  -9.928   4.831  0.00  0.00    +0.027 A 
ATOM      7  C   UNL     1       4.971 -11.291   4.766  0.00  0.00    +0.002 A 
ATOM      8  C   UNL     1       5.204 -12.013   5.923  0.00  0.00    +0.004 A 
ATOM      9  C   UNL     1       5.222 -11.375   7.149  0.00  0.00    +0.047 A 
ATOM     10  C   UNL     1       5.013 -10.007   7.221  0.00  0.00    +0.142 A 
BRANCH  10  11
ATOM     11  O   UNL     1       5.037  -9.377   8.426  0.00  0.00    -0.486 OA
BRANCH  11  12
ATOM     12  C   UNL     1       5.288 -10.186   9.576  0.00  0.00    +0.264 C 
BRANCH  12  13
ATOM     13  C   UNL     1       5.277  -9.322  10.811  0.00  0.00    -0.010 A 
ATOM     14  C   UNL     1       6.446  -8.730  11.251  0.00  0.00    +0.007 A 
ATOM     15  C   UNL     1       6.435  -7.937  12.383  0.00  0.00    +0.000 A 
ATOM     16  C   UNL     1       5.256  -7.736  13.075  0.00  0.00    +0.000 A 
ATOM     17  C   UNL     1       4.086  -8.327  12.634  0.00  0.00    +0.000 A 
ATOM     18  C   UNL     1       4.096  -9.116  11.500  0.00  0.00    +0.007 A 
ENDBRANCH  12  13
ENDBRANCH  11  12
ENDBRANCH  10  11
ENDBRANCH   3   5
BRANCH   1  19
ATOM     19  C   UNL     1       3.732  -5.775   5.159  0.00  0.00    +0.198 C 
BRANCH  19  20
ATOM     20  N   UNL     1       2.935  -5.348   4.007  0.00  0.00    -0.335 N 
ATOM     21  H   UNL     1       2.585  -6.007   3.388  0.00  0.00    +0.147 HD
BRANCH  20  26
ATOM     22  C   UNL     1       1.671  -2.236   2.505  0.00  0.00    +0.038 A 
ATOM     23  C   UNL     1       2.175  -1.295   3.395  0.00  0.00    +0.024 A 
ATOM     24  C   UNL     1       2.926  -1.702   4.481  0.00  0.00    +0.004 A 
ATOM     25  C   UNL     1       3.179  -3.045   4.685  0.00  0.00    +0.023 A 
ATOM     26  C   UNL     1       2.678  -3.990   3.799  0.00  0.00    +0.032 A 
ATOM     27  C   UNL     1       1.919  -3.585   2.711  0.00  0.00    -0.008 A 
ATOM     28  C   UNL     1       1.368  -4.609   1.751  0.00  0.00    +0.047 C 
BRANCH  22  31
ATOM     29  C   UNL     1       0.246  -0.651   1.448  0.00  0.00    +0.217 C 
ATOM     30  O   UNL     1       0.225  -0.003   2.473  0.00  0.00    -0.275 OA
ATOM     31  N   UNL     1       0.910  -1.823   1.406  0.00  0.00    -0.285 N 
ATOM     32  H   UNL     1       0.861  -2.380   0.613  0.00  0.00    +0.155 HD
BRANCH  29  34
ATOM     33  C   UNL     1      -1.138   1.194   0.537  0.00  0.00    +0.013 C 
ATOM     34  C   UNL     1      -0.471  -0.146   0.222  0.00  0.00    +0.093 C 
ENDBRANCH  29  34
ENDBRANCH  22  31
ENDBRANCH  20  26
ENDBRANCH  19  20
ENDBRANCH   1  19
TORSDOF 9
