REMARK  Name = ZINC04686616
REMARK  3 active torsions:
REMARK  status: ('A' for Active; 'I' for Inactive)
REMARK    1  A    between atoms: C_1  and  C_2
REMARK    2  A    between atoms: N_11  and  C_12
REMARK    3  A    between atoms: C_12  and  C_21
REMARK                            x       y       z     vdW  Elec       q    Type
REMARK                         _______ _______ _______ _____ _____    ______ ____
ROOT
ATOM      1  C   UNL     1      -0.018   1.505   0.010  0.00  0.00    +0.301 C 
ATOM      2  C   UNL     1       0.002  -0.004   0.002  0.00  0.00    +0.276 C 
ATOM      3  O   UNL     1      -0.956  -0.747   0.007  0.00  0.00    -0.270 OA
ATOM      4  N   UNL     1       1.329  -0.365  -0.013  0.00  0.00    -0.246 N 
ATOM      5  C   UNL     1       2.017  -1.660  -0.026  0.00  0.00    +0.127 C 
ATOM      6  C   UNL     1       3.548  -1.565  -0.040  0.00  0.00    +0.096 C 
ATOM      7  S   UNL     1       3.798   0.247  -0.033  0.00  0.00    -0.089 S 
ATOM      8  C   UNL     1       2.095   0.776  -0.014  0.00  0.00    +0.161 C 
ATOM      9  N   UNL     1       1.401   1.878  -0.001  0.00  0.00    -0.219 NA
ENDROOT
BRANCH   1  20
ATOM     10  C   UNL     1      -4.476   2.776   4.834  0.00  0.00    +0.046 C 
ATOM     11  C   UNL     1      -4.918   1.901   3.689  0.00  0.00    -0.024 A 
ATOM     12  C   UNL     1      -6.195   1.401   3.671  0.00  0.00    +0.005 A 
ATOM     13  C   UNL     1      -6.641   0.593   2.636  0.00  0.00    +0.001 A 
ATOM     14  C   UNL     1      -5.780   0.282   1.599  0.00  0.00    +0.017 A 
ATOM     15  C   UNL     1      -4.501   0.778   1.609  0.00  0.00    +0.041 A 
ATOM     16  C   UNL     1      -4.011   1.604   2.646  0.00  0.00    +0.083 A 
ATOM     17  N   UNL     1      -2.728   2.007   2.516  0.00  0.00    -0.225 NA
ATOM     18  C   UNL     1      -1.982   1.667   1.490  0.00  0.00    +0.162 A 
ATOM     19  S   UNL     1      -3.095   0.650   0.530  0.00  0.00    -0.052 S 
ATOM     20  N   UNL     1      -0.671   2.004   1.224  0.00  0.00    -0.285 N 
ATOM     21  H   UNL     1      -0.181   2.570   1.840  0.00  0.00    +0.151 HD
ENDBRANCH   1  20
BRANCH   1  22
ATOM     22  C   UNL     1      -0.724   2.039  -1.238  0.00  0.00    +0.440 C 
ATOM     23  F   UNL     1      -2.041   1.567  -1.267  0.00  0.00    -0.166 F 
ATOM     24  F   UNL     1      -0.730   3.438  -1.208  0.00  0.00    -0.166 F 
ATOM     25  F   UNL     1      -0.046   1.601  -2.380  0.00  0.00    -0.166 F 
ENDBRANCH   1  22
TORSDOF 2
