REMARK  Name = ZINC15600305
REMARK  3 active torsions:
REMARK  status: ('A' for Active; 'I' for Inactive)
REMARK    1  A    between atoms: C_3  and  C_19
REMARK    2  A    between atoms: C_6  and  N_7
REMARK    3  A    between atoms: C_8  and  C_10
REMARK                            x       y       z     vdW  Elec       q    Type
REMARK                         _______ _______ _______ _____ _____    ______ ____
ROOT
ATOM      1  N   UNL     1      -0.072   5.594   0.031  0.00  0.00    -0.281 N 
ATOM      2  C   UNL     1      -1.245   6.254  -0.056  0.00  0.00    +0.249 C 
ATOM      3  O   UNL     1      -2.292   5.636  -0.050  0.00  0.00    -0.270 OA
ATOM      4  H   UNL     1       0.758   6.090   0.103  0.00  0.00    +0.155 HD
ENDROOT
BRANCH   2   5
ATOM      5  C   UNL     1      -1.257   7.726  -0.160  0.00  0.00    +0.051 A 
ATOM      6  C   UNL     1      -0.056   8.439  -0.168  0.00  0.00    +0.017 A 
ATOM      7  C   UNL     1      -0.073   9.813  -0.265  0.00  0.00    +0.039 A 
ATOM      8  C   UNL     1      -1.280  10.490  -0.355  0.00  0.00    +0.124 A 
ATOM      9  C   UNL     1      -2.476   9.789  -0.348  0.00  0.00    +0.054 A 
ATOM     10  C   UNL     1      -2.471   8.412  -0.257  0.00  0.00    +0.033 A 
ATOM     11 BR   UNL     1      -4.103   7.457  -0.254  0.00  0.00    -0.049 Br
ATOM     12  F   UNL     1      -1.291  11.838  -0.450  0.00  0.00    -0.205 F 
ENDBRANCH   2   5
BRANCH   1  18
ATOM     13  C   UNL     1      -0.993   3.501  -0.734  0.00  0.00    +0.024 A 
ATOM     14  C   UNL     1      -0.979   2.124  -0.750  0.00  0.00    +0.022 A 
ATOM     15  C   UNL     1      -0.019   1.428  -0.009  0.00  0.00    +0.070 A 
ATOM     16  C   UNL     1       0.920   2.134   0.750  0.00  0.00    +0.060 A 
ATOM     17  C   UNL     1       0.903   3.512   0.756  0.00  0.00    +0.044 A 
ATOM     18  C   UNL     1      -0.054   4.200   0.018  0.00  0.00    +0.035 A 
ATOM     19 CL   UNL     1       2.111   1.275   1.677  0.00  0.00    -0.082 Cl
BRANCH  15  20
ATOM     20  C   UNL     1      -0.002  -0.004  -0.023  0.00  0.00    +0.101 C 
ATOM     21  N   UNL     1       0.012  -1.140  -0.035  0.00  0.00    -0.191 NA
ENDBRANCH  15  20
ENDBRANCH   1  18
TORSDOF 3
