REMARK  Name = ZINC39358459
REMARK  8 active torsions:
REMARK  status: ('A' for Active; 'I' for Inactive)
REMARK    1  A    between atoms: C_1  and  C_2
REMARK    2  A    between atoms: C_4  and  C_8
REMARK    3  A    between atoms: C_8  and  N_9
REMARK    4  A    between atoms: C_14  and  C_16
REMARK    5  A    between atoms: N_18  and  C_19
REMARK    6  A    between atoms: C_22  and  N_25
REMARK    7  A    between atoms: C_26  and  C_32
REMARK    8  A    between atoms: C_29  and  C_31
REMARK                            x       y       z     vdW  Elec       q    Type
REMARK                         _______ _______ _______ _____ _____    ______ ____
ROOT
ATOM      1  C   UNL     1      -0.503  -4.757   3.861  0.00  0.00    +0.204 C 
ATOM      2  O   UNL     1      -0.040  -3.655   4.066  0.00  0.00    -0.277 OA
ATOM      3  N   UNL     1      -0.440  -5.704   4.818  0.00  0.00    -0.287 N 
ATOM      4  H   UNL     1      -0.744  -6.606   4.629  0.00  0.00    +0.155 HD
ENDROOT
BRANCH   1  10
ATOM      5  N   UNL     1      -0.535  -4.242   1.487  0.00  0.00    +0.391 N 
ATOM      6  C   UNL     1      -1.104  -4.592   0.180  0.00  0.00    -0.077 C 
ATOM      7  C   UNL     1      -2.601  -4.274   0.170  0.00  0.00    -0.019 C 
ATOM      8  C   UNL     1      -3.298  -5.085   1.265  0.00  0.00    -0.003 C 
ATOM      9  C   UNL     1      -2.647  -4.768   2.615  0.00  0.00    -0.006 C 
ATOM     10  C   UNL     1      -1.148  -5.068   2.535  0.00  0.00    +0.020 C 
ATOM     11  H   UNL     1      -0.715  -3.268   1.680  0.00  0.00    -0.080 HD
BRANCH   5  12
ATOM     12  C   UNL     1       0.915  -4.477   1.467  0.00  0.00    -0.020 C 
BRANCH  12  16
ATOM     13  C   UNL     1       3.307  -0.433  -0.496  0.00  0.00    +0.065 C 
ATOM     14  C   UNL     1       2.609  -1.761  -0.357  0.00  0.00    +0.033 A 
ATOM     15  C   UNL     1       2.138  -2.298   0.792  0.00  0.00    +0.045 A 
ATOM     16  C   UNL     1       1.562  -3.535   0.485  0.00  0.00    +0.047 A 
ATOM     17  N   UNL     1       1.684  -3.734  -0.803  0.00  0.00    -0.181 NA
ATOM     18  H   UNL     1       2.557  -2.502  -2.293  0.00  0.00    +0.188 HD
ATOM     19  N   UNL     1       2.337  -2.625  -1.357  0.00  0.00    -0.282 N 
ENDBRANCH  12  16
ENDBRANCH   5  12
ENDBRANCH   1  10
BRANCH   3  20
ATOM     20  C   UNL     1       0.064  -5.385   6.086  0.00  0.00    +0.033 A 
ATOM     21  C   UNL     1      -0.137  -4.117   6.615  0.00  0.00    +0.025 A 
ATOM     22  C   UNL     1       0.359  -3.803   7.864  0.00  0.00    +0.026 A 
ATOM     23  C   UNL     1       1.059  -4.756   8.593  0.00  0.00    +0.048 A 
ATOM     24  C   UNL     1       1.259  -6.025   8.064  0.00  0.00    +0.026 A 
ATOM     25  C   UNL     1       0.759  -6.340   6.817  0.00  0.00    +0.025 A 
BRANCH  23  26
ATOM     26  N   UNL     1       1.562  -4.438   9.859  0.00  0.00    -0.247 N 
ATOM     27  C   UNL     1       2.327  -5.319  10.758  0.00  0.00    +0.115 C 
ATOM     28  C   UNL     1       2.609  -4.465  11.975  0.00  0.00    +0.016 C 
ATOM     29  C   UNL     1       2.071  -3.283  11.763  0.00  0.00    +0.017 C 
ATOM     30  N   UNL     1       1.449  -3.213  10.531  0.00  0.00    -0.268 N 
ATOM     31  C   UNL     1       2.132  -2.140  12.744  0.00  0.00    +0.062 C 
ATOM     32  C   UNL     1       1.492  -6.542  11.144  0.00  0.00    +0.034 C 
ATOM     33  H   UNL     1       0.997  -2.429  10.183  0.00  0.00    +0.170 HD
ENDBRANCH  23  26
ENDBRANCH   3  20
TORSDOF 5
