REMARK  Name = ZINC06546668
REMARK  13 active torsions:
REMARK  status: ('A' for Active; 'I' for Inactive)
REMARK    1  A    between atoms: C_1  and  C_2
REMARK    2  A    between atoms: C_2  and  O_3
REMARK    3  A    between atoms: O_3  and  C_4
REMARK    4  A    between atoms: C_4  and  C_6
REMARK    5  A    between atoms: C_6  and  N_7
REMARK    6  A    between atoms: C_8  and  C_10
REMARK    7  A    between atoms: C_10  and  C_12
REMARK    8  A    between atoms: C_10  and  N_19
REMARK    9  A    between atoms: N_19  and  C_20
REMARK   10  A    between atoms: C_23  and  C_26
REMARK   11  A    between atoms: C_27  and  C_29
REMARK   12  A    between atoms: C_30  and  N_37
REMARK   13  A    between atoms: C_31  and  C_34
REMARK                            x       y       z     vdW  Elec       q    Type
REMARK                         _______ _______ _______ _____ _____    ______ ____
ROOT
ATOM      1  N   UNL     1      -1.367   3.348   1.024  0.00  0.00    -0.251 N 
ATOM      2  C   UNL     1      -1.819   3.025   2.253  0.00  0.00    +0.262 C 
ATOM      3  O   UNL     1      -2.394   1.967   2.431  0.00  0.00    -0.269 OA
ENDROOT
BRANCH   1   4
ATOM      4  C   UNL     1      -0.610   4.508   0.840  0.00  0.00    +0.038 A 
ATOM      5  C   UNL     1       0.769   4.424   0.697  0.00  0.00    +0.024 A 
ATOM      6  C   UNL     1       1.514   5.572   0.511  0.00  0.00    +0.005 A 
ATOM      7  C   UNL     1       0.890   6.805   0.477  0.00  0.00    -0.050 A 
ATOM      8  C   UNL     1      -0.482   6.893   0.624  0.00  0.00    +0.005 A 
ATOM      9  C   UNL     1      -1.234   5.749   0.805  0.00  0.00    +0.024 A 
ATOM     10  C   UNL     1       1.707   8.056   0.278  0.00  0.00    +0.044 C 
ENDBRANCH   1   4
BRANCH   2  11
ATOM     11  C   UNL     1      -1.616   3.946   3.372  0.00  0.00    +0.116 A 
ATOM     12  C   UNL     1      -2.101   3.871   4.679  0.00  0.00    +0.076 A 
ATOM     13  C   UNL     1      -1.687   4.947   5.465  0.00  0.00    +0.155 A 
ATOM     14  N   UNL     1      -0.931   5.881   4.931  0.00  0.00    -0.203 NA
ATOM     15  S   UNL     1      -0.692   5.468   3.429  0.00  0.00    +0.019 S 
BRANCH  13  16
ATOM     16  C   UNL     1      -2.097   5.038   6.878  0.00  0.00    +0.262 C 
ATOM     17  O   UNL     1      -2.796   4.170   7.366  0.00  0.00    -0.269 OA
ATOM     18  N   UNL     1      -1.697   6.083   7.630  0.00  0.00    -0.324 N 
ATOM     19  H   UNL     1      -1.139   6.775   7.241  0.00  0.00    +0.145 HD
ATOM     20  H   UNL     1      -1.967   6.143   8.560  0.00  0.00    +0.145 HD
ENDBRANCH  13  16
BRANCH  12  21
ATOM     21  N   UNL     1      -2.903   2.839   5.146  0.00  0.00    -0.355 N 
ATOM     22  H   UNL     1      -3.157   2.115   4.552  0.00  0.00    +0.142 HD
ATOM     23  H   UNL     1      -3.210   2.841   6.066  0.00  0.00    +0.142 HD
ENDBRANCH  12  21
ENDBRANCH   2  11
BRANCH   1  24
ATOM     24  C   UNL     1      -1.671   2.482  -0.118  0.00  0.00    +0.197 C 
BRANCH  24  25
ATOM     25  C   UNL     1      -0.920   2.968  -1.331  0.00  0.00    -0.018 A 
ATOM     26  C   UNL     1      -1.116   4.256  -1.794  0.00  0.00    +0.009 A 
ATOM     27  C   UNL     1      -0.432   4.701  -2.909  0.00  0.00    +0.038 A 
ATOM     28  C   UNL     1       0.451   3.857  -3.562  0.00  0.00    +0.123 A 
ATOM     29  C   UNL     1       0.647   2.568  -3.097  0.00  0.00    +0.038 A 
ATOM     30  C   UNL     1      -0.039   2.125  -1.981  0.00  0.00    +0.009 A 
ATOM     31  F   UNL     1       1.121   4.291  -4.652  0.00  0.00    -0.205 F 
ENDBRANCH  24  25
BRANCH  24  33
ATOM     32  N   UNL     1      -3.665   1.794  -1.410  0.00  0.00    -0.303 N 
ATOM     33  C   UNL     1      -3.152   2.519  -0.397  0.00  0.00    +0.239 C 
ATOM     34  O   UNL     1      -3.881   3.201   0.291  0.00  0.00    -0.273 OA
ATOM     35  H   UNL     1      -3.082   1.249  -1.961  0.00  0.00    +0.149 HD
BRANCH  32  36
ATOM     36  C   UNL     1      -5.104   1.830  -1.681  0.00  0.00    +0.225 C 
BRANCH  36  37
ATOM     37  C   UNL     1      -5.417   0.940  -2.856  0.00  0.00    +0.324 C 
ATOM     38  O   UNL     1      -4.528   0.337  -3.411  0.00  0.00    -0.249 OA
BRANCH  37  39
ATOM     39  O   UNL     1      -6.682   0.816  -3.287  0.00  0.00    -0.464 OA
BRANCH  39  41
ATOM     40  C   UNL     1      -8.400  -0.072  -4.767  0.00  0.00    +0.048 C 
ATOM     41  C   UNL     1      -6.909  -0.058  -4.424  0.00  0.00    +0.229 C 
ENDBRANCH  39  41
ENDBRANCH  37  39
ENDBRANCH  36  37
ENDBRANCH  32  36
ENDBRANCH  24  33
ENDBRANCH   1  24
TORSDOF 11
