REMARK  Name = ZINC03287650
REMARK  3 active torsions:
REMARK  status: ('A' for Active; 'I' for Inactive)
REMARK    1  A    between atoms: N_13  and  C_17
REMARK    2  A    between atoms: C_17  and  C_18
REMARK    3  A    between atoms: N_20  and  C_21
REMARK                            x       y       z     vdW  Elec       q    Type
REMARK                         _______ _______ _______ _____ _____    ______ ____
ROOT
ATOM      1  C   UNL     1       0.041   1.387  -0.018  0.00  0.00    +0.000 A 
ATOM      2  C   UNL     1       1.237   2.081  -0.026  0.00  0.00    +0.000 A 
ATOM      3  C   UNL     1       2.430   1.389  -0.041  0.00  0.00    +0.004 A 
ATOM      4  C   UNL     1       2.440   0.000  -0.046  0.00  0.00    -0.042 A 
ATOM      5  C   UNL     1       1.250  -0.692  -0.032  0.00  0.00    -0.044 A 
ATOM      6  C   UNL     1       0.050   0.008  -0.021  0.00  0.00    +0.004 A 
ATOM      7  C   UNL     1       1.182  -2.196  -0.017  0.00  0.00    +0.038 C 
ATOM      8  C   UNL     1       2.512  -2.802  -0.462  0.00  0.00    +0.040 C 
ATOM      9  C   UNL     1       3.635  -2.149   0.340  0.00  0.00    +0.117 C 
ATOM     10  C   UNL     1       3.779  -0.691  -0.071  0.00  0.00    +0.070 C 
ATOM     11  C   UNL     1       3.361  -2.263   1.822  0.00  0.00    +0.247 C 
ATOM     12  O   UNL     1       2.417  -1.808   2.431  0.00  0.00    -0.273 OA
ATOM     13  N   UNL     1       4.390  -2.979   2.322  0.00  0.00    -0.215 N 
ATOM     14  C   UNL     1       5.261  -3.325   1.367  0.00  0.00    +0.310 C 
ATOM     15  O   UNL     1       6.268  -3.973   1.573  0.00  0.00    -0.252 OA
ATOM     16  N   UNL     1       4.896  -2.875   0.151  0.00  0.00    -0.285 N 
ATOM     17  H   UNL     1       5.372  -3.005  -0.684  0.00  0.00    +0.151 HD
ENDROOT
BRANCH  13  18
ATOM     18  C   UNL     1       4.535  -3.333   3.737  0.00  0.00    +0.214 C 
BRANCH  18  19
ATOM     19  C   UNL     1       3.859  -4.654   3.996  0.00  0.00    +0.235 C 
ATOM     20  O   UNL     1       3.310  -5.243   3.088  0.00  0.00    -0.274 OA
ATOM     21  N   UNL     1       3.865  -5.182   5.236  0.00  0.00    -0.282 N 
ATOM     22  H   UNL     1       4.358  -4.745   5.947  0.00  0.00    +0.155 HD
BRANCH  21  23
ATOM     23  C   UNL     1       3.158  -6.363   5.497  0.00  0.00    +0.069 A 
ATOM     24  C   UNL     1       3.069  -7.350   4.525  0.00  0.00    +0.027 A 
ATOM     25  C   UNL     1       2.372  -8.514   4.786  0.00  0.00    +0.022 A 
ATOM     26  C   UNL     1       1.762  -8.698   6.014  0.00  0.00    +0.044 A 
ATOM     27  C   UNL     1       1.849  -7.717   6.986  0.00  0.00    +0.060 A 
ATOM     28  C   UNL     1       2.550  -6.552   6.734  0.00  0.00    +0.146 A 
ATOM     29  F   UNL     1       2.640  -5.596   7.684  0.00  0.00    -0.203 F 
ATOM     30 CL   UNL     1       0.886 -10.162   6.337  0.00  0.00    -0.083 Cl
ENDBRANCH  21  23
ENDBRANCH  18  19
ENDBRANCH  13  18
TORSDOF 3
