REMARK  Name = ZINC65301145
REMARK  5 active torsions:
REMARK  status: ('A' for Active; 'I' for Inactive)
REMARK    1  A    between atoms: C_1  and  C_2
REMARK    2  A    between atoms: C_4  and  N_19
REMARK    3  A    between atoms: C_5  and  C_11
REMARK    4  A    between atoms: C_22  and  C_25
REMARK    5  A    between atoms: N_27  and  C_28
REMARK                            x       y       z     vdW  Elec       q    Type
REMARK                         _______ _______ _______ _____ _____    ______ ____
ROOT
ATOM      1  C   UNL     1       1.386   1.896  -0.716  0.00  0.00    +0.067 C 
ATOM      2  C   UNL     1       1.186   0.418  -0.494  0.00  0.00    +0.058 A 
ATOM      3  C   UNL     1       0.535  -0.350  -1.474  0.00  0.00    +0.050 A 
ATOM      4  C   UNL     1      -0.011   0.027  -2.729  0.00  0.00    +0.055 A 
ATOM      5  C   UNL     1      -0.614  -0.962  -3.519  0.00  0.00    +0.074 A 
ATOM      6  C   UNL     1      -0.664  -2.286  -3.062  0.00  0.00    +0.098 A 
ATOM      7  N   UNL     1      -0.151  -2.610  -1.895  0.00  0.00    -0.353 N 
ATOM      8  C   UNL     1       0.425  -1.714  -1.120  0.00  0.00    +0.107 A 
ATOM      9  S   UNL     1       1.212  -1.751   0.471  0.00  0.00    +0.030 S 
ATOM     10  N   UNL     1       1.622  -0.131   0.598  0.00  0.00    -0.213 NA
ATOM     11  H   UNL     1      -0.197  -3.532  -1.598  0.00  0.00    +0.166 HD
ENDROOT
BRANCH   5  12
ATOM     12  C   UNL     1      -1.192  -0.611  -4.826  0.00  0.00    +0.250 C 
ATOM     13  O   UNL     1      -0.499  -0.086  -5.676  0.00  0.00    -0.270 OA
ATOM     14  N   UNL     1      -2.490  -0.872  -5.080  0.00  0.00    -0.297 N 
ATOM     15  C   UNL     1      -3.323  -1.565  -4.088  0.00  0.00    +0.108 C 
ATOM     16  C   UNL     1      -4.574  -0.723  -3.820  0.00  0.00    +0.019 C 
ATOM     17  C   UNL     1      -5.284  -0.436  -5.145  0.00  0.00    +0.003 C 
ATOM     18  C   UNL     1      -4.353   0.361  -6.062  0.00  0.00    +0.019 C 
ATOM     19  C   UNL     1      -3.100  -0.463  -6.353  0.00  0.00    +0.108 C 
ENDBRANCH   5  12
BRANCH   4  20
ATOM     20  N   UNL     1       0.048   1.336  -3.161  0.00  0.00    -0.329 N 
ATOM     21  C   UNL     1      -1.105   2.232  -2.997  0.00  0.00    +0.106 C 
ATOM     22  C   UNL     1      -1.452   2.844  -4.357  0.00  0.00    +0.031 C 
ATOM     23  C   UNL     1      -0.209   3.521  -4.939  0.00  0.00    +0.078 C 
ATOM     24  C   UNL     1       0.892   2.478  -5.146  0.00  0.00    +0.031 C 
ATOM     25  C   UNL     1       1.267   1.863  -3.789  0.00  0.00    +0.106 C 
BRANCH  23  26
ATOM     26  C   UNL     1      -0.555   4.154  -6.263  0.00  0.00    +0.220 C 
ATOM     27  O   UNL     1      -1.684   4.072  -6.697  0.00  0.00    -0.275 OA
ATOM     28  N   UNL     1       0.391   4.811  -6.963  0.00  0.00    -0.284 N 
ATOM     29  H   UNL     1       1.306   4.830  -6.643  0.00  0.00    +0.155 HD
BRANCH  28  30
ATOM     30  C   UNL     1       0.052   5.466  -8.154  0.00  0.00    +0.052 A 
ATOM     31  C   UNL     1      -0.993   4.992  -8.935  0.00  0.00    +0.027 A 
ATOM     32  C   UNL     1      -1.325   5.639 -10.109  0.00  0.00    +0.040 A 
ATOM     33  C   UNL     1      -0.618   6.762 -10.507  0.00  0.00    +0.125 A 
ATOM     34  C   UNL     1       0.424   7.237  -9.729  0.00  0.00    +0.060 A 
ATOM     35  C   UNL     1       0.757   6.596  -8.551  0.00  0.00    +0.065 A 
ATOM     36 CL   UNL     1       2.059   7.196  -7.572  0.00  0.00    -0.082 Cl
ATOM     37  F   UNL     1      -0.946   7.393 -11.655  0.00  0.00    -0.205 F 
ENDBRANCH  28  30
ENDBRANCH  23  26
ENDBRANCH   4  20
TORSDOF 4
