REMARK  Name = ZINC15424347
REMARK  6 active torsions:
REMARK  status: ('A' for Active; 'I' for Inactive)
REMARK    1  A    between atoms: C_1  and  C_2
REMARK    2  A    between atoms: C_10  and  C_15
REMARK    3  A    between atoms: C_18  and  O_23
REMARK    4  A    between atoms: C_19  and  O_21
REMARK    5  A    between atoms: O_21  and  C_22
REMARK    6  A    between atoms: O_23  and  C_24
REMARK                            x       y       z     vdW  Elec       q    Type
REMARK                         _______ _______ _______ _____ _____    ______ ____
ROOT
ATOM      1  C   UNL     1      -1.283  -0.791   0.011  0.00  0.00    +0.066 C 
ATOM      2  C   UNL     1       0.002  -0.004   0.002  0.00  0.00    +0.054 A 
ATOM      3  C   UNL     1       1.225  -0.635  -0.261  0.00  0.00    +0.060 A 
ATOM      4  C   UNL     1       2.397   0.130  -0.262  0.00  0.00    +0.058 A 
ATOM      5  N   UNL     1       2.306   1.424  -0.011  0.00  0.00    -0.219 NA
ATOM      6  C   UNL     1       1.131   1.988   0.234  0.00  0.00    +0.213 A 
ATOM      7  N   UNL     1      -0.001   1.295   0.241  0.00  0.00    -0.219 NA
ATOM      8  N   UNL     1       1.083   3.342   0.490  0.00  0.00    -0.327 N 
ATOM      9  C   UNL     1       3.739  -0.486  -0.542  0.00  0.00    +0.065 C 
ATOM     10  C   UNL     1       3.724  -1.988  -0.266  0.00  0.00    +0.032 C 
ATOM     11  C   UNL     1       2.585  -2.643  -1.056  0.00  0.00    +0.088 C 
ATOM     12  C   UNL     1       1.281  -2.079  -0.528  0.00  0.00    +0.167 C 
ATOM     13  O   UNL     1       0.320  -2.793  -0.332  0.00  0.00    -0.292 OA
ATOM     14  H   UNL     1       0.232   3.771   0.670  0.00  0.00    +0.145 HD
ATOM     15  H   UNL     1       1.900   3.865   0.489  0.00  0.00    +0.145 HD
ENDROOT
BRANCH  10  16
ATOM     16  C   UNL     1       5.040  -2.589  -0.689  0.00  0.00    -0.040 A 
ATOM     17  C   UNL     1       5.447  -2.500  -2.007  0.00  0.00    +0.008 A 
ATOM     18  C   UNL     1       6.655  -3.045  -2.399  0.00  0.00    +0.049 A 
ATOM     19  C   UNL     1       7.457  -3.692  -1.472  0.00  0.00    +0.161 A 
ATOM     20  C   UNL     1       7.045  -3.786  -0.146  0.00  0.00    +0.162 A 
ATOM     21  C   UNL     1       5.835  -3.233   0.241  0.00  0.00    +0.053 A 
BRANCH  20  22
ATOM     22  O   UNL     1       7.828  -4.420   0.767  0.00  0.00    -0.491 OA
ATOM     23  C   UNL     1       7.341  -4.479   2.109  0.00  0.00    +0.277 C 
ENDBRANCH  20  22
BRANCH  19  24
ATOM     24  O   UNL     1       8.643  -4.234  -1.857  0.00  0.00    -0.491 OA
ATOM     25  C   UNL     1       9.001  -4.099  -3.234  0.00  0.00    +0.277 C 
ENDBRANCH  19  24
ENDBRANCH  10  16
TORSDOF 3
