REMARK  Name = ZINC16958212
REMARK  11 active torsions:
REMARK  status: ('A' for Active; 'I' for Inactive)
REMARK    1  A    between atoms: C_2  and  C_36
REMARK    2  A    between atoms: C_8  and  O_12
REMARK    3  A    between atoms: C_15  and  C_18
REMARK    4  A    between atoms: C_18  and  O_19
REMARK    5  A    between atoms: O_19  and  C_20
REMARK    6  A    between atoms: C_22  and  O_35
REMARK    7  A    between atoms: C_24  and  O_34
REMARK    8  A    between atoms: C_26  and  O_33
REMARK    9  A    between atoms: C_28  and  C_31
REMARK   10  A    between atoms: C_31  and  O_32
REMARK   11  A    between atoms: C_36  and  O_37
REMARK                            x       y       z     vdW  Elec       q    Type
REMARK                         _______ _______ _______ _____ _____    ______ ____
ROOT
ATOM      1  C   UNL     1      -1.238   1.940   0.018  0.00  0.00    +0.095 A 
ATOM      2  C   UNL     1      -1.214   3.283   0.036  0.00  0.00    +0.135 A 
ATOM      3  O   UNL     1      -0.078   3.990   0.038  0.00  0.00    -0.457 OA
ATOM      4  C   UNL     1       1.136   3.402   0.026  0.00  0.00    +0.149 A 
ATOM      5  C   UNL     1       2.299   4.154   0.041  0.00  0.00    +0.041 A 
ATOM      6  C   UNL     1       3.535   3.551   0.039  0.00  0.00    +0.131 A 
ATOM      7  C   UNL     1       3.630   2.157  -0.024  0.00  0.00    +0.092 A 
ATOM      8  C   UNL     1       2.487   1.382  -0.043  0.00  0.00    +0.135 A 
ATOM      9  C   UNL     1       1.230   1.999   0.001  0.00  0.00    +0.106 A 
ATOM     10  C   UNL     1      -0.015   1.216   0.009  0.00  0.00    +0.196 A 
ATOM     11  O   UNL     1       0.002  -0.004   0.002  0.00  0.00    -0.287 OA
ATOM     12  O   UNL     1       4.671   4.274   0.136  0.00  0.00    -0.487 OA
ATOM     13  C   UNL     1       4.976   4.897   1.369  0.00  0.00    +0.262 C 
ATOM     14  C   UNL     1       4.007   5.972   1.728  0.00  0.00    -0.011 C 
ATOM     15  C   UNL     1       2.873   6.264   1.218  0.00  0.00    -0.017 C 
ATOM     16  C   UNL     1       2.232   5.660   0.013  0.00  0.00    +0.070 C 
ENDROOT
BRANCH   8  17
ATOM     17  O   UNL     1       2.581   0.030  -0.103  0.00  0.00    -0.506 OA
ATOM     18  H   UNL     1       2.596  -0.324  -1.003  0.00  0.00    +0.292 HD
ENDBRANCH   8  17
BRANCH  14  19
ATOM     19  C   UNL     1       4.434   6.854   2.874  0.00  0.00    +0.197 C 
BRANCH  19  20
ATOM     20  O   UNL     1       3.427   7.838   3.118  0.00  0.00    -0.344 OA
BRANCH  20  21
ATOM     21  C   UNL     1       3.734   8.730   4.191  0.00  0.00    +0.282 C 
ATOM     22  C   UNL     1       2.653   9.810   4.282  0.00  0.00    +0.201 C 
ATOM     23  C   UNL     1       2.957  10.727   5.471  0.00  0.00    +0.179 C 
ATOM     24  C   UNL     1       3.043   9.881   6.745  0.00  0.00    +0.177 C 
ATOM     25  C   UNL     1       4.109   8.798   6.559  0.00  0.00    +0.178 C 
ATOM     26  O   UNL     1       3.782   8.001   5.419  0.00  0.00    -0.341 OA
BRANCH  24  27
ATOM     27  O   UNL     1       3.397  10.715   7.851  0.00  0.00    -0.386 OA
ATOM     28  H   UNL     1       2.765  11.424   8.027  0.00  0.00    +0.210 HD
ENDBRANCH  24  27
BRANCH  23  29
ATOM     29  O   UNL     1       1.916  11.695   5.609  0.00  0.00    -0.386 OA
ATOM     30  H   UNL     1       1.805  12.267   4.838  0.00  0.00    +0.210 HD
ENDBRANCH  23  29
BRANCH  22  31
ATOM     31  O   UNL     1       2.643  10.579   3.077  0.00  0.00    -0.384 OA
ATOM     32  H   UNL     1       2.461  10.060   2.282  0.00  0.00    +0.210 HD
ENDBRANCH  22  31
BRANCH  25  33
ATOM     33  C   UNL     1       4.159   7.911   7.804  0.00  0.00    +0.190 C 
BRANCH  33  34
ATOM     34  O   UNL     1       5.230   6.974   7.679  0.00  0.00    -0.392 OA
ATOM     35  H   UNL     1       5.321   6.377   8.435  0.00  0.00    +0.210 HD
ENDBRANCH  33  34
ENDBRANCH  25  33
ENDBRANCH  20  21
ENDBRANCH  19  20
ENDBRANCH  14  19
BRANCH   2  36
ATOM     36  C   UNL     1      -2.525   4.027   0.049  0.00  0.00    +0.230 C 
BRANCH  36  37
ATOM     37  O   UNL     1      -2.933   4.250   1.400  0.00  0.00    -0.387 OA
ATOM     38  H   UNL     1      -3.771   4.726   1.484  0.00  0.00    +0.210 HD
ENDBRANCH  36  37
ENDBRANCH   2  36
TORSDOF 11
