REMARK  Name = ZINC07988713
REMARK  11 active torsions:
REMARK  status: ('A' for Active; 'I' for Inactive)
REMARK    1  A    between atoms: C_1  and  C_2
REMARK    2  A    between atoms: C_2  and  N_3
REMARK    3  A    between atoms: N_3  and  C_4
REMARK    4  A    between atoms: C_4  and  C_5
REMARK    5  A    between atoms: C_6  and  C_8
REMARK    6  A    between atoms: C_11  and  N_14
REMARK    7  A    between atoms: C_15  and  C_17
REMARK    8  A    between atoms: C_17  and  N_18
REMARK    9  A    between atoms: N_18  and  C_19
REMARK   10  A    between atoms: C_19  and  C_21
REMARK   11  A    between atoms: C_19  and  C_22
REMARK                            x       y       z     vdW  Elec       q    Type
REMARK                         _______ _______ _______ _____ _____    ______ ____
ROOT
ATOM      1  N   UNL     1      -5.429   2.533  -2.895  0.00  0.00    -0.287 N 
ATOM      2  C   UNL     1      -6.230   2.226  -3.935  0.00  0.00    +0.200 C 
ATOM      3  O   UNL     1      -5.954   1.292  -4.657  0.00  0.00    -0.278 OA
ATOM      4  H   UNL     1      -5.684   3.237  -2.278  0.00  0.00    +0.155 HD
ENDROOT
BRANCH   1   8
ATOM      5  C   UNL     1      -1.859   0.463  -2.332  0.00  0.00    +0.037 A 
ATOM      6  C   UNL     1      -2.340   0.690  -3.624  0.00  0.00    +0.015 A 
ATOM      7  C   UNL     1      -3.521   1.375  -3.807  0.00  0.00    +0.024 A 
ATOM      8  C   UNL     1      -4.234   1.840  -2.707  0.00  0.00    +0.033 A 
ATOM      9  C   UNL     1      -3.758   1.615  -1.419  0.00  0.00    +0.024 A 
ATOM     10  C   UNL     1      -2.581   0.926  -1.229  0.00  0.00    +0.015 A 
BRANCH   5  12
ATOM     11  N   UNL     1       0.492   0.047  -2.865  0.00  0.00    -0.298 N 
ATOM     12  C   UNL     1      -0.594  -0.271  -2.133  0.00  0.00    +0.247 C 
ATOM     13  O   UNL     1      -0.531  -1.163  -1.309  0.00  0.00    -0.270 OA
BRANCH  11  15
ATOM     14  C   UNL     1       2.640  -0.031  -1.697  0.00  0.00    +0.024 C 
ATOM     15  C   UNL     1       1.729  -0.723  -2.713  0.00  0.00    +0.104 C 
ENDBRANCH  11  15
BRANCH  11  16
ATOM     16  C   UNL     1       0.436   1.164  -3.811  0.00  0.00    +0.104 C 
ATOM     17  C   UNL     1       0.225   0.622  -5.227  0.00  0.00    +0.024 C 
ENDBRANCH  11  16
ENDBRANCH   5  12
ENDBRANCH   1   8
BRANCH   2  18
ATOM     18  C   UNL     1      -7.468   3.043  -4.199  0.00  0.00    +0.016 C 
BRANCH  18  19
ATOM     19  N   UNL     1      -8.164   2.510  -5.378  0.00  0.00    +0.389 N 
ATOM     20  H   UNL     1      -7.552   2.557  -6.179  0.00  0.00    -0.084 HD
ATOM     21  H   UNL     1      -8.424   1.550  -5.210  0.00  0.00    -0.084 HD
BRANCH  19  22
ATOM     22  C   UNL     1      -9.371   3.307  -5.636  0.00  0.00    -0.043 C 
ATOM     23  C   UNL     1     -10.353   3.135  -4.475  0.00  0.00    -0.009 C 
BRANCH  22  24
ATOM     24  C   UNL     1     -10.018   2.839  -6.914  0.00  0.00    -0.054 A 
ATOM     25  C   UNL     1      -9.820   1.567  -7.356  0.00  0.00    +0.002 A 
ATOM     26  C   UNL     1     -10.409   1.116  -8.535  0.00  0.00    +0.001 A 
ATOM     27  C   UNL     1     -11.200   1.936  -9.280  0.00  0.00    +0.008 A 
ATOM     28  C   UNL     1     -11.428   3.256  -8.857  0.00  0.00    -0.018 A 
ATOM     29  C   UNL     1     -10.833   3.712  -7.654  0.00  0.00    -0.016 A 
ATOM     30  C   UNL     1     -11.066   5.031  -7.227  0.00  0.00    +0.009 A 
ATOM     31  C   UNL     1     -11.861   5.848  -7.969  0.00  0.00    +0.001 A 
ATOM     32  C   UNL     1     -12.452   5.398  -9.149  0.00  0.00    +0.001 A 
ATOM     33  C   UNL     1     -12.238   4.132  -9.600  0.00  0.00    +0.008 A 
ENDBRANCH  22  24
ENDBRANCH  19  22
ENDBRANCH  18  19
ENDBRANCH   2  18
TORSDOF 8
