REMARK  Name = ZINC12479574
REMARK  15 active torsions:
REMARK  status: ('A' for Active; 'I' for Inactive)
REMARK    1  A    between atoms: C_1  and  C_2
REMARK    2  A    between atoms: C_5  and  C_8
REMARK    3  A    between atoms: C_8  and  C_10
REMARK    4  A    between atoms: C_8  and  N_18
REMARK    5  A    between atoms: N_12  and  C_13
REMARK    6  A    between atoms: C_13  and  C_14
REMARK    7  A    between atoms: C_14  and  C_15
REMARK    8  A    between atoms: C_15  and  C_16
REMARK    9  A    between atoms: C_15  and  C_17
REMARK   10  A    between atoms: N_18  and  C_19
REMARK   11  A    between atoms: C_22  and  C_26
REMARK   12  A    between atoms: C_24  and  C_25
REMARK   13  A    between atoms: C_27  and  C_29
REMARK   14  A    between atoms: C_30  and  N_37
REMARK   15  A    between atoms: C_31  and  C_34
REMARK                            x       y       z     vdW  Elec       q    Type
REMARK                         _______ _______ _______ _____ _____    ______ ____
ROOT
ATOM      1  N   UNL     1       3.392   1.666  -1.003  0.00  0.00    -0.251 N 
ATOM      2  C   UNL     1       4.542   1.056  -1.352  0.00  0.00    +0.262 C 
ATOM      3  O   UNL     1       4.847  -0.006  -0.842  0.00  0.00    -0.269 OA
ENDROOT
BRANCH   1   4
ATOM      4  C   UNL     1       3.042   2.886  -1.590  0.00  0.00    +0.041 A 
ATOM      5  C   UNL     1       3.516   4.077  -1.054  0.00  0.00    +0.024 A 
ATOM      6  C   UNL     1       3.172   5.280  -1.639  0.00  0.00    +0.005 A 
ATOM      7  C   UNL     1       2.348   5.301  -2.749  0.00  0.00    -0.050 A 
ATOM      8  C   UNL     1       1.870   4.118  -3.281  0.00  0.00    +0.008 A 
ATOM      9  C   UNL     1       2.215   2.911  -2.705  0.00  0.00    -0.029 A 
ATOM     10  C   UNL     1       1.693   1.622  -3.286  0.00  0.00    +0.045 C 
ATOM     11  C   UNL     1       1.970   6.616  -3.380  0.00  0.00    +0.044 C 
ENDBRANCH   1   4
BRANCH   2  12
ATOM     12  C   UNL     1       5.425   1.671  -2.345  0.00  0.00    +0.116 A 
ATOM     13  C   UNL     1       6.647   1.217  -2.845  0.00  0.00    +0.076 A 
ATOM     14  C   UNL     1       7.194   2.087  -3.788  0.00  0.00    +0.155 A 
ATOM     15  N   UNL     1       6.547   3.188  -4.100  0.00  0.00    -0.203 NA
ATOM     16  S   UNL     1       5.224   3.196  -3.243  0.00  0.00    +0.019 S 
BRANCH  14  17
ATOM     17  C   UNL     1       8.485   1.774  -4.428  0.00  0.00    +0.262 C 
ATOM     18  O   UNL     1       9.079   0.754  -4.135  0.00  0.00    -0.269 OA
ATOM     19  N   UNL     1       9.008   2.620  -5.339  0.00  0.00    -0.324 N 
ATOM     20  H   UNL     1       8.534   3.433  -5.573  0.00  0.00    +0.145 HD
ATOM     21  H   UNL     1       9.857   2.414  -5.760  0.00  0.00    +0.145 HD
ENDBRANCH  14  17
BRANCH  13  22
ATOM     22  N   UNL     1       7.250   0.031  -2.447  0.00  0.00    -0.355 N 
ATOM     23  H   UNL     1       6.821  -0.533  -1.785  0.00  0.00    +0.142 HD
ATOM     24  H   UNL     1       8.101  -0.232  -2.831  0.00  0.00    +0.142 HD
ENDBRANCH  13  22
ENDBRANCH   2  12
BRANCH   1  25
ATOM     25  C   UNL     1       2.508   1.050  -0.010  0.00  0.00    +0.197 C 
BRANCH  25  30
ATOM     26  C   UNL     1      -2.378   4.110   0.381  0.00  0.00    +0.044 C 
ATOM     27  C   UNL     1      -1.104   3.312   0.279  0.00  0.00    -0.050 A 
ATOM     28  C   UNL     1      -1.146   1.992  -0.130  0.00  0.00    +0.004 A 
ATOM     29  C   UNL     1       0.023   1.259  -0.219  0.00  0.00    +0.006 A 
ATOM     30  C   UNL     1       1.234   1.848   0.092  0.00  0.00    -0.018 A 
ATOM     31  C   UNL     1       1.276   3.169   0.497  0.00  0.00    +0.006 A 
ATOM     32  C   UNL     1       0.107   3.901   0.590  0.00  0.00    +0.004 A 
ENDBRANCH  25  30
BRANCH  25  33
ATOM     33  C   UNL     1       3.197   1.030   1.330  0.00  0.00    +0.238 C 
ATOM     34  O   UNL     1       4.315   1.484   1.445  0.00  0.00    -0.273 OA
ATOM     35  N   UNL     1       2.569   0.506   2.402  0.00  0.00    -0.313 N 
ATOM     36  H   UNL     1       1.675   0.142   2.311  0.00  0.00    +0.149 HD
BRANCH  35  37
ATOM     37  C   UNL     1       3.239   0.486   3.705  0.00  0.00    +0.104 C 
BRANCH  37  38
ATOM     38  C   UNL     1       2.316  -0.157   4.742  0.00  0.00    +0.022 C 
BRANCH  38  39
ATOM     39  C   UNL     1       3.015  -0.178   6.103  0.00  0.00    -0.016 C 
ATOM     40  C   UNL     1       3.231   1.257   6.588  0.00  0.00    +0.007 C 
ATOM     41  C   UNL     1       2.145  -0.931   7.112  0.00  0.00    +0.007 C 
ENDBRANCH  38  39
ENDBRANCH  37  38
ENDBRANCH  35  37
ENDBRANCH  25  33
ENDBRANCH   1  25
TORSDOF 10
