REMARK  Name = ZINC13426447
REMARK  7 active torsions:
REMARK  status: ('A' for Active; 'I' for Inactive)
REMARK    1  A    between atoms: C_1  and  C_2
REMARK    2  A    between atoms: C_4  and  N_20
REMARK    3  A    between atoms: C_6  and  C_7
REMARK    4  A    between atoms: N_9  and  C_10
REMARK    5  A    between atoms: C_12  and  C_18
REMARK    6  A    between atoms: C_14  and  C_16
REMARK    7  A    between atoms: C_21  and  C_23
REMARK                            x       y       z     vdW  Elec       q    Type
REMARK                         _______ _______ _______ _____ _____    ______ ____
ROOT
ATOM      1  C   UNL     1       1.110   2.134   0.004  0.00  0.00    +0.255 C 
ATOM      2  O   UNL     1       2.195   1.590  -0.100  0.00  0.00    -0.269 OA
ATOM      3  N   UNL     1      -0.017   1.395   0.010  0.00  0.00    -0.281 N 
ATOM      4  H   UNL     1      -0.883   1.831   0.021  0.00  0.00    +0.155 HD
ENDROOT
BRANCH   1  10
ATOM      5  C   UNL     1       3.504   4.054   0.020  0.00  0.00    +0.045 C 
ATOM      6  C   UNL     1       2.062   4.477   0.135  0.00  0.00    -0.029 A 
ATOM      7  C   UNL     1       1.714   5.795   0.259  0.00  0.00    +0.035 A 
ATOM      8  C   UNL     1       0.378   6.122   0.360  0.00  0.00    +0.073 A 
ATOM      9  S   UNL     1      -0.411   4.580   0.276  0.00  0.00    -0.069 S 
ATOM     10  C   UNL     1       1.033   3.545   0.120  0.00  0.00    +0.079 A 
BRANCH   8  11
ATOM     11  N   UNL     1      -0.196   7.379   0.491  0.00  0.00    -0.273 N 
ATOM     12  C   UNL     1      -1.535   7.503   0.577  0.00  0.00    +0.284 C 
ATOM     13  O   UNL     1      -2.242   6.513   0.539  0.00  0.00    -0.266 OA
ATOM     14  H   UNL     1       0.367   8.168   0.522  0.00  0.00    +0.156 HD
BRANCH  12  15
ATOM     15  C   UNL     1      -2.141   8.831   0.716  0.00  0.00    +0.189 A 
ATOM     16  C   UNL     1      -3.477   9.097   0.812  0.00  0.00    +0.054 A 
ATOM     17  C   UNL     1      -3.603  10.490   0.929  0.00  0.00    +0.042 A 
ATOM     18  C   UNL     1      -2.354  11.006   0.899  0.00  0.00    +0.196 A 
ATOM     19  O   UNL     1      -1.476  10.003   0.776  0.00  0.00    -0.458 OA
ENDBRANCH  12  15
ENDBRANCH   8  11
ENDBRANCH   1  10
BRANCH   3  20
ATOM     20  C   UNL     1       0.062  -0.002  -0.007  0.00  0.00    +0.035 A 
ATOM     21  C   UNL     1       1.072  -0.629  -0.723  0.00  0.00    +0.038 A 
ATOM     22  C   UNL     1       1.157  -2.023  -0.738  0.00  0.00    +0.066 A 
ATOM     23  C   UNL     1       0.221  -2.784  -0.041  0.00  0.00    +0.030 A 
ATOM     24  C   UNL     1      -0.795  -2.151   0.673  0.00  0.00    +0.066 A 
ATOM     25  C   UNL     1      -0.872  -0.757   0.687  0.00  0.00    +0.038 A 
BRANCH  24  26
ATOM     26  C   UNL     1      -1.790  -2.954   1.414  0.00  0.00    +0.387 C 
ATOM     27  O   UNL     1      -2.675  -2.401   2.036  0.00  0.00    -0.241 OA
ATOM     28  O   UNL     1      -1.715  -4.299   1.399  0.00  0.00    -0.241 OA
ENDBRANCH  24  26
BRANCH  22  29
ATOM     29  C   UNL     1       2.236  -2.689  -1.496  0.00  0.00    +0.387 C 
ATOM     30  O   UNL     1       3.052  -2.025  -2.103  0.00  0.00    -0.241 OA
ATOM     31  O   UNL     1       2.315  -4.034  -1.514  0.00  0.00    -0.241 OA
ENDBRANCH  22  29
ENDBRANCH   3  20
TORSDOF 6
