REMARK  Name = ZINC39426211
REMARK  8 active torsions:
REMARK  status: ('A' for Active; 'I' for Inactive)
REMARK    1  A    between atoms: C_1  and  C_2
REMARK    2  A    between atoms: C_2  and  C_3
REMARK    3  A    between atoms: C_2  and  C_4
REMARK    4  A    between atoms: C_5  and  C_30
REMARK    5  A    between atoms: C_6  and  N_29
REMARK    6  A    between atoms: C_10  and  N_28
REMARK    7  A    between atoms: C_11  and  C_13
REMARK    8  A    between atoms: C_18  and  C_21
REMARK                            x       y       z     vdW  Elec       q    Type
REMARK                         _______ _______ _______ _____ _____    ______ ____
ROOT
ATOM      1  C   UNL     1      -0.487   0.641   0.290  0.00  0.00    -0.013 A 
ATOM      2  C   UNL     1       0.410   1.328  -0.516  0.00  0.00    +0.095 A 
ATOM      3  C   UNL     1       0.001   1.801  -1.781  0.00  0.00    +0.135 A 
ATOM      4  N   UNL     1      -1.236   1.589  -2.199  0.00  0.00    -0.224 NA
ATOM      5  C   UNL     1      -2.113   0.941  -1.459  0.00  0.00    +0.113 A 
ATOM      6  C   UNL     1      -1.803   0.422  -0.179  0.00  0.00    +0.034 A 
ATOM      7  C   UNL     1      -2.897  -0.269   0.487  0.00  0.00    +0.054 A 
ATOM      8  C   UNL     1      -4.106  -0.363  -0.167  0.00  0.00    +0.097 A 
ATOM      9  S   UNL     1      -3.814   0.492  -1.702  0.00  0.00    -0.062 S 
ENDROOT
BRANCH   8  10
ATOM     10  C   UNL     1      -5.298  -0.982   0.279  0.00  0.00    +0.258 C 
ATOM     11  O   UNL     1      -5.333  -1.521   1.371  0.00  0.00    -0.269 OA
ATOM     12  N   UNL     1      -6.395  -0.975  -0.504  0.00  0.00    -0.260 N 
ATOM     13  C   UNL     1      -7.564  -1.582  -0.067  0.00  0.00    +0.165 A 
ATOM     14  N   UNL     1      -8.730  -1.687  -0.678  0.00  0.00    -0.225 NA
ATOM     15  C   UNL     1      -9.752  -2.308  -0.107  0.00  0.00    +0.080 A 
ATOM     16  C   UNL     1      -9.597  -2.849   1.139  0.00  0.00    +0.076 A 
ATOM     17  S   UNL     1      -7.889  -2.434   1.470  0.00  0.00    -0.060 S 
ATOM     18  H   UNL     1      -6.367  -0.546  -1.373  0.00  0.00    +0.157 HD
BRANCH  15  19
ATOM     19  C   UNL     1     -11.052  -2.414  -0.812  0.00  0.00    +0.001 A 
ATOM     20  C   UNL     1     -12.126  -3.062  -0.205  0.00  0.00    +0.011 A 
ATOM     21  C   UNL     1     -13.334  -3.158  -0.866  0.00  0.00    +0.020 A 
ATOM     22  C   UNL     1     -13.479  -2.612  -2.130  0.00  0.00    +0.041 A 
ATOM     23  C   UNL     1     -12.415  -1.967  -2.737  0.00  0.00    +0.020 A 
ATOM     24  C   UNL     1     -11.205  -1.861  -2.083  0.00  0.00    +0.011 A 
ATOM     25 CL   UNL     1     -15.001  -2.737  -2.957  0.00  0.00    -0.084 Cl
ENDBRANCH  15  19
ENDBRANCH   8  10
BRANCH   1  27
ATOM     26  C   UNL     1       1.451  -0.090   1.653  0.00  0.00    +0.012 C 
ATOM     27  C   UNL     1      -0.063   0.131   1.643  0.00  0.00    +0.015 C 
ATOM     28  C   UNL     1      -0.436   1.157   2.715  0.00  0.00    +0.012 C 
ENDBRANCH   1  27
BRANCH   7  29
ATOM     29  N   UNL     1      -2.726  -0.821   1.748  0.00  0.00    -0.356 N 
ATOM     30  H   UNL     1      -2.281  -0.312   2.444  0.00  0.00    +0.142 HD
ATOM     31  H   UNL     1      -3.051  -1.716   1.935  0.00  0.00    +0.142 HD
ENDBRANCH   7  29
BRANCH   3  32
ATOM     32  N   UNL     1       0.894   2.485  -2.585  0.00  0.00    -0.342 N 
ATOM     33  H   UNL     1       1.801   2.640  -2.279  0.00  0.00    +0.144 HD
ATOM     34  H   UNL     1       0.613   2.810  -3.455  0.00  0.00    +0.144 HD
ENDBRANCH   3  32
BRANCH   2  35
ATOM     35  C   UNL     1       1.750   1.558  -0.065  0.00  0.00    +0.103 C 
ATOM     36  N   UNL     1       2.812   1.739   0.294  0.00  0.00    -0.191 NA
ENDBRANCH   2  35
TORSDOF 6
