REMARK  Name = ZINC06904944
REMARK  12 active torsions:
REMARK  status: ('A' for Active; 'I' for Inactive)
REMARK    1  A    between atoms: C_1  and  O_2
REMARK    2  A    between atoms: O_2  and  C_3
REMARK    3  A    between atoms: C_3  and  C_4
REMARK    4  A    between atoms: C_4  and  N_5
REMARK    5  A    between atoms: C_6  and  C_8
REMARK    6  A    between atoms: C_8  and  C_10
REMARK    7  A    between atoms: C_8  and  N_17
REMARK    8  A    between atoms: N_17  and  C_18
REMARK    9  A    between atoms: C_18  and  C_19
REMARK   10  A    between atoms: C_24  and  C_26
REMARK   11  A    between atoms: C_27  and  N_34
REMARK   12  A    between atoms: C_28  and  C_31
REMARK                            x       y       z     vdW  Elec       q    Type
REMARK                         _______ _______ _______ _____ _____    ______ ____
ROOT
ATOM      1  N   UNL     1       4.591  -0.003  -0.458  0.00  0.00    -0.277 N 
ATOM      2  C   UNL     1       3.715  -1.019  -0.329  0.00  0.00    +0.258 C 
ATOM      3  O   UNL     1       4.059  -2.054   0.210  0.00  0.00    -0.269 OA
ENDROOT
BRANCH   2   4
ATOM      4  C   UNL     1       2.349  -0.877  -0.838  0.00  0.00    +0.115 A 
ATOM      5  C   UNL     1       1.346  -1.840  -0.960  0.00  0.00    +0.076 A 
ATOM      6  C   UNL     1       0.167  -1.319  -1.493  0.00  0.00    +0.155 A 
ATOM      7  N   UNL     1       0.114  -0.044  -1.812  0.00  0.00    -0.203 NA
ATOM      8  S   UNL     1       1.523   0.570  -1.467  0.00  0.00    +0.019 S 
BRANCH   6   9
ATOM      9  C   UNL     1      -1.007  -2.187  -1.696  0.00  0.00    +0.262 C 
ATOM     10  O   UNL     1      -0.951  -3.365  -1.399  0.00  0.00    -0.269 OA
ATOM     11  N   UNL     1      -2.143  -1.676  -2.212  0.00  0.00    -0.324 N 
ATOM     12  H   UNL     1      -2.188  -0.737  -2.449  0.00  0.00    +0.145 HD
ATOM     13  H   UNL     1      -2.915  -2.248  -2.345  0.00  0.00    +0.145 HD
ENDBRANCH   6   9
BRANCH   5  14
ATOM     14  N   UNL     1       1.504  -3.169  -0.591  0.00  0.00    -0.355 N 
ATOM     15  H   UNL     1       0.769  -3.793  -0.699  0.00  0.00    +0.142 HD
ATOM     16  H   UNL     1       2.349  -3.474  -0.226  0.00  0.00    +0.142 HD
ENDBRANCH   5  14
ENDBRANCH   2   4
BRANCH   1  17
ATOM     17  C   UNL     1       5.905  -0.082   0.185  0.00  0.00    +0.193 C 
BRANCH  17  18
ATOM     18  C   UNL     1       5.867   0.654   1.499  0.00  0.00    -0.018 A 
ATOM     19  C   UNL     1       5.216   1.870   1.590  0.00  0.00    +0.009 A 
ATOM     20  C   UNL     1       5.176   2.544   2.796  0.00  0.00    +0.038 A 
ATOM     21  C   UNL     1       5.798   2.006   3.910  0.00  0.00    +0.123 A 
ATOM     22  C   UNL     1       6.455   0.791   3.816  0.00  0.00    +0.038 A 
ATOM     23  C   UNL     1       6.488   0.116   2.610  0.00  0.00    +0.009 A 
ATOM     24  F   UNL     1       5.765   2.667   5.088  0.00  0.00    -0.205 F 
ENDBRANCH  17  18
BRANCH  17  26
ATOM     25  N   UNL     1       8.209   0.084  -0.701  0.00  0.00    -0.311 N 
ATOM     26  C   UNL     1       6.942   0.543  -0.712  0.00  0.00    +0.238 C 
ATOM     27  O   UNL     1       6.636   1.460  -1.445  0.00  0.00    -0.273 OA
ATOM     28  H   UNL     1       8.453  -0.649  -0.115  0.00  0.00    +0.149 HD
BRANCH  25  29
ATOM     29  C   UNL     1       9.216   0.693  -1.573  0.00  0.00    +0.132 C 
BRANCH  29  30
ATOM     30  C   UNL     1      10.560  -0.009  -1.366  0.00  0.00    +0.178 C 
BRANCH  30  32
ATOM     31  C   UNL     1      11.667  -2.117  -1.645  0.00  0.00    +0.194 C 
ATOM     32  O   UNL     1      10.459  -1.368  -1.796  0.00  0.00    -0.381 OA
ENDBRANCH  30  32
ENDBRANCH  29  30
ENDBRANCH  25  29
ENDBRANCH  17  26
ENDBRANCH   1  17
BRANCH   1  33
ATOM     33  C   UNL     1       4.229   1.182  -1.241  0.00  0.00    +0.151 C 
BRANCH  33  34
ATOM     34  C   UNL     1       4.379   0.879  -2.709  0.00  0.00    +0.007 A 
ATOM     35  C   UNL     1       3.521   0.239  -3.541  0.00  0.00    +0.013 A 
ATOM     36  C   UNL     1       3.872   0.073  -4.867  0.00  0.00    +0.008 A 
ATOM     37  C   UNL     1       5.064   0.555  -5.297  0.00  0.00    +0.045 A 
ATOM     38  S   UNL     1       5.730   1.276  -3.807  0.00  0.00    -0.100 S 
ENDBRANCH  33  34
ENDBRANCH   1  33
TORSDOF 11
