REMARK  Name = ZINC15632646
REMARK  4 active torsions:
REMARK  status: ('A' for Active; 'I' for Inactive)
REMARK    1  A    between atoms: C_1  and  C_2
REMARK    2  A    between atoms: C_5  and  N_9
REMARK    3  A    between atoms: C_10  and  C_12
REMARK    4  A    between atoms: C_13  and  C_25
REMARK                            x       y       z     vdW  Elec       q    Type
REMARK                         _______ _______ _______ _____ _____    ______ ____
ROOT
ATOM      1  C   UNL     1      -0.018   1.462  -0.005  0.00  0.00    +0.080 A 
ATOM      2  C   UNL     1       1.036   2.328  -0.015  0.00  0.00    -0.017 A 
ATOM      3  C   UNL     1       0.804   3.706  -0.017  0.00  0.00    +0.076 A 
ATOM      4  C   UNL     1      -0.553   4.101  -0.007  0.00  0.00    +0.116 A 
ATOM      5  S   UNL     1      -1.428   2.557  -0.005  0.00  0.00    -0.064 S 
ATOM      6  N   UNL     1      -0.904   5.378  -0.007  0.00  0.00    -0.226 NA
ATOM      7  C   UNL     1      -0.021   6.347  -0.015  0.00  0.00    +0.114 A 
ATOM      8  N   UNL     1       1.312   6.092  -0.028  0.00  0.00    -0.296 N 
ATOM      9  C   UNL     1       1.775   4.820  -0.026  0.00  0.00    +0.263 A 
ATOM     10  O   UNL     1       2.973   4.597  -0.033  0.00  0.00    -0.267 OA
ATOM     11  C   UNL     1       2.084   7.347  -0.042  0.00  0.00    +0.127 C 
ATOM     12  C   UNL     1       1.101   8.446   0.410  0.00  0.00    +0.029 C 
ATOM     13  C   UNL     1      -0.258   7.846  -0.011  0.00  0.00    +0.076 C 
ATOM     14  C   UNL     1       2.447   1.800  -0.025  0.00  0.00    +0.046 C 
ENDROOT
BRANCH   1  16
ATOM     15  N   UNL     1      -1.156  -0.694   0.009  0.00  0.00    -0.280 N 
ATOM     16  C   UNL     1       0.002  -0.004  -0.001  0.00  0.00    +0.255 C 
ATOM     17  O   UNL     1       1.064  -0.598  -0.008  0.00  0.00    -0.269 OA
ATOM     18  H   UNL     1      -2.000  -0.224   0.096  0.00  0.00    +0.155 HD
BRANCH  15  23
ATOM     19  C   UNL     1      -1.092  -6.348  -0.451  0.00  0.00    +0.044 C 
ATOM     20  C   UNL     1      -1.109  -4.846  -0.328  0.00  0.00    -0.049 A 
ATOM     21  C   UNL     1      -0.060  -4.101  -0.834  0.00  0.00    +0.005 A 
ATOM     22  C   UNL     1      -0.072  -2.724  -0.724  0.00  0.00    +0.025 A 
ATOM     23  C   UNL     1      -1.140  -2.088  -0.104  0.00  0.00    +0.052 A 
ATOM     24  C   UNL     1      -2.191  -2.840   0.408  0.00  0.00    +0.062 A 
ATOM     25  C   UNL     1      -2.174  -4.217   0.290  0.00  0.00    +0.025 A 
ATOM     26 CL   UNL     1      -3.524  -2.051   1.191  0.00  0.00    -0.082 Cl
ENDBRANCH  15  23
ENDBRANCH   1  16
TORSDOF 2
