REMARK  Name = ZINC02102101
REMARK  6 active torsions:
REMARK  status: ('A' for Active; 'I' for Inactive)
REMARK    1  A    between atoms: C_1  and  N_57
REMARK    2  A    between atoms: C_8  and  O_29
REMARK    3  A    between atoms: C_10  and  C_12
REMARK    4  A    between atoms: C_13  and  C_14
REMARK    5  A    between atoms: C_14  and  N_15
REMARK    6  A    between atoms: O_29  and  C_30
REMARK                            x       y       z     vdW  Elec       q    Type
REMARK                         _______ _______ _______ _____ _____    ______ ____
ROOT
ATOM      1  C   UNL     1      -3.704   2.018  -0.262  0.00  0.00    -0.094 C 
ATOM      2  C   UNL     1      -2.446   0.065   0.430  0.00  0.00    -0.072 C 
ATOM      3  C   UNL     1      -1.271  -0.812  -0.002  0.00  0.00    +0.017 C 
ATOM      4  C   UNL     1       0.002  -0.004   0.002  0.00  0.00    -0.039 A 
ATOM      5  C   UNL     1       1.212  -0.681  -0.007  0.00  0.00    +0.053 A 
ATOM      6  C   UNL     1       2.408   0.017  -0.011  0.00  0.00    +0.170 A 
ATOM      7  C   UNL     1       2.394   1.408  -0.008  0.00  0.00    +0.208 A 
ATOM      8  C   UNL     1       1.181   2.082   0.002  0.00  0.00    +0.168 A 
ATOM      9  C   UNL     1      -0.017   1.374   0.010  0.00  0.00    -0.001 A 
ATOM     10  C   UNL     1      -1.307   2.151   0.033  0.00  0.00    +0.043 C 
ATOM     11  O   UNL     1       3.684   1.858  -0.015  0.00  0.00    -0.449 OA
ATOM     12  C   UNL     1       4.485   0.733   0.390  0.00  0.00    +0.467 C 
ATOM     13  O   UNL     1       3.706  -0.407  -0.020  0.00  0.00    -0.452 OA
ATOM     14  N   UNL     1      -2.422   1.290  -0.395  0.00  0.00    +0.390 N 
ATOM     15  H   UNL     1      -2.286   1.029  -1.379  0.00  0.00    -0.080 HD
ENDROOT
BRANCH  10  16
ATOM     16  C   UNL     1      -1.204   3.291  -0.893  0.00  0.00    -0.111 C 
ATOM     17  C   UNL     1      -1.122   4.200  -1.632  0.00  0.00    -0.084 C 
BRANCH  17  18
ATOM     18  C   UNL     1      -1.019   5.340  -2.558  0.00  0.00    +0.199 C 
BRANCH  18  19
ATOM     19  N   UNL     1      -0.768   4.846  -3.914  0.00  0.00    -0.287 N 
ATOM     20  C   UNL     1       0.553   4.678  -4.342  0.00  0.00    +0.049 A 
ATOM     21  C   UNL     1       1.536   5.572  -3.956  0.00  0.00    +0.024 A 
ATOM     22  C   UNL     1       2.840   5.395  -4.382  0.00  0.00    +0.002 A 
ATOM     23  C   UNL     1       3.174   4.325  -5.191  0.00  0.00    +0.001 A 
ATOM     24  C   UNL     1       2.200   3.420  -5.581  0.00  0.00    +0.017 A 
ATOM     25  C   UNL     1       0.896   3.592  -5.157  0.00  0.00    +0.034 A 
ATOM     26  S   UNL     1      -0.366   2.455  -5.637  0.00  0.00    -0.086 S 
ATOM     27  C   UNL     1      -1.813   3.466  -5.614  0.00  0.00    +0.034 A 
ATOM     28  C   UNL     1      -1.856   4.561  -4.746  0.00  0.00    +0.049 A 
ATOM     29  C   UNL     1      -2.987   5.362  -4.718  0.00  0.00    +0.024 A 
ATOM     30  C   UNL     1      -4.059   5.074  -5.545  0.00  0.00    +0.002 A 
ATOM     31  C   UNL     1      -4.011   3.992  -6.402  0.00  0.00    +0.001 A 
ATOM     32  C   UNL     1      -2.886   3.184  -6.438  0.00  0.00    +0.017 A 
ENDBRANCH  18  19
ENDBRANCH  17  18
ENDBRANCH  10  16
BRANCH   8  33
ATOM     33  O   UNL     1       1.164   3.442   0.004  0.00  0.00    -0.491 OA
ATOM     34  C   UNL     1       1.164   4.089   1.278  0.00  0.00    +0.277 C 
ENDBRANCH   8  33
TORSDOF 4
