REMARK  Name = ZINC35788756
REMARK  5 active torsions:
REMARK  status: ('A' for Active; 'I' for Inactive)
REMARK    1  A    between atoms: C_5  and  N_7
REMARK    2  A    between atoms: N_10  and  C_13
REMARK    3  A    between atoms: C_13  and  C_14
REMARK    4  A    between atoms: C_17  and  C_29
REMARK    5  A    between atoms: C_20  and  C_22
REMARK                            x       y       z     vdW  Elec       q    Type
REMARK                         _______ _______ _______ _____ _____    ______ ____
ROOT
ATOM      1  C   UNL     1      -0.414  -6.716  -1.207  0.00  0.00    +0.219 C 
ATOM      2  O   UNL     1       0.502  -6.484  -1.967  0.00  0.00    -0.276 OA
ATOM      3  N   UNL     1      -1.205  -7.788  -1.411  0.00  0.00    -0.187 N 
ATOM      4  C   UNL     1      -1.065  -8.757  -2.509  0.00  0.00    +0.137 C 
ATOM      5  C   UNL     1      -2.214  -9.755  -2.259  0.00  0.00    +0.087 C 
ATOM      6  C   UNL     1      -2.892  -9.224  -1.016  0.00  0.00    +0.069 C 
ATOM      7  N   UNL     1      -2.284  -8.162  -0.614  0.00  0.00    -0.181 NA
ENDROOT
BRANCH   4   8
ATOM      8  C   UNL     1       0.270  -9.452  -2.437  0.00  0.00    -0.021 A 
ATOM      9  C   UNL     1       0.796  -9.809  -1.209  0.00  0.00    +0.009 A 
ATOM     10  C   UNL     1       2.021 -10.447  -1.137  0.00  0.00    +0.050 A 
ATOM     11  C   UNL     1       2.724 -10.730  -2.297  0.00  0.00    +0.166 A 
ATOM     12  C   UNL     1       2.194 -10.370  -3.534  0.00  0.00    +0.167 A 
ATOM     13  C   UNL     1       0.964  -9.736  -3.598  0.00  0.00    +0.055 A 
ATOM     14  O   UNL     1       3.067 -10.754  -4.511  0.00  0.00    -0.453 OA
ATOM     15  C   UNL     1       4.319 -10.983  -3.839  0.00  0.00    +0.466 C 
ATOM     16  O   UNL     1       3.929 -11.338  -2.499  0.00  0.00    -0.453 OA
ENDBRANCH   4   8
BRANCH   6  17
ATOM     17  C   UNL     1      -4.064  -9.834  -0.360  0.00  0.00    +0.001 A 
ATOM     18  C   UNL     1      -4.633 -10.998  -0.882  0.00  0.00    +0.010 A 
ATOM     19  C   UNL     1      -5.729 -11.564  -0.265  0.00  0.00    +0.003 A 
ATOM     20  C   UNL     1      -6.267 -10.981   0.869  0.00  0.00    +0.038 A 
ATOM     21  C   UNL     1      -5.709  -9.826   1.393  0.00  0.00    +0.124 A 
ATOM     22  C   UNL     1      -4.606  -9.253   0.788  0.00  0.00    +0.048 A 
ATOM     23  F   UNL     1      -6.239  -9.262   2.500  0.00  0.00    -0.205 F 
ENDBRANCH   6  17
BRANCH   1  24
ATOM     24  C   UNL     1      -0.667  -5.805  -0.033  0.00  0.00    +0.021 C 
BRANCH  24  28
ATOM     25  N   UNL     1       1.236  -2.079  -0.021  0.00  0.00    -0.331 N 
ATOM     26  C   UNL     1       1.254  -2.842   1.236  0.00  0.00    +0.086 C 
ATOM     27  C   UNL     1       0.150  -3.903   1.176  0.00  0.00    -0.059 C 
ATOM     28  N   UNL     1       0.323  -4.720  -0.032  0.00  0.00    +0.387 N 
ATOM     29  C   UNL     1       0.138  -3.890  -1.228  0.00  0.00    -0.059 C 
ATOM     30  C   UNL     1       1.236  -2.828  -1.287  0.00  0.00    +0.086 C 
ATOM     31  H   UNL     1       1.252  -5.116  -0.039  0.00  0.00    -0.081 HD
BRANCH  25  36
ATOM     32  C   UNL     1      -0.017   1.377   0.010  0.00  0.00    +0.002 A 
ATOM     33  C   UNL     1       1.170   2.087   0.002  0.00  0.00    +0.003 A 
ATOM     34  C   UNL     1       2.380   1.418  -0.013  0.00  0.00    +0.040 A 
ATOM     35  C   UNL     1       2.406   0.035  -0.021  0.00  0.00    +0.144 A 
ATOM     36  C   UNL     1       1.214  -0.681  -0.013  0.00  0.00    +0.065 A 
ATOM     37  C   UNL     1       0.002  -0.004   0.002  0.00  0.00    +0.026 A 
ATOM     38  F   UNL     1       3.588  -0.619  -0.036  0.00  0.00    -0.204 F 
ENDBRANCH  25  36
ENDBRANCH  24  28
ENDBRANCH   1  24
TORSDOF 5
