REMARK  Name = ZINC39971118
REMARK  9 active torsions:
REMARK  status: ('A' for Active; 'I' for Inactive)
REMARK    1  A    between atoms: C_1  and  C_2
REMARK    2  A    between atoms: N_11  and  S_12
REMARK    3  A    between atoms: S_12  and  C_15
REMARK    4  A    between atoms: C_18  and  N_21
REMARK    5  A    between atoms: N_21  and  C_22
REMARK    6  A    between atoms: C_22  and  N_24
REMARK    7  A    between atoms: N_24  and  C_25
REMARK    8  A    between atoms: C_28  and  C_31
REMARK    9  A    between atoms: C_31  and  C_32
REMARK                            x       y       z     vdW  Elec       q    Type
REMARK                         _______ _______ _______ _____ _____    ______ ____
ROOT
ATOM      1  C   UNL     1      -0.019  -2.398   3.157  0.00  0.00    +0.109 A 
ATOM      2  C   UNL     1      -1.274  -2.264   2.592  0.00  0.00    +0.030 A 
ATOM      3  C   UNL     1      -2.306  -3.087   2.997  0.00  0.00    +0.025 A 
ATOM      4  C   UNL     1      -2.083  -4.050   3.973  0.00  0.00    +0.033 A 
ATOM      5  C   UNL     1      -0.821  -4.183   4.537  0.00  0.00    +0.025 A 
ATOM      6  C   UNL     1       0.209  -3.360   4.124  0.00  0.00    +0.030 A 
ENDROOT
BRANCH   1   7
ATOM      7  S   UNL     1       1.296  -1.346   2.637  0.00  0.00    +0.075 S 
ATOM      8  O   UNL     1       2.235  -1.313   3.703  0.00  0.00    -0.150 OA
ATOM      9  O   UNL     1       0.693  -0.170   2.116  0.00  0.00    -0.150 OA
BRANCH   7  19
ATOM     10  C   UNL     1       1.855  -0.461  -0.460  0.00  0.00    +0.030 C 
ATOM     11  C   UNL     1       1.687  -1.923  -0.043  0.00  0.00    +0.099 C 
ATOM     12  C   UNL     1       2.666  -2.816  -0.824  0.00  0.00    +0.061 C 
ATOM     13  C   UNL     1       3.537  -3.445   0.240  0.00  0.00    -0.023 A 
ATOM     14  C   UNL     1       4.589  -4.336   0.140  0.00  0.00    +0.005 A 
ATOM     15  C   UNL     1       5.239  -4.773   1.279  0.00  0.00    +0.000 A 
ATOM     16  C   UNL     1       4.834  -4.317   2.521  0.00  0.00    +0.002 A 
ATOM     17  C   UNL     1       3.785  -3.429   2.625  0.00  0.00    +0.025 A 
ATOM     18  C   UNL     1       3.123  -2.982   1.479  0.00  0.00    +0.055 A 
ATOM     19  N   UNL     1       2.049  -2.095   1.366  0.00  0.00    -0.200 N 
ENDBRANCH   7  19
ENDBRANCH   1   7
BRANCH   4  20
ATOM     20  N   UNL     1      -3.127  -4.885   4.386  0.00  0.00    -0.297 N 
ATOM     21  H   UNL     1      -3.233  -5.099   5.326  0.00  0.00    +0.154 HD
BRANCH  20  22
ATOM     22  C   UNL     1      -3.984  -5.391   3.478  0.00  0.00    +0.139 C 
ATOM     23  S   UNL     1      -3.712  -5.135   1.807  0.00  0.00    -0.018 S 
BRANCH  22  24
ATOM     24  N   UNL     1      -5.056  -6.100   3.885  0.00  0.00    -0.297 N 
ATOM     25  H   UNL     1      -5.257  -6.175   4.831  0.00  0.00    +0.154 HD
BRANCH  24  26
ATOM     26  C   UNL     1      -5.879  -6.726   2.943  0.00  0.00    +0.033 A 
ATOM     27  C   UNL     1      -5.318  -7.375   1.850  0.00  0.00    +0.023 A 
ATOM     28  C   UNL     1      -6.134  -7.992   0.922  0.00  0.00    +0.006 A 
ATOM     29  C   UNL     1      -7.507  -7.964   1.080  0.00  0.00    -0.037 A 
ATOM     30  C   UNL     1      -8.069  -7.320   2.167  0.00  0.00    +0.006 A 
ATOM     31  C   UNL     1      -7.259  -6.706   3.102  0.00  0.00    +0.023 A 
BRANCH  29  32
ATOM     32  C   UNL     1      -8.394  -8.638   0.065  0.00  0.00    +0.160 C 
BRANCH  32  33
ATOM     33  C   UNL     1      -8.628 -10.070   0.474  0.00  0.00    +0.360 C 
ATOM     34  O   UNL     1      -8.122 -10.503   1.495  0.00  0.00    -0.246 OA
ATOM     35  O   UNL     1      -9.324 -10.795  -0.217  0.00  0.00    -0.246 OA
ENDBRANCH  32  33
ENDBRANCH  29  32
ENDBRANCH  24  26
ENDBRANCH  22  24
ENDBRANCH  20  22
ENDBRANCH   4  20
TORSDOF 8
