REMARK  Name = ZINC20499446
REMARK  7 active torsions:
REMARK  status: ('A' for Active; 'I' for Inactive)
REMARK    1  A    between atoms: C_1  and  O_2
REMARK    2  A    between atoms: O_2  and  C_3
REMARK    3  A    between atoms: C_6  and  C_9
REMARK    4  A    between atoms: C_9  and  C_10
REMARK    5  A    between atoms: N_12  and  C_13
REMARK    6  A    between atoms: C_16  and  N_19
REMARK    7  A    between atoms: C_25  and  C_27
REMARK                            x       y       z     vdW  Elec       q    Type
REMARK                         _______ _______ _______ _____ _____    ______ ____
ROOT
ATOM      1  C   UNL     1      -2.503   4.620  -4.657  0.00  0.00    +0.034 A 
ATOM      2  C   UNL     1      -2.363   5.434  -3.541  0.00  0.00    +0.025 A 
ATOM      3  C   UNL     1      -1.843   4.918  -2.370  0.00  0.00    +0.025 A 
ATOM      4  C   UNL     1      -1.459   3.585  -2.309  0.00  0.00    +0.030 A 
ATOM      5  C   UNL     1      -1.594   2.772  -3.428  0.00  0.00    +0.025 A 
ATOM      6  C   UNL     1      -2.119   3.287  -4.596  0.00  0.00    +0.025 A 
ENDROOT
BRANCH   4   7
ATOM      7  N   UNL     1      -0.932   3.062  -1.124  0.00  0.00    -0.327 N 
ATOM      8  C   UNL     1      -0.595   1.641  -1.280  0.00  0.00    +0.124 C 
ATOM      9  C   UNL     1       0.143   1.154  -0.028  0.00  0.00    +0.127 C 
ATOM     10  N   UNL     1      -0.673   1.474   1.154  0.00  0.00    -0.291 N 
ATOM     11  C   UNL     1      -1.169   2.851   1.304  0.00  0.00    +0.127 C 
ATOM     12  C   UNL     1      -1.855   3.271  -0.000  0.00  0.00    +0.124 C 
ATOM     13  C   UNL     1      -0.962   0.529   2.071  0.00  0.00    +0.320 C 
ATOM     14  O   UNL     1      -0.548  -0.602   1.928  0.00  0.00    -0.266 OA
BRANCH  13  15
ATOM     15  C   UNL     1      -1.800   0.878   3.274  0.00  0.00    +0.470 C 
ATOM     16  F   UNL     1      -1.962  -0.257   4.074  0.00  0.00    -0.162 F 
ATOM     17  F   UNL     1      -1.161   1.881   4.011  0.00  0.00    -0.162 F 
ATOM     18  F   UNL     1      -3.053   1.336   2.853  0.00  0.00    -0.162 F 
ENDBRANCH  13  15
ENDBRANCH   4   7
BRANCH   1  21
ATOM     19  C   UNL     1      -2.794   6.428  -6.179  0.00  0.00    +0.222 C 
ATOM     20  O   UNL     1      -2.046   7.102  -5.503  0.00  0.00    -0.275 OA
ATOM     21  N   UNL     1      -3.031   5.144  -5.844  0.00  0.00    -0.285 N 
ATOM     22  H   UNL     1      -3.639   4.507  -6.503  0.00  0.00    +0.155 HD
BRANCH  19  23
ATOM     23  C   UNL     1      -3.459   7.025  -7.392  0.00  0.00    +0.131 C 
BRANCH  23  27
ATOM     24  C   UNL     1      -2.244  11.100  -7.820  0.00  0.00    +0.120 A 
ATOM     25  C   UNL     1      -1.514  10.089  -8.430  0.00  0.00    +0.046 A 
ATOM     26  C   UNL     1      -1.909   8.773  -8.290  0.00  0.00    +0.007 A 
ATOM     27  C   UNL     1      -3.030   8.462  -7.543  0.00  0.00    -0.038 A 
ATOM     28  C   UNL     1      -3.762   9.467  -6.940  0.00  0.00    +0.007 A 
ATOM     29  C   UNL     1      -3.368  10.785  -7.072  0.00  0.00    +0.046 A 
BRANCH  24  31
ATOM     30  C   UNL     1      -2.656  13.383  -7.301  0.00  0.00    +0.277 C 
ATOM     31  O   UNL     1      -1.857  12.395  -7.956  0.00  0.00    -0.495 OA
ENDBRANCH  24  31
ENDBRANCH  23  27
ENDBRANCH  19  23
ENDBRANCH   1  21
TORSDOF 6
