REMARK  Name = ZINC09970507
REMARK  12 active torsions:
REMARK  status: ('A' for Active; 'I' for Inactive)
REMARK    1  A    between atoms: C_1  and  C_2
REMARK    2  A    between atoms: C_2  and  C_28
REMARK    3  A    between atoms: C_3  and  C_26
REMARK    4  A    between atoms: C_3  and  O_27
REMARK    5  A    between atoms: C_4  and  C_24
REMARK    6  A    between atoms: C_4  and  O_25
REMARK    7  A    between atoms: C_5  and  C_22
REMARK    8  A    between atoms: C_5  and  O_23
REMARK    9  A    between atoms: C_6  and  C_8
REMARK   10  A    between atoms: C_6  and  O_9
REMARK   11  A    between atoms: O_9  and  C_10
REMARK   12  A    between atoms: C_28  and  O_29
REMARK                            x       y       z     vdW  Elec       q    Type
REMARK                         _______ _______ _______ _____ _____    ______ ____
ROOT
ATOM      1  C   UNL     1      -1.498  -2.948  -0.745  0.00  0.00    +0.047 C 
ATOM      2  C   UNL     1      -2.155  -1.859  -1.598  0.00  0.00    +0.125 C 
ATOM      3  C   UNL     1      -3.644  -2.149  -1.756  0.00  0.00    +0.125 C 
ATOM      4  C   UNL     1      -4.478  -1.671  -0.580  0.00  0.00    +0.129 C 
ATOM      5  C   UNL     1      -4.108  -0.295  -0.053  0.00  0.00    +0.159 C 
ATOM      6  C   UNL     1      -2.607  -0.048   0.013  0.00  0.00    +0.242 C 
ATOM      7  O   UNL     1      -1.907  -0.568  -1.091  0.00  0.00    -0.326 OA
ATOM      8  C   UNL     1      -2.053  -0.573   1.342  0.00  0.00    +0.092 C 
ATOM      9  C   UNL     1      -4.771   0.804  -0.893  0.00  0.00    +0.051 C 
ATOM     10  C   UNL     1      -5.958  -1.640  -1.017  0.00  0.00    +0.047 C 
ATOM     11  C   UNL     1      -4.150  -1.543  -3.070  0.00  0.00    +0.047 C 
ENDROOT
BRANCH   5  12
ATOM     12  O   UNL     1      -4.632  -0.178   1.288  0.00  0.00    -0.379 OA
ATOM     13  H   UNL     1      -4.487   0.689   1.693  0.00  0.00    +0.211 HD
ENDBRANCH   5  12
BRANCH   4  14
ATOM     14  O   UNL     1      -4.376  -2.627   0.491  0.00  0.00    -0.383 OA
ATOM     15  H   UNL     1      -4.883  -2.389   1.280  0.00  0.00    +0.210 HD
ENDBRANCH   4  14
BRANCH   3  16
ATOM     16  O   UNL     1      -3.801  -3.582  -1.859  0.00  0.00    -0.383 OA
ATOM     17  H   UNL     1      -3.334  -3.976  -2.608  0.00  0.00    +0.210 HD
ENDBRANCH   3  16
BRANCH   6  18
ATOM     18  O   UNL     1      -2.410   1.387   0.020  0.00  0.00    -0.456 OA
BRANCH  18  19
ATOM     19  C   UNL     1      -1.123   1.834   0.017  0.00  0.00    +0.151 A 
ATOM     20  C   UNL     1      -0.013   1.076   0.008  0.00  0.00    +0.130 A 
ATOM     21  N   UNL     1       1.101   1.882   0.002  0.00  0.00    -0.358 N 
ATOM     22  H   UNL     1       2.018   1.566  -0.008  0.00  0.00    +0.165 HD
ATOM     23  C   UNL     1       0.721   3.205   0.012  0.00  0.00    +0.052 A 
ATOM     24  C   UNL     1      -0.686   3.234   0.025  0.00  0.00    +0.061 A 
ATOM     25  C   UNL     1      -1.358   4.459   0.037  0.00  0.00    +0.068 A 
ATOM     26  C   UNL     1      -0.635   5.633   0.035  0.00  0.00    +0.037 A 
ATOM     27  C   UNL     1       0.753   5.602   0.022  0.00  0.00    +0.019 A 
ATOM     28  C   UNL     1       1.429   4.402   0.011  0.00  0.00    +0.027 A 
ATOM     29 BR   UNL     1      -1.540   7.293   0.052  0.00  0.00    -0.049 Br
ATOM     30 CL   UNL     1      -3.093   4.502   0.054  0.00  0.00    -0.082 Cl
ENDBRANCH  18  19
ENDBRANCH   6  18
BRANCH   2  31
ATOM     31  C   UNL     1      -1.519  -1.942  -3.006  0.00  0.00    +0.193 C 
BRANCH  31  32
ATOM     32  O   UNL     1      -0.099  -1.824  -2.894  0.00  0.00    -0.392 OA
ATOM     33  H   UNL     1       0.367  -1.868  -3.740  0.00  0.00    +0.210 HD
ENDBRANCH  31  32
ENDBRANCH   2  31
TORSDOF 7
