REMARK  Name = ZINC52496177
REMARK  7 active torsions:
REMARK  status: ('A' for Active; 'I' for Inactive)
REMARK    1  A    between atoms: C_1  and  N_2
REMARK    2  A    between atoms: N_2  and  C_3
REMARK    3  A    between atoms: N_2  and  C_4
REMARK    4  A    between atoms: C_4  and  C_6
REMARK    5  A    between atoms: C_4  and  C_21
REMARK    6  A    between atoms: C_6  and  N_7
REMARK    7  A    between atoms: C_14  and  C_16
REMARK                            x       y       z     vdW  Elec       q    Type
REMARK                         _______ _______ _______ _____ _____    ______ ____
ROOT
ATOM      1  N   UNL     1      -3.599  -0.407  -0.868  0.00  0.00    -0.300 N 
ATOM      2  C   UNL     1      -4.521  -0.044  -1.782  0.00  0.00    +0.305 C 
ATOM      3  O   UNL     1      -4.177   0.528  -2.798  0.00  0.00    -0.252 OA
ATOM      4  N   UNL     1      -5.824  -0.315  -1.568  0.00  0.00    -0.247 N 
ATOM      5  C   UNL     1      -6.775   0.060  -2.511  0.00  0.00    +0.189 A 
ATOM      6  N   UNL     1      -6.624   0.678  -3.674  0.00  0.00    -0.125 NA
ATOM      7  N   UNL     1      -7.606   0.947  -4.419  0.00  0.00    -0.140 NA
ATOM      8  C   UNL     1      -8.850   0.627  -4.083  0.00  0.00    +0.134 A 
ATOM      9  S   UNL     1      -8.552  -0.162  -2.503  0.00  0.00    -0.030 S 
ATOM     10  H   UNL     1      -3.873  -0.864  -0.057  0.00  0.00    +0.150 HD
ATOM     11  H   UNL     1      -6.098  -0.771  -0.757  0.00  0.00    +0.158 HD
ENDROOT
BRANCH   8  12
ATOM     12  C   UNL     1     -10.118   0.852  -4.808  0.00  0.00    +0.016 A 
ATOM     13  C   UNL     1     -10.127   1.485  -6.049  0.00  0.00    +0.018 A 
ATOM     14  C   UNL     1     -11.307   1.673  -6.681  0.00  0.00    +0.046 A 
ATOM     15  S   UNL     1     -12.470   0.953  -5.535  0.00  0.00    -0.104 S 
ATOM     16  C   UNL     1     -11.311   0.438  -4.279  0.00  0.00    +0.055 A 
ENDBRANCH   8  12
BRANCH   1  17
ATOM     17  C   UNL     1      -2.182  -0.113  -1.100  0.00  0.00    +0.095 C 
BRANCH  17  18
ATOM     18  C   UNL     1      -1.368  -0.524   0.128  0.00  0.00    -0.021 C 
BRANCH  18  19
ATOM     19  C   UNL     1      -1.453  -2.018   0.310  0.00  0.00    -0.059 A 
ATOM     20  C   UNL     1      -0.655  -2.853  -0.450  0.00  0.00    +0.005 A 
ATOM     21  C   UNL     1      -0.732  -4.223  -0.284  0.00  0.00    +0.038 A 
ATOM     22  C   UNL     1      -1.609  -4.759   0.644  0.00  0.00    +0.123 A 
ATOM     23  C   UNL     1      -2.408  -3.922   1.404  0.00  0.00    +0.038 A 
ATOM     24  C   UNL     1      -2.325  -2.552   1.240  0.00  0.00    +0.005 A 
ATOM     25  F   UNL     1      -1.685  -6.098   0.806  0.00  0.00    -0.205 F 
ENDBRANCH  18  19
BRANCH  18  27
ATOM     26  C   UNL     1       0.118   1.323  -0.236  0.00  0.00    -0.096 C 
ATOM     27  N   UNL     1       0.035  -0.133  -0.061  0.00  0.00    +0.382 N 
ATOM     28  C   UNL     1       0.817  -0.530   1.118  0.00  0.00    -0.096 C 
ATOM     29  H   UNL     1       0.405  -0.592  -0.880  0.00  0.00    -0.082 HD
ENDBRANCH  18  27
ENDBRANCH  17  18
ENDBRANCH   1  17
TORSDOF 5
