REMARK  Name = ZINC40688186
REMARK  9 active torsions:
REMARK  status: ('A' for Active; 'I' for Inactive)
REMARK    1  A    between atoms: C_1  and  C_2
REMARK    2  A    between atoms: C_2  and  C_3
REMARK    3  A    between atoms: C_8  and  N_9
REMARK    4  A    between atoms: C_11  and  N_31
REMARK    5  A    between atoms: C_12  and  N_16
REMARK    6  A    between atoms: N_16  and  C_17
REMARK    7  A    between atoms: N_16  and  C_24
REMARK    8  A    between atoms: C_17  and  C_18
REMARK    9  A    between atoms: C_24  and  C_25
REMARK                            x       y       z     vdW  Elec       q    Type
REMARK                         _______ _______ _______ _____ _____    ______ ____
ROOT
ATOM      1  N   UNL     1      -1.802  -3.188   4.333  0.00  0.00    -0.298 N 
ATOM      2  C   UNL     1      -2.245  -1.934   4.741  0.00  0.00    +0.149 A 
ATOM      3  C   UNL     1      -3.604  -1.699   4.959  0.00  0.00    +0.106 A 
ATOM      4  C   UNL     1      -3.995  -0.423   5.367  0.00  0.00    +0.148 A 
ATOM      5  N   UNL     1      -3.065   0.515   5.531  0.00  0.00    -0.219 NA
ATOM      6  C   UNL     1      -1.792   0.251   5.314  0.00  0.00    +0.225 A 
ATOM      7  N   UNL     1      -1.380  -0.941   4.934  0.00  0.00    -0.219 NA
ATOM      8  H   UNL     1      -2.442  -3.893   4.151  0.00  0.00    +0.154 HD
ENDROOT
BRANCH   1  14
ATOM      9  C   UNL     1       0.085  -4.686   4.481  0.00  0.00    -0.026 A 
ATOM     10  C   UNL     1       1.437  -4.925   4.330  0.00  0.00    +0.005 A 
ATOM     11  C   UNL     1       2.275  -3.916   3.892  0.00  0.00    +0.000 A 
ATOM     12  C   UNL     1       1.762  -2.664   3.604  0.00  0.00    +0.002 A 
ATOM     13  C   UNL     1       0.412  -2.418   3.753  0.00  0.00    +0.023 A 
ATOM     14  C   UNL     1      -0.434  -3.431   4.187  0.00  0.00    +0.036 A 
BRANCH   9  16
ATOM     15  C   UNL     1      -1.452  -6.490   3.751  0.00  0.00    +0.009 C 
ATOM     16  C   UNL     1      -0.827  -5.787   4.957  0.00  0.00    +0.033 C 
ENDBRANCH   9  16
ENDBRANCH   1  14
BRANCH   3  17
ATOM     17  N   UNL     1      -4.551  -2.719   4.773  0.00  0.00    -0.353 N 
ATOM     18  H   UNL     1      -4.260  -3.618   4.556  0.00  0.00    +0.143 HD
ATOM     19  H   UNL     1      -5.498  -2.523   4.861  0.00  0.00    +0.143 HD
ENDBRANCH   3  17
BRANCH   4  20
ATOM     20  N   UNL     1      -5.335  -0.135   5.598  0.00  0.00    -0.305 N 
BRANCH  20  21
ATOM     21  C   UNL     1      -5.946  -0.474   6.885  0.00  0.00    +0.142 C 
BRANCH  21  22
ATOM     22  C   UNL     1      -5.794   0.686   7.835  0.00  0.00    -0.030 A 
ATOM     23  C   UNL     1      -4.677   0.775   8.644  0.00  0.00    +0.005 A 
ATOM     24  C   UNL     1      -4.537   1.839   9.515  0.00  0.00    +0.000 A 
ATOM     25  C   UNL     1      -5.515   2.815   9.576  0.00  0.00    +0.000 A 
ATOM     26  C   UNL     1      -6.631   2.727   8.766  0.00  0.00    +0.000 A 
ATOM     27  C   UNL     1      -6.769   1.664   7.892  0.00  0.00    +0.005 A 
ENDBRANCH  21  22
ENDBRANCH  20  21
BRANCH  20  28
ATOM     28  C   UNL     1      -6.136   0.507   4.553  0.00  0.00    +0.142 C 
BRANCH  28  29
ATOM     29  C   UNL     1      -6.870  -0.546   3.763  0.00  0.00    -0.030 A 
ATOM     30  C   UNL     1      -6.247  -1.170   2.699  0.00  0.00    +0.005 A 
ATOM     31  C   UNL     1      -6.920  -2.137   1.975  0.00  0.00    +0.000 A 
ATOM     32  C   UNL     1      -8.215  -2.479   2.315  0.00  0.00    +0.000 A 
ATOM     33  C   UNL     1      -8.838  -1.855   3.380  0.00  0.00    +0.000 A 
ATOM     34  C   UNL     1      -8.164  -0.891   4.107  0.00  0.00    +0.005 A 
ENDBRANCH  28  29
ENDBRANCH  20  28
ENDBRANCH   4  20
TORSDOF 8
