REMARK  Name = ZINC40799951
REMARK  3 active torsions:
REMARK  status: ('A' for Active; 'I' for Inactive)
REMARK    1  A    between atoms: C_1  and  N_2
REMARK    2  A    between atoms: C_9  and  C_10
REMARK    3  A    between atoms: N_12  and  C_13
REMARK                            x       y       z     vdW  Elec       q    Type
REMARK                         _______ _______ _______ _____ _____    ______ ____
ROOT
ATOM      1  C   UNL     1      -0.432  -0.388   2.510  0.00  0.00    +0.265 C 
ATOM      2  O   UNL     1      -0.518  -1.190   3.422  0.00  0.00    -0.268 OA
ATOM      3  N   UNL     1      -0.390   0.933   2.777  0.00  0.00    -0.279 N 
ATOM      4  H   UNL     1      -0.358   1.574   2.050  0.00  0.00    +0.155 HD
ENDROOT
BRANCH   1  13
ATOM      5  C   UNL     1      -0.719  -3.325   1.579  0.00  0.00    +0.149 C 
ATOM      6  N   UNL     1      -0.503  -2.167   0.708  0.00  0.00    -0.337 N 
ATOM      7  C   UNL     1      -0.400  -2.202  -0.659  0.00  0.00    +0.088 A 
ATOM      8  C   UNL     1      -0.414  -3.024  -1.810  0.00  0.00    +0.067 A 
ATOM      9  C   UNL     1      -0.228  -2.222  -2.873  0.00  0.00    +0.198 A 
ATOM     10  O   UNL     1      -0.099  -0.950  -2.458  0.00  0.00    -0.461 OA
ATOM     11  C   UNL     1      -0.199  -0.901  -1.111  0.00  0.00    +0.153 A 
ATOM     12  C   UNL     1      -0.181  -0.066   0.012  0.00  0.00    +0.079 A 
ATOM     13  C   UNL     1      -0.375  -0.857   1.124  0.00  0.00    +0.108 A 
ENDBRANCH   1  13
BRANCH   3  14
ATOM     14  C   UNL     1      -0.394   1.379   4.103  0.00  0.00    +0.054 A 
ATOM     15  C   UNL     1      -0.286   0.466   5.145  0.00  0.00    +0.025 A 
ATOM     16  C   UNL     1      -0.289   0.909   6.453  0.00  0.00    +0.003 A 
ATOM     17  C   UNL     1      -0.400   2.260   6.728  0.00  0.00    +0.021 A 
ATOM     18  C   UNL     1      -0.508   3.173   5.694  0.00  0.00    +0.061 A 
ATOM     19  C   UNL     1      -0.500   2.736   4.381  0.00  0.00    +0.080 A 
ATOM     20 CL   UNL     1      -0.628   3.882   3.083  0.00  0.00    -0.080 Cl
ATOM     21 CL   UNL     1      -0.647   4.867   6.043  0.00  0.00    -0.082 Cl
ENDBRANCH   3  14
TORSDOF 2
