REMARK  Name = ZINC40743531
REMARK  9 active torsions:
REMARK  status: ('A' for Active; 'I' for Inactive)
REMARK    1  A    between atoms: C_4  and  C_7
REMARK    2  A    between atoms: C_7  and  C_9
REMARK    3  A    between atoms: C_7  and  O_28
REMARK    4  A    between atoms: C_9  and  N_10
REMARK    5  A    between atoms: N_10  and  C_11
REMARK    6  A    between atoms: C_11  and  C_12
REMARK    7  A    between atoms: C_17  and  O_18
REMARK    8  A    between atoms: O_18  and  C_19
REMARK    9  A    between atoms: C_19  and  C_20
REMARK                            x       y       z     vdW  Elec       q    Type
REMARK                         _______ _______ _______ _____ _____    ______ ____
ROOT
ATOM      1  C   UNL     1       7.117  -2.881   2.695  0.00  0.00    +0.009 A 
ATOM      2  C   UNL     1       7.254  -4.255   2.639  0.00  0.00    +0.028 A 
ATOM      3  C   UNL     1       8.515  -4.824   2.608  0.00  0.00    +0.041 A 
ATOM      4  C   UNL     1       9.640  -4.019   2.633  0.00  0.00    +0.023 A 
ATOM      5  C   UNL     1       9.507  -2.646   2.688  0.00  0.00    +0.047 A 
ATOM      6  C   UNL     1       8.243  -2.073   2.713  0.00  0.00    +0.125 A 
ATOM      7 CL   UNL     1       8.685  -6.550   2.539  0.00  0.00    -0.084 Cl
ENDROOT
BRANCH   1   8
ATOM      8  C   UNL     1       5.743  -2.262   2.728  0.00  0.00    +0.120 C 
BRANCH   8   9
ATOM      9  N   UNL     1       5.385  -1.793   1.383  0.00  0.00    -0.309 NA
ATOM     10  H   UNL     1       5.441  -2.544   0.711  0.00  0.00    +0.122 HD
BRANCH   9  11
ATOM     11  C   UNL     1       4.049  -1.182   1.377  0.00  0.00    +0.117 C 
BRANCH  11  12
ATOM     12  C   UNL     1       3.711  -0.707  -0.038  0.00  0.00    +0.158 C 
BRANCH  12  16
ATOM     13  C   UNL     1      -0.017   1.378   0.010  0.00  0.00    +0.000 A 
ATOM     14  C   UNL     1       1.171   2.086   0.002  0.00  0.00    +0.000 A 
ATOM     15  C   UNL     1       2.377   1.411  -0.013  0.00  0.00    +0.006 A 
ATOM     16  C   UNL     1       2.396   0.029  -0.020  0.00  0.00    -0.018 A 
ATOM     17  C   UNL     1       1.208  -0.679  -0.012  0.00  0.00    +0.006 A 
ATOM     18  C   UNL     1       0.002  -0.004   0.002  0.00  0.00    +0.000 A 
ENDBRANCH  12  16
BRANCH  12  19
ATOM     19  O   UNL     1       3.614  -1.836  -0.908  0.00  0.00    -0.386 OA
ATOM     20  H   UNL     1       2.934  -2.474  -0.651  0.00  0.00    +0.210 HD
ENDBRANCH  12  19
ENDBRANCH  11  12
ENDBRANCH   9  11
ENDBRANCH   8   9
ENDBRANCH   1   8
BRANCH   6  21
ATOM     21  O   UNL     1       8.110  -0.721   2.762  0.00  0.00    -0.487 OA
BRANCH  21  22
ATOM     22  C   UNL     1       9.314   0.050   2.779  0.00  0.00    +0.264 C 
BRANCH  22  23
ATOM     23  C   UNL     1       8.971   1.516   2.833  0.00  0.00    -0.009 A 
ATOM     24  C   UNL     1       8.798   2.229   1.661  0.00  0.00    +0.007 A 
ATOM     25  C   UNL     1       8.483   3.574   1.710  0.00  0.00    +0.002 A 
ATOM     26  C   UNL     1       8.342   4.207   2.931  0.00  0.00    +0.020 A 
ATOM     27  C   UNL     1       8.514   3.494   4.104  0.00  0.00    +0.041 A 
ATOM     28  C   UNL     1       8.823   2.146   4.054  0.00  0.00    +0.027 A 
ATOM     29 CL   UNL     1       8.337   4.289   5.637  0.00  0.00    -0.084 Cl
ENDBRANCH  22  23
ENDBRANCH  21  22
ENDBRANCH   6  21
TORSDOF 9
