REMARK  Name = ZINC04489567
REMARK  3 active torsions:
REMARK  status: ('A' for Active; 'I' for Inactive)
REMARK    1  A    between atoms: C_2  and  C_27
REMARK    2  A    between atoms: C_13  and  C_15
REMARK    3  A    between atoms: C_16  and  C_17
REMARK                            x       y       z     vdW  Elec       q    Type
REMARK                         _______ _______ _______ _____ _____    ______ ____
ROOT
ATOM      1  C   UNL     1      -0.537  -8.122   1.985  0.00  0.00    +0.037 A 
ATOM      2  C   UNL     1      -1.319  -8.073   3.132  0.00  0.00    +0.072 A 
ATOM      3  C   UNL     1      -2.039  -6.929   3.411  0.00  0.00    +0.096 A 
ATOM      4  C   UNL     1      -1.261  -5.893   1.501  0.00  0.00    +0.118 A 
ATOM      5  C   UNL     1      -0.514  -7.015   1.154  0.00  0.00    +0.079 A 
ATOM      6 CL   UNL     1       0.439  -7.024  -0.297  0.00  0.00    -0.080 Cl
ATOM      7  N   UNL     1      -1.243  -4.771   0.679  0.00  0.00    -0.313 N 
ATOM      8  C   UNL     1      -2.474  -3.984   0.835  0.00  0.00    +0.125 C 
ATOM      9  C   UNL     1      -2.496  -2.865  -0.212  0.00  0.00    +0.127 C 
ATOM     10  N   UNL     1      -1.247  -2.096  -0.099  0.00  0.00    -0.295 N 
ATOM     11  C   UNL     1       0.027  -2.830  -0.115  0.00  0.00    +0.127 C 
ATOM     12  C   UNL     1      -0.051  -3.952   0.933  0.00  0.00    +0.125 C 
ATOM     13  C   UNL     1      -1.270  -0.752   0.009  0.00  0.00    +0.240 C 
ATOM     14  O   UNL     1      -2.332  -0.168   0.115  0.00  0.00    -0.271 OA
ATOM     15  N   UNL     1      -2.036  -5.822   2.622  0.00  0.00    -0.348 N 
ATOM     16  H   UNL     1      -2.582  -4.984   2.855  0.00  0.00    +0.167 HD
ENDROOT
BRANCH   2  17
ATOM     17  C   UNL     1      -1.379  -9.257   4.063  0.00  0.00    +0.419 C 
ATOM     18  F   UNL     1      -2.227  -8.963   5.136  0.00  0.00    -0.166 F 
ATOM     19  F   UNL     1      -1.872 -10.369   3.371  0.00  0.00    -0.166 F 
ATOM     20  F   UNL     1      -0.096  -9.537   4.544  0.00  0.00    -0.166 F 
ENDBRANCH   2  17
BRANCH  13  21
ATOM     21  C   UNL     1      -0.018   0.003   0.000  0.00  0.00    +0.068 C 
ATOM     22  C   UNL     1      -0.043   1.353   0.008  0.00  0.00    +0.014 C 
BRANCH  22  23
ATOM     23  C   UNL     1       1.215   2.112  -0.001  0.00  0.00    -0.007 A 
ATOM     24  C   UNL     1       2.442   1.438  -0.012  0.00  0.00    +0.058 A 
ATOM     25  C   UNL     1       3.621   2.155  -0.026  0.00  0.00    +0.167 A 
ATOM     26  C   UNL     1       3.589   3.551  -0.017  0.00  0.00    +0.167 A 
ATOM     27  C   UNL     1       2.373   4.220  -0.001  0.00  0.00    +0.065 A 
ATOM     28  C   UNL     1       1.191   3.512   0.007  0.00  0.00    +0.029 A 
ATOM     29 BR   UNL     1      -0.462   4.430   0.031  0.00  0.00    -0.050 Br
ATOM     30  O   UNL     1       4.872   4.014  -0.028  0.00  0.00    -0.453 OA
ATOM     31  C   UNL     1       5.689   2.898   0.371  0.00  0.00    +0.466 C 
ATOM     32  O   UNL     1       4.925   1.749  -0.041  0.00  0.00    -0.453 OA
ENDBRANCH  22  23
ENDBRANCH  13  21
TORSDOF 3
