REMARK  Name = ZINC07977204
REMARK  9 active torsions:
REMARK  status: ('A' for Active; 'I' for Inactive)
REMARK    1  A    between atoms: C_1  and  C_2
REMARK    2  A    between atoms: C_5  and  N_9
REMARK    3  A    between atoms: N_9  and  N_10
REMARK    4  A    between atoms: C_11  and  C_12
REMARK    5  A    between atoms: C_11  and  C_13
REMARK    6  A    between atoms: C_17  and  S_19
REMARK    7  A    between atoms: S_19  and  N_22
REMARK    8  A    between atoms: N_22  and  C_23
REMARK    9  A    between atoms: C_23  and  C_24
REMARK                            x       y       z     vdW  Elec       q    Type
REMARK                         _______ _______ _______ _____ _____    ______ ____
ROOT
ATOM      1  C   UNL     1      -2.401   5.579   0.044  0.00  0.00    -0.001 A 
ATOM      2  C   UNL     1      -3.618   6.266   0.047  0.00  0.00    +0.010 A 
ATOM      3  C   UNL     1      -3.627   7.645   0.060  0.00  0.00    +0.003 A 
ATOM      4  C   UNL     1      -2.435   8.348   0.059  0.00  0.00    +0.028 A 
ATOM      5  C   UNL     1      -1.226   7.674   0.050  0.00  0.00    +0.106 A 
ATOM      6  C   UNL     1      -1.202   6.295   0.042  0.00  0.00    +0.038 A 
ENDROOT
BRANCH   1   8
ATOM      7  N   UNL     1      -1.251   3.469   0.027  0.00  0.00    -0.187 NA
ATOM      8  C   UNL     1      -2.383   4.104   0.036  0.00  0.00    +0.063 C 
ATOM      9  C   UNL     1      -3.679   3.335   0.038  0.00  0.00    +0.068 C 
BRANCH   7  10
ATOM     10  N   UNL     1      -1.234   2.068   0.019  0.00  0.00    -0.237 N 
ATOM     11  H   UNL     1      -2.068   1.573   0.020  0.00  0.00    +0.174 HD
BRANCH  10  16
ATOM     12  C   UNL     1       3.713  -0.704  -0.038  0.00  0.00    +0.045 C 
ATOM     13  C   UNL     1       2.398   0.032  -0.021  0.00  0.00    -0.032 A 
ATOM     14  C   UNL     1       2.382   1.415  -0.013  0.00  0.00    +0.006 A 
ATOM     15  C   UNL     1       1.179   2.094   0.002  0.00  0.00    +0.025 A 
ATOM     16  C   UNL     1      -0.017   1.385   0.010  0.00  0.00    +0.050 A 
ATOM     17  C   UNL     1       0.002  -0.004   0.002  0.00  0.00    +0.045 A 
ATOM     18  C   UNL     1       1.209  -0.677  -0.013  0.00  0.00    +0.046 A 
ATOM     19 CL   UNL     1       1.235  -2.413  -0.023  0.00  0.00    -0.083 Cl
ENDBRANCH  10  16
ENDBRANCH   7  10
ENDBRANCH   1   8
BRANCH   5  20
ATOM     20  S   UNL     1       0.285   8.580   0.047  0.00  0.00    +0.059 S 
ATOM     21  O   UNL     1      -0.005   9.854   0.607  0.00  0.00    -0.153 OA
ATOM     22  O   UNL     1       1.276   7.718   0.589  0.00  0.00    -0.153 OA
BRANCH  20  23
ATOM     23  N   UNL     1       0.697   8.841  -1.535  0.00  0.00    -0.179 NA
ATOM     24  H   UNL     1       1.501   8.438  -1.899  0.00  0.00    +0.149 HD
BRANCH  23  25
ATOM     25  C   UNL     1      -0.152   9.680  -2.385  0.00  0.00    +0.230 C 
BRANCH  25  26
ATOM     26  C   UNL     1       0.605  10.059  -3.632  0.00  0.00    +0.371 C 
ATOM     27  O   UNL     1       1.737   9.669  -3.794  0.00  0.00    -0.245 OA
ATOM     28  O   UNL     1       0.021  10.831  -4.562  0.00  0.00    -0.245 OA
ENDBRANCH  25  26
ENDBRANCH  23  25
ENDBRANCH  20  23
ENDBRANCH   5  20
TORSDOF 7
