REMARK  Name = ZINC20532170
REMARK  11 active torsions:
REMARK  status: ('A' for Active; 'I' for Inactive)
REMARK    1  A    between atoms: C_1  and  C_2
REMARK    2  A    between atoms: C_5  and  N_9
REMARK    3  A    between atoms: N_12  and  C_13
REMARK    4  A    between atoms: C_13  and  C_15
REMARK    5  A    between atoms: C_13  and  C_20
REMARK    6  A    between atoms: C_15  and  C_16
REMARK    7  A    between atoms: C_16  and  C_17
REMARK    8  A    between atoms: C_17  and  C_18
REMARK    9  A    between atoms: C_17  and  C_19
REMARK   10  A    between atoms: C_24  and  N_25
REMARK   11  A    between atoms: N_31  and  C_34
REMARK                            x       y       z     vdW  Elec       q    Type
REMARK                         _______ _______ _______ _____ _____    ______ ____
ROOT
ATOM      1  C   UNL     1      -0.889   1.863   1.558  0.00  0.00    +0.108 C 
ENDROOT
BRANCH   1   2
ATOM      2  C   UNL     1      -0.100   0.940   2.450  0.00  0.00    +0.007 A 
ATOM      3  C   UNL     1      -0.749  -0.058   3.172  0.00  0.00    -0.034 A 
ATOM      4  C   UNL     1       0.031  -0.853   3.955  0.00  0.00    -0.021 A 
ATOM      5  S   UNL     1       1.667  -0.221   3.706  0.00  0.00    -0.077 S 
ATOM      6  C   UNL     1       1.248   1.083   2.558  0.00  0.00    +0.090 A 
ATOM      7  C   UNL     1      -0.423  -1.985   4.818  0.00  0.00    -0.036 C 
ATOM      8  N   UNL     1      -1.889  -1.896   4.959  0.00  0.00    +0.381 N 
ATOM      9  C   UNL     1      -2.526  -1.718   3.647  0.00  0.00    -0.074 C 
ATOM     10  C   UNL     1      -2.254  -0.309   3.114  0.00  0.00    +0.018 C 
ATOM     11  C   UNL     1      -2.424  -3.078   5.648  0.00  0.00    -0.096 C 
ATOM     12  H   UNL     1      -2.127  -1.016   5.575  0.00  0.00    -0.082 HD
BRANCH   6  13
ATOM     13  N   UNL     1       2.089   2.011   1.932  0.00  0.00    -0.317 N 
ATOM     14  C   UNL     1       1.717   2.893   0.959  0.00  0.00    +0.092 A 
ATOM     15  C   UNL     1       2.800   3.618   0.611  0.00  0.00    +0.019 A 
ATOM     16  C   UNL     1       3.882   3.162   1.389  0.00  0.00    +0.019 A 
ATOM     17  C   UNL     1       3.420   2.179   2.189  0.00  0.00    +0.092 A 
ENDBRANCH   6  13
ENDBRANCH   1   2
BRANCH   1  21
ATOM     18  N   UNL     1      -0.970   5.534   1.751  0.00  0.00    -0.269 N 
ATOM     19  C   UNL     1      -1.335   4.258   1.513  0.00  0.00    +0.304 C 
ATOM     20  O   UNL     1      -2.422   4.017   1.026  0.00  0.00    -0.252 OA
ATOM     21  N   UNL     1      -0.493   3.249   1.816  0.00  0.00    -0.292 N 
ATOM     22  H   UNL     1      -0.017   5.748   2.256  0.00  0.00    +0.156 HD
ATOM     23  H   UNL     1       0.491   3.467   2.257  0.00  0.00    +0.151 HD
BRANCH  18  28
ATOM     24  C   UNL     1      -4.349   9.800   0.142  0.00  0.00    +0.047 C 
ATOM     25  C   UNL     1      -3.452   8.666   0.569  0.00  0.00    -0.015 A 
ATOM     26  C   UNL     1      -2.079   8.812   0.508  0.00  0.00    +0.008 A 
ATOM     27  C   UNL     1      -1.254   7.778   0.905  0.00  0.00    +0.024 A 
ATOM     28  C   UNL     1      -1.805   6.585   1.354  0.00  0.00    +0.037 A 
ATOM     29  C   UNL     1      -3.184   6.439   1.415  0.00  0.00    +0.062 A 
ATOM     30  C   UNL     1      -4.005   7.480   1.023  0.00  0.00    +0.128 A 
ATOM     31  F   UNL     1      -5.348   7.340   1.081  0.00  0.00    -0.205 F 
ENDBRANCH  18  28
ENDBRANCH   1  21
BRANCH   1  32
ATOM     32  C   UNL     1      -0.611   1.517   0.093  0.00  0.00    +0.027 C 
BRANCH  32  33
ATOM     33  C   UNL     1      -1.504   2.368  -0.811  0.00  0.00    +0.005 C 
BRANCH  33  34
ATOM     34  C   UNL     1      -1.226   2.023  -2.275  0.00  0.00    -0.017 C 
ATOM     35  C   UNL     1      -1.639   0.575  -2.545  0.00  0.00    +0.007 C 
ATOM     36  C   UNL     1      -2.027   2.959  -3.181  0.00  0.00    +0.007 C 
ENDBRANCH  33  34
ENDBRANCH  32  33
ENDBRANCH   1  32
TORSDOF 7
