REMARK  Name = ZINC11801731
REMARK  9 active torsions:
REMARK  status: ('A' for Active; 'I' for Inactive)
REMARK    1  A    between atoms: C_1  and  C_2
REMARK    2  A    between atoms: C_6  and  O_9
REMARK    3  A    between atoms: C_7  and  C_8
REMARK    4  A    between atoms: O_9  and  C_10
REMARK    5  A    between atoms: C_10  and  C_11
REMARK    6  A    between atoms: C_11  and  O_12
REMARK    7  A    between atoms: O_12  and  C_13
REMARK    8  A    between atoms: C_18  and  C_19
REMARK    9  A    between atoms: C_19  and  N_21
REMARK                            x       y       z     vdW  Elec       q    Type
REMARK                         _______ _______ _______ _____ _____    ______ ____
ROOT
ATOM      1  O   UNL     1       2.365   1.124  -0.015  0.00  0.00    -0.488 OA
ENDROOT
BRANCH   1   2
ATOM      2  C   UNL     1       1.179   1.784   0.000  0.00  0.00    +0.130 A 
ATOM      3  C   UNL     1      -0.013   1.076   0.008  0.00  0.00    +0.047 A 
ATOM      4  C   UNL     1      -1.218   1.749   0.017  0.00  0.00    +0.019 A 
ATOM      5  C   UNL     1      -1.248   3.135   0.031  0.00  0.00    +0.019 A 
ATOM      6  C   UNL     1      -0.072   3.855   0.024  0.00  0.00    +0.029 A 
ATOM      7  C   UNL     1       1.155   3.186   0.008  0.00  0.00    +0.046 A 
ATOM      8 BR   UNL     1      -2.907   4.041   0.051  0.00  0.00    -0.050 Br
BRANCH   7   9
ATOM      9  C   UNL     1       2.415   3.949   0.001  0.00  0.00    +0.080 C 
ATOM     10  S   UNL     1       3.915   3.124  -0.018  0.00  0.00    -0.035 S 
BRANCH   9  11
ATOM     11  N   UNL     1       2.387   5.297   0.008  0.00  0.00    -0.352 N 
ATOM     12  H   UNL     1       1.537   5.764   0.018  0.00  0.00    +0.143 HD
ATOM     13  H   UNL     1       3.216   5.799   0.003  0.00  0.00    +0.143 HD
ENDBRANCH   9  11
ENDBRANCH   7   9
ENDBRANCH   1   2
BRANCH   1  14
ATOM     14  C   UNL     1       2.311  -0.304  -0.023  0.00  0.00    +0.270 C 
BRANCH  14  15
ATOM     15  C   UNL     1       3.734  -0.868  -0.040  0.00  0.00    +0.270 C 
BRANCH  15  16
ATOM     16  O   UNL     1       4.398  -0.520   1.177  0.00  0.00    -0.488 OA
BRANCH  16  22
ATOM     17  C   UNL     1       8.454  -0.754   3.882  0.00  0.00    +0.044 C 
ATOM     18  C   UNL     1       7.688  -1.081   2.626  0.00  0.00    -0.044 A 
ATOM     19  C   UNL     1       8.289  -1.817   1.622  0.00  0.00    +0.004 A 
ATOM     20  C   UNL     1       7.589  -2.118   0.468  0.00  0.00    +0.004 A 
ATOM     21  C   UNL     1       6.286  -1.685   0.317  0.00  0.00    +0.046 A 
ATOM     22  C   UNL     1       5.680  -0.947   1.323  0.00  0.00    +0.124 A 
ATOM     23  C   UNL     1       6.387  -0.641   2.478  0.00  0.00    -0.006 A 
ATOM     24  C   UNL     1       5.734   0.166   3.570  0.00  0.00    +0.048 C 
ENDBRANCH  16  22
ENDBRANCH  15  16
ENDBRANCH  14  15
ENDBRANCH   1  14
TORSDOF 7
