REMARK  Name = ZINC13346319
REMARK  9 active torsions:
REMARK  status: ('A' for Active; 'I' for Inactive)
REMARK    1  A    between atoms: C_2  and  C_3
REMARK    2  A    between atoms: C_3  and  N_4
REMARK    3  A    between atoms: C_5  and  C_24
REMARK    4  A    between atoms: C_8  and  S_9
REMARK    5  A    between atoms: S_9  and  C_10
REMARK    6  A    between atoms: C_10  and  C_11
REMARK    7  A    between atoms: N_13  and  C_14
REMARK    8  A    between atoms: C_16  and  C_22
REMARK    9  A    between atoms: C_18  and  C_20
REMARK                            x       y       z     vdW  Elec       q    Type
REMARK                         _______ _______ _______ _____ _____    ______ ____
ROOT
ATOM      1  C   UNL     1       7.037  -0.986  -0.032  0.00  0.00    +0.173 C 
ENDROOT
BRANCH   1   2
ATOM      2  C   UNL     1       8.541  -1.088  -0.037  0.00  0.00    +0.227 C 
ATOM      3  O   UNL     1       9.217  -0.081  -0.026  0.00  0.00    -0.275 OA
ATOM      4  N   UNL     1       9.134  -2.298  -0.055  0.00  0.00    -0.285 N 
ATOM      5  H   UNL     1       8.595  -3.101  -0.131  0.00  0.00    +0.155 HD
BRANCH   4   6
ATOM      6  C   UNL     1      10.527  -2.396   0.036  0.00  0.00    +0.035 A 
ATOM      7  C   UNL     1      11.329  -1.438  -0.567  0.00  0.00    +0.038 A 
ATOM      8  C   UNL     1      12.719  -1.530  -0.473  0.00  0.00    +0.066 A 
ATOM      9  C   UNL     1      13.301  -2.591   0.218  0.00  0.00    +0.030 A 
ATOM     10  C   UNL     1      12.492  -3.554   0.819  0.00  0.00    +0.066 A 
ATOM     11  C   UNL     1      11.103  -3.454   0.725  0.00  0.00    +0.038 A 
BRANCH  10  12
ATOM     12  C   UNL     1      13.105  -4.681   1.553  0.00  0.00    +0.387 C 
ATOM     13  O   UNL     1      12.399  -5.520   2.076  0.00  0.00    -0.241 OA
ATOM     14  O   UNL     1      14.445  -4.777   1.643  0.00  0.00    -0.241 OA
ENDBRANCH  10  12
BRANCH   8  15
ATOM     15  C   UNL     1      13.573  -0.506  -1.111  0.00  0.00    +0.387 C 
ATOM     16  O   UNL     1      13.065   0.418  -1.714  0.00  0.00    -0.241 OA
ATOM     17  O   UNL     1      14.914  -0.598  -1.025  0.00  0.00    -0.241 OA
ENDBRANCH   8  15
ENDBRANCH   4   6
ENDBRANCH   1   2
BRANCH   1  18
ATOM     18  S   UNL     1       6.551   0.758  -0.008  0.00  0.00    -0.078 S 
BRANCH  18  23
ATOM     19  N   UNL     1       3.900   1.610   0.010  0.00  0.00    -0.315 N 
ATOM     20  C   UNL     1       2.639   1.039   0.005  0.00  0.00    +0.070 A 
ATOM     21  C   UNL     1       2.822  -0.307  -0.008  0.00  0.00    +0.140 A 
ATOM     22  N   UNL     1       4.139  -0.550  -0.020  0.00  0.00    -0.230 NA
ATOM     23  C   UNL     1       4.798   0.587  -0.006  0.00  0.00    +0.170 A 
BRANCH  20  24
ATOM     24  C   UNL     1       1.346   1.754   0.018  0.00  0.00    +0.000 A 
ATOM     25  C   UNL     1       0.187   1.115  -0.427  0.00  0.00    +0.011 A 
ATOM     26  C   UNL     1      -1.016   1.790  -0.417  0.00  0.00    +0.020 A 
ATOM     27  C   UNL     1      -1.078   3.095   0.043  0.00  0.00    +0.041 A 
ATOM     28  C   UNL     1       0.068   3.734   0.486  0.00  0.00    +0.020 A 
ATOM     29  C   UNL     1       1.278   3.072   0.476  0.00  0.00    +0.011 A 
ATOM     30 CL   UNL     1      -2.597   3.934   0.059  0.00  0.00    -0.084 Cl
ENDBRANCH  20  24
BRANCH  19  31
ATOM     31  C   UNL     1       4.210   3.042   0.029  0.00  0.00    +0.151 C 
BRANCH  31  33
ATOM     32  C   UNL     1       5.552   4.094   1.776  0.00  0.00    +0.005 C 
ATOM     33  C   UNL     1       4.437   3.488   1.450  0.00  0.00    -0.013 C 
ENDBRANCH  31  33
ENDBRANCH  19  31
ENDBRANCH  18  23
ENDBRANCH   1  18
TORSDOF 9
