REMARK  Name = ZINC37587463
REMARK  8 active torsions:
REMARK  status: ('A' for Active; 'I' for Inactive)
REMARK    1  A    between atoms: C_1  and  O_2
REMARK    2  A    between atoms: O_2  and  C_3
REMARK    3  A    between atoms: C_8  and  C_9
REMARK    4  A    between atoms: C_9  and  N_10
REMARK    5  A    between atoms: C_13  and  N_16
REMARK    6  A    between atoms: N_16  and  C_17
REMARK    7  A    between atoms: N_16  and  S_26
REMARK    8  A    between atoms: S_26  and  C_29
REMARK                            x       y       z     vdW  Elec       q    Type
REMARK                         _______ _______ _______ _____ _____    ______ ____
ROOT
ATOM      1  N   UNL     1       2.108  -4.245   5.031  0.00  0.00    -0.200 N 
ENDROOT
BRANCH   1   2
ATOM      2  C   UNL     1       2.244  -3.045   5.739  0.00  0.00    +0.055 A 
ATOM      3  C   UNL     1       3.050  -2.031   5.238  0.00  0.00    +0.028 A 
ATOM      4  C   UNL     1       3.184  -0.846   5.936  0.00  0.00    +0.051 A 
ATOM      5  C   UNL     1       2.515  -0.665   7.135  0.00  0.00    +0.166 A 
ATOM      6  C   UNL     1       1.706  -1.680   7.640  0.00  0.00    +0.168 A 
ATOM      7  C   UNL     1       1.568  -2.866   6.938  0.00  0.00    +0.074 A 
ATOM      8  O   UNL     1       1.165  -1.261   8.821  0.00  0.00    -0.453 OA
ATOM      9  C   UNL     1       1.972  -0.143   9.238  0.00  0.00    +0.466 C 
ATOM     10  O   UNL     1       2.482   0.391   8.002  0.00  0.00    -0.453 OA
ENDBRANCH   1   2
BRANCH   1  14
ATOM     11  N   UNL     1      -0.209  -2.841   1.803  0.00  0.00    +0.383 N 
ATOM     12  C   UNL     1      -0.881  -3.727   2.762  0.00  0.00    -0.077 C 
ATOM     13  C   UNL     1      -0.091  -3.760   4.072  0.00  0.00    +0.006 C 
ATOM     14  C   UNL     1       1.322  -4.282   3.796  0.00  0.00    +0.095 C 
ATOM     15  C   UNL     1       1.986  -3.394   2.739  0.00  0.00    +0.006 C 
ATOM     16  C   UNL     1       1.119  -3.374   1.479  0.00  0.00    -0.077 C 
ATOM     17  H   UNL     1      -0.112  -1.922   2.208  0.00  0.00    -0.081 HD
BRANCH  11  18
ATOM     18  C   UNL     1      -1.012  -2.751   0.576  0.00  0.00    -0.039 C 
BRANCH  18  24
ATOM     19  C   UNL     1      -2.407  -0.710   0.995  0.00  0.00    +0.121 A 
ATOM     20  C   UNL     1      -3.623  -0.104   1.275  0.00  0.00    +0.046 A 
ATOM     21  C   UNL     1      -4.754  -0.878   1.449  0.00  0.00    +0.004 A 
ATOM     22  C   UNL     1      -4.675  -2.254   1.345  0.00  0.00    +0.000 A 
ATOM     23  C   UNL     1      -3.464  -2.860   1.067  0.00  0.00    +0.005 A 
ATOM     24  C   UNL     1      -2.331  -2.091   0.886  0.00  0.00    -0.022 A 
BRANCH  19  26
ATOM     25  C   UNL     1      -1.445   1.464   0.950  0.00  0.00    +0.277 C 
ATOM     26  O   UNL     1      -1.292   0.049   0.823  0.00  0.00    -0.495 OA
ENDBRANCH  19  26
ENDBRANCH  18  24
ENDBRANCH  11  18
ENDBRANCH   1  14
BRANCH   1  27
ATOM     27  S   UNL     1       2.836  -5.623   5.591  0.00  0.00    +0.075 S 
ATOM     28  O   UNL     1       3.147  -5.392   6.958  0.00  0.00    -0.150 OA
ATOM     29  O   UNL     1       2.026  -6.711   5.168  0.00  0.00    -0.150 OA
BRANCH  27  30
ATOM     30  C   UNL     1       4.374  -5.780   4.745  0.00  0.00    +0.109 A 
ATOM     31  C   UNL     1       4.437  -6.472   3.550  0.00  0.00    +0.030 A 
ATOM     32  C   UNL     1       5.643  -6.595   2.886  0.00  0.00    +0.022 A 
ATOM     33  C   UNL     1       6.787  -6.027   3.418  0.00  0.00    +0.041 A 
ATOM     34  C   UNL     1       6.723  -5.336   4.614  0.00  0.00    +0.022 A 
ATOM     35  C   UNL     1       5.515  -5.208   5.274  0.00  0.00    +0.030 A 
ATOM     36 CL   UNL     1       8.302  -6.183   2.584  0.00  0.00    -0.084 Cl
ENDBRANCH  27  30
ENDBRANCH   1  27
TORSDOF 7
