REMARK  Name = ZINC38966046
REMARK  7 active torsions:
REMARK  status: ('A' for Active; 'I' for Inactive)
REMARK    1  A    between atoms: C_1  and  C_2
REMARK    2  A    between atoms: C_6  and  C_8
REMARK    3  A    between atoms: N_14  and  N_15
REMARK    4  A    between atoms: C_16  and  C_17
REMARK    5  A    between atoms: C_19  and  O_25
REMARK    6  A    between atoms: C_20  and  O_24
REMARK    7  A    between atoms: O_25  and  C_26
REMARK                            x       y       z     vdW  Elec       q    Type
REMARK                         _______ _______ _______ _____ _____    ______ ____
ROOT
ATOM      1  C   UNL     1       0.064  -2.852   2.501  0.00  0.00    +0.264 C 
ATOM      2  N   UNL     1      -0.703  -2.126   3.525  0.00  0.00    -0.189 NA
ATOM      3  N   UNL     1      -1.651  -2.837   3.870  0.00  0.00    -0.219 N 
ATOM      4  C   UNL     1      -1.694  -4.031   3.220  0.00  0.00    +0.174 C 
ATOM      5  S   UNL     1      -2.881  -5.240   3.469  0.00  0.00    -0.015 S 
ATOM      6  N   UNL     1      -0.662  -4.126   2.349  0.00  0.00    -0.172 N 
ATOM      7  H   UNL     1      -2.300  -2.571   4.539  0.00  0.00    +0.176 HD
ENDROOT
BRANCH   1  13
ATOM      8  C   UNL     1       0.055   1.505   0.037  0.00  0.00    +0.044 C 
ATOM      9  C   UNL     1       0.062  -0.002   0.024  0.00  0.00    -0.050 A 
ATOM     10  C   UNL     1       0.072  -0.683  -1.179  0.00  0.00    +0.003 A 
ATOM     11  C   UNL     1       0.079  -2.065  -1.192  0.00  0.00    +0.001 A 
ATOM     12  C   UNL     1       0.076  -2.767  -0.001  0.00  0.00    +0.007 A 
ATOM     13  C   UNL     1       0.067  -2.086   1.202  0.00  0.00    -0.002 A 
ATOM     14  C   UNL     1       0.065  -0.704   1.215  0.00  0.00    +0.010 A 
ENDBRANCH   1  13
BRANCH   6  15
ATOM     15  N   UNL     1      -0.352  -5.193   1.494  0.00  0.00    -0.183 NA
ATOM     16  C   UNL     1      -1.032  -6.298   1.562  0.00  0.00    +0.138 C 
BRANCH  16  17
ATOM     17  C   UNL     1      -0.636  -7.457   0.743  0.00  0.00    -0.001 A 
ATOM     18  C   UNL     1      -1.370  -8.645   0.810  0.00  0.00    +0.059 A 
ATOM     19  C   UNL     1      -0.996  -9.729   0.039  0.00  0.00    +0.163 A 
ATOM     20  C   UNL     1       0.111  -9.638  -0.802  0.00  0.00    +0.173 A 
ATOM     21  C   UNL     1       0.841  -8.459  -0.869  0.00  0.00    +0.063 A 
ATOM     22  C   UNL     1       0.469  -7.370  -0.107  0.00  0.00    +0.028 A 
ATOM     23 BR   UNL     1       2.343  -8.342  -2.012  0.00  0.00    -0.046 Br
BRANCH  20  24
ATOM     24  O   UNL     1       0.478 -10.706  -1.559  0.00  0.00    -0.503 OA
ATOM     25  H   UNL     1       0.064 -10.730  -2.432  0.00  0.00    +0.292 HD
ENDBRANCH  20  24
BRANCH  19  26
ATOM     26  O   UNL     1      -1.707 -10.886   0.102  0.00  0.00    -0.491 OA
ATOM     27  C   UNL     1      -2.830 -10.910   0.986  0.00  0.00    +0.277 C 
ENDBRANCH  19  26
ENDBRANCH  16  17
ENDBRANCH   6  15
TORSDOF 5
