REMARK  Name = ZINC09812389
REMARK  8 active torsions:
REMARK  status: ('A' for Active; 'I' for Inactive)
REMARK    1  A    between atoms: C_1  and  N_54
REMARK    2  A    between atoms: C_2  and  C_3
REMARK    3  A    between atoms: C_2  and  N_54
REMARK    4  A    between atoms: N_5  and  C_6
REMARK    5  A    between atoms: N_5  and  C_7
REMARK    6  A    between atoms: C_7  and  C_8
REMARK    7  A    between atoms: N_10  and  C_11
REMARK    8  A    between atoms: C_19  and  N_54
REMARK                            x       y       z     vdW  Elec       q    Type
REMARK                         _______ _______ _______ _____ _____    ______ ____
ROOT
ATOM      1  C   UNL     1      -2.559  -2.925   2.262  0.00  0.00    +0.199 C 
ATOM      2  O   UNL     1      -1.650  -2.756   3.048  0.00  0.00    -0.278 OA
ATOM      3  N   UNL     1      -2.349  -2.754   0.942  0.00  0.00    -0.297 N 
ATOM      4  C   UNL     1      -3.446  -2.958  -0.007  0.00  0.00    +0.132 C 
ENDROOT
BRANCH   1   5
ATOM      5  C   UNL     1      -3.923  -3.325   2.763  0.00  0.00    +0.019 C 
BRANCH   5   7
ATOM      6  C   UNL     1      -3.898  -2.122   4.863  0.00  0.00    -0.095 C 
ATOM      7  N   UNL     1      -3.867  -3.458   4.234  0.00  0.00    +0.388 N 
ATOM      8  H   UNL     1      -2.993  -3.929   4.493  0.00  0.00    -0.081 HD
BRANCH   7   9
ATOM      9  C   UNL     1      -5.008  -4.268   4.711  0.00  0.00    -0.037 C 
ATOM     10  C   UNL     1      -6.317  -3.729   4.138  0.00  0.00    -0.010 C 
ATOM     11  C   UNL     1      -7.437  -4.721   4.474  0.00  0.00    +0.003 C 
ATOM     12  C   UNL     1      -7.223  -5.988   3.648  0.00  0.00    +0.035 C 
ATOM     13  C   UNL     1      -5.811  -6.488   3.801  0.00  0.00    -0.046 A 
ATOM     14  C   UNL     1      -4.793  -5.697   4.286  0.00  0.00    -0.058 A 
ATOM     15  C   UNL     1      -3.510  -6.218   4.397  0.00  0.00    +0.002 A 
ATOM     16  C   UNL     1      -3.249  -7.522   4.029  0.00  0.00    +0.000 A 
ATOM     17  C   UNL     1      -4.271  -8.317   3.545  0.00  0.00    +0.000 A 
ATOM     18  C   UNL     1      -5.546  -7.801   3.433  0.00  0.00    +0.004 A 
ENDBRANCH   7   9
ENDBRANCH   5   7
ENDBRANCH   1   5
BRANCH   3  19
ATOM     19  C   UNL     1      -1.023  -2.365   0.456  0.00  0.00    +0.203 C 
BRANCH  19  20
ATOM     20  C   UNL     1      -0.926  -0.862   0.409  0.00  0.00    +0.235 C 
ATOM     21  O   UNL     1      -1.872  -0.183   0.749  0.00  0.00    -0.274 OA
ATOM     22  N   UNL     1       0.211  -0.273  -0.010  0.00  0.00    -0.282 N 
ATOM     23  H   UNL     1       0.938  -0.813  -0.358  0.00  0.00    +0.155 HD
BRANCH  22  24
ATOM     24  C   UNL     1       0.344   1.120   0.056  0.00  0.00    +0.070 A 
ATOM     25  C   UNL     1      -0.630   1.939  -0.501  0.00  0.00    +0.064 A 
ATOM     26  C   UNL     1      -0.498   3.313  -0.430  0.00  0.00    +0.022 A 
ATOM     27  C   UNL     1       0.607   3.873   0.186  0.00  0.00    +0.003 A 
ATOM     28  C   UNL     1       1.580   3.060   0.737  0.00  0.00    +0.022 A 
ATOM     29  C   UNL     1       1.453   1.685   0.673  0.00  0.00    +0.064 A 
ATOM     30 CL   UNL     1       2.676   0.666   1.364  0.00  0.00    -0.082 Cl
ATOM     31 CL   UNL     1      -2.014   1.238  -1.280  0.00  0.00    -0.082 Cl
ENDBRANCH  22  24
ENDBRANCH  19  20
ENDBRANCH   3  19
TORSDOF 6
