REMARK  Name = ZINC41058312
REMARK  4 active torsions:
REMARK  status: ('A' for Active; 'I' for Inactive)
REMARK    1  A    between atoms: C_2  and  O_24
REMARK    2  A    between atoms: C_6  and  C_8
REMARK    3  A    between atoms: C_11  and  C_13
REMARK    4  A    between atoms: C_13  and  C_14
REMARK                            x       y       z     vdW  Elec       q    Type
REMARK                         _______ _______ _______ _____ _____    ______ ____
ROOT
ATOM      1  C   UNL     1      -0.019   1.539   0.011  0.00  0.00    +0.064 C 
ATOM      2  C   UNL     1       1.488   1.907  -0.002  0.00  0.00    +0.134 C 
ATOM      3  C   UNL     1       2.075   0.785  -0.895  0.00  0.00    +0.140 C 
ATOM      4  N   UNL     1       1.303  -0.420  -0.543  0.00  0.00    -0.287 N 
ATOM      5  C   UNL     1       0.002  -0.004   0.002  0.00  0.00    +0.164 C 
ATOM      6  C   UNL     1       1.720  -1.692  -0.696  0.00  0.00    +0.217 C 
ATOM      7  O   UNL     1       0.997  -2.611  -0.371  0.00  0.00    -0.276 OA
ENDROOT
BRANCH   5   8
ATOM      8  C   UNL     1      -0.156  -0.526   1.407  0.00  0.00    +0.231 C 
ATOM      9  O   UNL     1       0.723  -1.196   1.907  0.00  0.00    -0.274 OA
ATOM     10  N   UNL     1      -1.274  -0.250   2.107  0.00  0.00    -0.328 N 
ATOM     11  H   UNL     1      -1.977   0.285   1.707  0.00  0.00    +0.145 HD
ATOM     12  H   UNL     1      -1.375  -0.586   3.011  0.00  0.00    +0.145 HD
ENDBRANCH   5   8
BRANCH   2  13
ATOM     13  O   UNL     1       1.697   3.193  -0.590  0.00  0.00    -0.390 OA
ATOM     14  H   UNL     1       2.624   3.466  -0.620  0.00  0.00    +0.210 HD
ENDBRANCH   2  13
BRANCH   6  15
ATOM     15  C   UNL     1       3.084  -1.974  -1.271  0.00  0.00    +0.103 C 
BRANCH  15  16
ATOM     16  C   UNL     1       3.307  -3.487  -1.337  0.00  0.00    -0.020 C 
ATOM     17  C   UNL     1       3.214  -4.078   0.071  0.00  0.00    +0.011 C 
ATOM     18  C   UNL     1       3.437  -5.590   0.005  0.00  0.00    -0.010 C 
ATOM     19  C   UNL     1       4.822  -5.877  -0.579  0.00  0.00    +0.007 C 
ATOM     20  C   UNL     1       4.914  -5.285  -1.987  0.00  0.00    -0.010 C 
ATOM     21  C   UNL     1       4.691  -3.773  -1.921  0.00  0.00    +0.011 C 
ATOM     22  C   UNL     1       3.844  -5.920  -2.878  0.00  0.00    +0.007 C 
ATOM     23  C   UNL     1       2.459  -5.634  -2.294  0.00  0.00    -0.010 C 
ATOM     24  C   UNL     1       2.367  -6.225  -0.886  0.00  0.00    +0.007 C 
ATOM     25  C   UNL     1       2.237  -4.121  -2.228  0.00  0.00    +0.011 C 
ENDBRANCH  15  16
ENDBRANCH   6  15
TORSDOF 4
