REMARK  Name = ZINC65314639
REMARK  3 active torsions:
REMARK  status: ('A' for Active; 'I' for Inactive)
REMARK    1  A    between atoms: C_1  and  C_2
REMARK    2  A    between atoms: C_4  and  N_9
REMARK    3  A    between atoms: C_10  and  N_12
REMARK                            x       y       z     vdW  Elec       q    Type
REMARK                         _______ _______ _______ _____ _____    ______ ____
ROOT
ATOM      1  N   UNL     1       0.028  -2.771  -2.420  0.00  0.00    -0.268 N 
ATOM      2  C   UNL     1       0.148  -4.113  -2.428  0.00  0.00    +0.330 C 
ATOM      3  O   UNL     1       0.162  -4.730  -1.376  0.00  0.00    -0.250 OA
ATOM      4  H   UNL     1      -0.061  -2.287  -3.256  0.00  0.00    +0.156 HD
ENDROOT
BRANCH   2   5
ATOM      5  N   UNL     1       0.251  -4.767  -3.587  0.00  0.00    -0.127 NA
ATOM      6  C   UNL     1       0.370  -6.095  -3.594  0.00  0.00    +0.225 A 
ATOM      7  N   UNL     1       0.393  -6.899  -2.512  0.00  0.00    -0.246 N 
ATOM      8  N   UNL     1       0.530  -8.218  -2.964  0.00  0.00    -0.153 NA
ATOM      9  C   UNL     1       0.586  -8.198  -4.277  0.00  0.00    +0.161 A 
ATOM     10  N   UNL     1       0.484  -6.888  -4.700  0.00  0.00    -0.254 N 
ATOM     11  C   UNL     1       0.511  -6.594  -6.040  0.00  0.00    +0.118 A 
ATOM     12  C   UNL     1       0.634  -7.574  -6.957  0.00  0.00    +0.039 A 
ATOM     13  C   UNL     1       0.738  -8.920  -6.554  0.00  0.00    +0.007 A 
ATOM     14  C   UNL     1       0.721  -9.234  -5.235  0.00  0.00    +0.049 A 
ATOM     15 CL   UNL     1       0.386  -4.942  -6.561  0.00  0.00    -0.063 Cl
ATOM     16  H   UNL     1       0.327  -6.615  -1.587  0.00  0.00    +0.192 HD
ENDBRANCH   2   5
BRANCH   1  20
ATOM     17  C   UNL     1       1.623  -2.350   2.212  0.00  0.00    +0.045 C 
ATOM     18  C   UNL     1       0.796  -1.849   1.056  0.00  0.00    -0.035 A 
ATOM     19  C   UNL     1       0.794  -2.538  -0.141  0.00  0.00    +0.027 A 
ATOM     20  C   UNL     1       0.031  -2.075  -1.206  0.00  0.00    +0.035 A 
ATOM     21  C   UNL     1      -0.728  -0.921  -1.063  0.00  0.00    +0.024 A 
ATOM     22  C   UNL     1      -0.722  -0.236   0.136  0.00  0.00    +0.017 A 
ATOM     23  C   UNL     1       0.034  -0.702   1.197  0.00  0.00    +0.021 A 
ATOM     24 BR   UNL     1       0.033   0.234   2.840  0.00  0.00    -0.050 Br
ENDBRANCH   1  20
TORSDOF 2
