REMARK  Name = ZINC07695908
REMARK  8 active torsions:
REMARK  status: ('A' for Active; 'I' for Inactive)
REMARK    1  A    between atoms: C_1  and  C_2
REMARK    2  A    between atoms: C_2  and  C_3
REMARK    3  A    between atoms: C_2  and  C_4
REMARK    4  A    between atoms: C_4  and  C_6
REMARK    5  A    between atoms: C_4  and  N_16
REMARK    6  A    between atoms: C_17  and  C_19
REMARK    7  A    between atoms: C_19  and  S_20
REMARK    8  A    between atoms: S_20  and  C_21
REMARK                            x       y       z     vdW  Elec       q    Type
REMARK                         _______ _______ _______ _____ _____    ______ ____
ROOT
ATOM      1  N   UNL     1       4.577  -4.793  -0.087  0.00  0.00    -0.308 N 
ATOM      2  C   UNL     1       4.691  -3.450  -0.079  0.00  0.00    +0.224 C 
ATOM      3  O   UNL     1       5.789  -2.935  -0.089  0.00  0.00    -0.275 OA
ATOM      4  H   UNL     1       3.699  -5.205  -0.078  0.00  0.00    +0.149 HD
ENDROOT
BRANCH   1   5
ATOM      5  C   UNL     1       5.779  -5.630  -0.108  0.00  0.00    +0.106 C 
BRANCH   5   6
ATOM      6  C   UNL     1       5.462  -6.978   0.488  0.00  0.00    -0.023 A 
ATOM      7  C   UNL     1       4.256  -7.591   0.205  0.00  0.00    +0.009 A 
ATOM      8  C   UNL     1       3.962  -8.827   0.749  0.00  0.00    +0.050 A 
ATOM      9  C   UNL     1       4.877  -9.455   1.582  0.00  0.00    +0.162 A 
ATOM     10  C   UNL     1       6.090  -8.840   1.864  0.00  0.00    +0.162 A 
ATOM     11  C   UNL     1       6.381  -7.602   1.311  0.00  0.00    +0.055 A 
ATOM     12  O   UNL     1       7.004  -9.440   2.675  0.00  0.00    -0.485 OA
ATOM     13  C   UNL     1       6.526 -10.503   3.506  0.00  0.00    +0.270 C 
ATOM     14  C   UNL     1       5.659 -11.433   2.646  0.00  0.00    +0.270 C 
ATOM     15  O   UNL     1       4.570 -10.668   2.117  0.00  0.00    -0.485 OA
ENDBRANCH   5   6
BRANCH   5  17
ATOM     16  C   UNL     1       6.572  -4.441  -2.156  0.00  0.00    +0.009 C 
ATOM     17  C   UNL     1       6.251  -5.809  -1.552  0.00  0.00    +0.008 C 
ATOM     18  C   UNL     1       7.506  -6.684  -1.574  0.00  0.00    +0.009 C 
ENDBRANCH   5  17
ENDBRANCH   1   5
BRANCH   2  19
ATOM     19  C   UNL     1       3.455  -2.589  -0.058  0.00  0.00    +0.170 C 
BRANCH  19  20
ATOM     20  S   UNL     1       3.936  -0.840  -0.052  0.00  0.00    -0.116 S 
BRANCH  20  21
ATOM     21  C   UNL     1       2.401   0.025  -0.026  0.00  0.00    +0.012 A 
ATOM     22  C   UNL     1       1.205  -0.682  -0.016  0.00  0.00    +0.018 A 
ATOM     23  C   UNL     1       0.002  -0.004   0.002  0.00  0.00    +0.050 A 
ATOM     24  C   UNL     1      -0.017   1.383   0.010  0.00  0.00    +0.162 A 
ATOM     25  C   UNL     1       1.178   2.093   0.002  0.00  0.00    +0.163 A 
ATOM     26  C   UNL     1       2.386   1.413  -0.017  0.00  0.00    +0.064 A 
ATOM     27  O   UNL     1       1.179   3.454   0.018  0.00  0.00    -0.485 OA
ATOM     28  C   UNL     1      -0.045   4.104  -0.340  0.00  0.00    +0.270 C 
ATOM     29  C   UNL     1      -1.193   3.412   0.408  0.00  0.00    +0.270 C 
ATOM     30  O   UNL     1      -1.214   2.034   0.019  0.00  0.00    -0.485 OA
ENDBRANCH  20  21
ENDBRANCH  19  20
ENDBRANCH   2  19
TORSDOF 6
