REMARK  Name = ZINC65168243
REMARK  6 active torsions:
REMARK  status: ('A' for Active; 'I' for Inactive)
REMARK    1  A    between atoms: C_1  and  C_2
REMARK    2  A    between atoms: C_2  and  C_3
REMARK    3  A    between atoms: C_2  and  C_4
REMARK    4  A    between atoms: C_5  and  C_10
REMARK    5  A    between atoms: C_8  and  N_9
REMARK    6  A    between atoms: C_16  and  C_18
REMARK                            x       y       z     vdW  Elec       q    Type
REMARK                         _______ _______ _______ _____ _____    ______ ____
ROOT
ATOM      1  C   UNL     1      -1.318  -1.849  -2.212  0.00  0.00    +0.044 C 
ATOM      2  C   UNL     1      -1.312  -3.380  -2.202  0.00  0.00    +0.029 C 
ATOM      3  C   UNL     1      -0.592  -3.892  -3.453  0.00  0.00    +0.108 C 
ATOM      4  N   UNL     1      -1.224  -3.298  -4.639  0.00  0.00    -0.299 N 
ATOM      5  C   UNL     1      -1.363  -1.837  -4.709  0.00  0.00    +0.108 C 
ATOM      6  C   UNL     1      -2.075  -1.348  -3.444  0.00  0.00    +0.029 C 
ATOM      7  C   UNL     1      -1.669  -4.079  -5.644  0.00  0.00    +0.244 C 
ATOM      8  O   UNL     1      -1.548  -5.284  -5.574  0.00  0.00    -0.273 OA
ENDROOT
BRANCH   1  10
ATOM      9  C   UNL     1      -1.412  -0.526   0.013  0.00  0.00    +0.039 A 
ATOM     10  C   UNL     1      -1.996  -1.342  -0.965  0.00  0.00    +0.092 A 
ATOM     11  N   UNL     1      -3.228  -1.586  -0.611  0.00  0.00    -0.081 NA
ATOM     12  O   UNL     1      -3.471  -0.926   0.618  0.00  0.00    -0.339 OA
ATOM     13  C   UNL     1      -2.342  -0.292   0.976  0.00  0.00    +0.219 A 
BRANCH   9  15
ATOM     14  C   UNL     1      -0.019   1.526   0.010  0.00  0.00    +0.012 C 
ATOM     15  C   UNL     1       0.002  -0.004   0.002  0.00  0.00    +0.020 C 
ATOM     16  C   UNL     1       0.742  -0.511   1.242  0.00  0.00    +0.012 C 
ENDBRANCH   9  15
BRANCH  13  17
ATOM     17  N   UNL     1      -2.160   0.467   2.117  0.00  0.00    -0.327 N 
ATOM     18  H   UNL     1      -1.304   0.890   2.287  0.00  0.00    +0.145 HD
ATOM     19  H   UNL     1      -2.889   0.576   2.748  0.00  0.00    +0.145 HD
ENDBRANCH  13  17
ENDBRANCH   1  10
BRANCH   7  20
ATOM     20  C   UNL     1      -2.316  -3.455  -6.854  0.00  0.00    +0.204 C 
ATOM     21  C   UNL     1      -3.637  -2.769  -6.446  0.00  0.00    +0.043 C 
ATOM     22  C   UNL     1      -4.567  -3.108  -7.642  0.00  0.00    +0.031 C 
ATOM     23  C   UNL     1      -4.053  -4.519  -8.024  0.00  0.00    +0.161 C 
ATOM     24  O   UNL     1      -2.631  -4.470  -7.814  0.00  0.00    -0.367 OA
ENDBRANCH   7  20
TORSDOF 4
