REMARK  Name = ZINC37427961
REMARK  15 active torsions:
REMARK  status: ('A' for Active; 'I' for Inactive)
REMARK    1  A    between atoms: C_1  and  C_2
REMARK    2  A    between atoms: C_6  and  C_8
REMARK    3  A    between atoms: C_11  and  C_36
REMARK    4  A    between atoms: N_13  and  C_28
REMARK    5  A    between atoms: N_15  and  C_20
REMARK    6  A    between atoms: C_20  and  C_21
REMARK    7  A    between atoms: N_23  and  C_24
REMARK    8  A    between atoms: C_24  and  C_25
REMARK    9  A    between atoms: C_25  and  O_26
REMARK   10  A    between atoms: O_26  and  C_27
REMARK   11  A    between atoms: C_32  and  C_35
REMARK   12  A    between atoms: C_33  and  C_34
REMARK   13  A    between atoms: C_36  and  C_37
REMARK   14  A    between atoms: C_36  and  C_38
REMARK   15  A    between atoms: C_36  and  C_39
REMARK                            x       y       z     vdW  Elec       q    Type
REMARK                         _______ _______ _______ _____ _____    ______ ____
ROOT
ATOM      1  C   UNL     1       0.316  -0.595   0.192  0.00  0.00    +0.112 C 
ATOM      2  C   UNL     1       0.324  -1.389   1.473  0.00  0.00    +0.034 A 
ATOM      3  C   UNL     1       0.470  -2.770   1.611  0.00  0.00    +0.075 A 
ATOM      4  N   UNL     1       0.426  -3.062   2.889  0.00  0.00    -0.169 NA
ATOM      5  N   UNL     1       0.250  -1.870   3.610  0.00  0.00    -0.217 N 
ATOM      6  C   UNL     1       0.188  -0.859   2.711  0.00  0.00    +0.136 A 
ATOM      7  N   UNL     1       0.010   0.510   2.960  0.00  0.00    -0.246 N 
ATOM      8  C   UNL     1      -0.915   1.171   2.257  0.00  0.00    +0.231 C 
ATOM      9  O   UNL     1      -0.893   2.383   2.218  0.00  0.00    -0.274 OA
ATOM     10  C   UNL     1      -1.979   0.419   1.515  0.00  0.00    +0.166 C 
ATOM     11  S   UNL     1      -1.396  -0.049  -0.150  0.00  0.00    -0.138 S 
ENDROOT
BRANCH   5  12
ATOM     12  C   UNL     1       0.155  -1.749   5.003  0.00  0.00    +0.071 A 
ATOM     13  C   UNL     1      -1.091  -1.702   5.615  0.00  0.00    +0.028 A 
ATOM     14  C   UNL     1      -1.181  -1.583   6.987  0.00  0.00    +0.002 A 
ATOM     15  C   UNL     1      -0.032  -1.511   7.754  0.00  0.00    +0.004 A 
ATOM     16  C   UNL     1       1.210  -1.557   7.148  0.00  0.00    -0.046 A 
ATOM     17  C   UNL     1       1.307  -1.682   5.776  0.00  0.00    -0.022 A 
ATOM     18  C   UNL     1       2.661  -1.739   5.117  0.00  0.00    +0.046 C 
ATOM     19  C   UNL     1       2.460  -1.477   7.986  0.00  0.00    +0.044 C 
ENDBRANCH   5  12
BRANCH   1  25
ATOM     20  C   UNL     1      -0.610  -3.847  -3.497  0.00  0.00    +0.044 C 
ATOM     21  C   UNL     1       0.365  -3.014  -2.705  0.00  0.00    -0.050 A 
ATOM     22  C   UNL     1       1.712  -3.041  -3.019  0.00  0.00    +0.003 A 
ATOM     23  C   UNL     1       2.606  -2.277  -2.293  0.00  0.00    +0.001 A 
ATOM     24  C   UNL     1       2.154  -1.485  -1.254  0.00  0.00    +0.005 A 
ATOM     25  C   UNL     1       0.808  -1.457  -0.941  0.00  0.00    -0.030 A 
ATOM     26  C   UNL     1      -0.087  -2.219  -1.669  0.00  0.00    +0.008 A 
ENDBRANCH   1  25
BRANCH   3  27
ATOM     27  C   UNL     1       0.647  -3.756   0.486  0.00  0.00    +0.007 C 
ATOM     28  C   UNL     1       2.015  -3.545  -0.167  0.00  0.00    +0.017 C 
ATOM     29  C   UNL     1       0.559  -5.181   1.037  0.00  0.00    +0.017 C 
ATOM     30  C   UNL     1      -0.453  -3.544  -0.556  0.00  0.00    +0.017 C 
ENDBRANCH   3  27
BRANCH   7  31
ATOM     31  C   UNL     1       0.818   1.199   3.969  0.00  0.00    +0.210 C 
BRANCH  31  32
ATOM     32  C   UNL     1       1.931   1.955   3.290  0.00  0.00    +0.231 C 
ATOM     33  O   UNL     1       2.039   1.920   2.082  0.00  0.00    -0.274 OA
ATOM     34  N   UNL     1       2.808   2.668   4.024  0.00  0.00    -0.312 N 
ATOM     35  H   UNL     1       2.722   2.696   4.990  0.00  0.00    +0.149 HD
BRANCH  34  36
ATOM     36  C   UNL     1       3.890   3.402   3.364  0.00  0.00    +0.132 C 
BRANCH  36  37
ATOM     37  C   UNL     1       4.734   4.123   4.417  0.00  0.00    +0.178 C 
BRANCH  37  38
ATOM     38  O   UNL     1       5.384   3.158   5.248  0.00  0.00    -0.381 OA
ATOM     39  C   UNL     1       6.202   3.729   6.271  0.00  0.00    +0.194 C 
ENDBRANCH  37  38
ENDBRANCH  36  37
ENDBRANCH  34  36
ENDBRANCH  31  32
ENDBRANCH   7  31
TORSDOF 8
