REMARK  Name = ZINC40948497
REMARK  16 active torsions:
REMARK  status: ('A' for Active; 'I' for Inactive)
REMARK    1  A    between atoms: C_1  and  C_2
REMARK    2  A    between atoms: C_2  and  C_3
REMARK    3  A    between atoms: C_3  and  C_4
REMARK    4  A    between atoms: C_4  and  C_5
REMARK    5  A    between atoms: C_5  and  C_7
REMARK    6  A    between atoms: C_5  and  C_9
REMARK    7  A    between atoms: C_7  and  C_8
REMARK    8  A    between atoms: C_9  and  N_10
REMARK    9  A    between atoms: C_11  and  C_13
REMARK   10  A    between atoms: C_13  and  C_14
REMARK   11  A    between atoms: C_14  and  C_15
REMARK   12  A    between atoms: C_15  and  O_16
REMARK   13  A    between atoms: O_16  and  C_17
REMARK   14  A    between atoms: C_20  and  C_24
REMARK   15  A    between atoms: C_24  and  C_25
REMARK   16  A    between atoms: C_24  and  C_26
REMARK                            x       y       z     vdW  Elec       q    Type
REMARK                         _______ _______ _______ _____ _____    ______ ____
ROOT
ATOM      1  C   UNL     1       3.407  -6.386  -5.056  0.00  0.00    +0.099 C 
ENDROOT
BRANCH   1   3
ATOM      2  N   UNL     1       2.338  -4.598  -3.724  0.00  0.00    -0.315 N 
ATOM      3  C   UNL     1       2.599  -5.911  -3.877  0.00  0.00    +0.213 C 
ATOM      4  O   UNL     1       2.183  -6.710  -3.065  0.00  0.00    -0.276 OA
ATOM      5  H   UNL     1       2.671  -3.958  -4.373  0.00  0.00    +0.149 HD
BRANCH   2   6
ATOM      6  C   UNL     1       1.552  -4.136  -2.577  0.00  0.00    +0.107 C 
BRANCH   6   7
ATOM      7  C   UNL     1       1.512  -2.606  -2.569  0.00  0.00    +0.006 C 
BRANCH   7   8
ATOM      8  C   UNL     1       2.925  -2.061  -2.346  0.00  0.00    +0.002 C 
ATOM      9  C   UNL     1       3.458  -2.560  -1.002  0.00  0.00    +0.004 C 
ENDBRANCH   7   8
BRANCH   7  10
ATOM     10  C   UNL     1       0.597  -2.126  -1.441  0.00  0.00    +0.005 C 
BRANCH  10  11
ATOM     11  C   UNL     1       0.458  -0.604  -1.510  0.00  0.00    +0.000 C 
BRANCH  11  13
ATOM     12  C   UNL     1      -0.596   1.399  -0.452  0.00  0.00    +0.004 C 
ATOM     13  C   UNL     1      -0.458  -0.123  -0.383  0.00  0.00    -0.003 C 
ENDBRANCH  11  13
ENDBRANCH  10  11
ENDBRANCH   7  10
ENDBRANCH   6   7
ENDBRANCH   2   6
ENDBRANCH   1   3
BRANCH   1  14
ATOM     14  C   UNL     1       3.556  -7.908  -4.993  0.00  0.00    +0.050 C 
BRANCH  14  15
ATOM     15  C   UNL     1       4.377  -8.390  -6.191  0.00  0.00    +0.229 C 
BRANCH  15  16
ATOM     16  O   UNL     1       4.516  -9.811  -6.131  0.00  0.00    -0.491 OA
BRANCH  16  17
ATOM     17  C   UNL     1       5.224 -10.404  -7.129  0.00  0.00    +0.134 A 
ATOM     18  C   UNL     1       5.778  -9.633  -8.141  0.00  0.00    +0.047 A 
ATOM     19  C   UNL     1       6.496 -10.238  -9.153  0.00  0.00    +0.007 A 
ATOM     20  C   UNL     1       6.664 -11.611  -9.160  0.00  0.00    -0.044 A 
ATOM     21  C   UNL     1       6.114 -12.382  -8.153  0.00  0.00    +0.022 A 
ATOM     22  C   UNL     1       5.399 -11.781  -7.134  0.00  0.00    +0.060 A 
ATOM     23 BR   UNL     1       4.653 -12.835  -5.752  0.00  0.00    -0.047 Br
BRANCH  20  24
ATOM     24  C   UNL     1       7.448 -12.268 -10.266  0.00  0.00    +0.013 C 
ATOM     25  C   UNL     1       8.647 -13.010  -9.671  0.00  0.00    +0.012 C 
ATOM     26  C   UNL     1       6.551 -13.260 -11.008  0.00  0.00    +0.012 C 
ENDBRANCH  20  24
ENDBRANCH  16  17
ENDBRANCH  15  16
ENDBRANCH  14  15
ENDBRANCH   1  14
TORSDOF 12
