REMARK  Name = ZINC12932197
REMARK  7 active torsions:
REMARK  status: ('A' for Active; 'I' for Inactive)
REMARK    1  A    between atoms: C_1  and  C_2
REMARK    2  A    between atoms: C_7  and  N_8
REMARK    3  A    between atoms: C_9  and  C_11
REMARK    4  A    between atoms: C_11  and  N_46
REMARK    5  A    between atoms: C_12  and  N_46
REMARK    6  A    between atoms: C_13  and  C_14
REMARK    7  A    between atoms: C_13  and  N_46
REMARK                            x       y       z     vdW  Elec       q    Type
REMARK                         _______ _______ _______ _____ _____    ______ ____
ROOT
ATOM      1  C   UNL     1      -0.025   1.478   0.006  0.00  0.00    -0.095 C 
ATOM      2  N   UNL     1       0.010   0.001  -0.014  0.00  0.00    +0.386 N 
ATOM      3  H   UNL     1       0.527  -0.309  -0.846  0.00  0.00    -0.081 HD
ENDROOT
BRANCH   2   4
ATOM      4  C   UNL     1      -1.365  -0.536  -0.076  0.00  0.00    +0.019 C 
BRANCH   4   6
ATOM      5  N   UNL     1      -3.214  -0.588  -1.719  0.00  0.00    -0.287 N 
ATOM      6  C   UNL     1      -1.963  -0.188  -1.415  0.00  0.00    +0.201 C 
ATOM      7  O   UNL     1      -1.318   0.451  -2.219  0.00  0.00    -0.278 OA
ATOM      8  H   UNL     1      -3.700  -1.166  -1.111  0.00  0.00    +0.155 HD
BRANCH   5  15
ATOM      9  C   UNL     1      -5.267  -2.210  -2.836  0.00  0.00    +0.046 C 
ATOM     10  C   UNL     1      -4.818  -0.930  -3.493  0.00  0.00    -0.028 A 
ATOM     11  C   UNL     1      -5.410  -0.511  -4.668  0.00  0.00    +0.020 A 
ATOM     12  C   UNL     1      -4.993   0.661  -5.274  0.00  0.00    +0.018 A 
ATOM     13  C   UNL     1      -3.987   1.419  -4.702  0.00  0.00    +0.017 A 
ATOM     14  C   UNL     1      -3.396   1.008  -3.524  0.00  0.00    +0.024 A 
ATOM     15  C   UNL     1      -3.812  -0.168  -2.913  0.00  0.00    +0.036 A 
ATOM     16 BR   UNL     1      -5.801   1.228  -6.888  0.00  0.00    -0.050 Br
ENDBRANCH   5  15
ENDBRANCH   4   6
ENDBRANCH   2   4
BRANCH   2  17
ATOM     17  C   UNL     1       0.696  -0.505   1.194  0.00  0.00    -0.042 C 
BRANCH  17  18
ATOM     18  C   UNL     1       2.153  -0.127   1.120  0.00  0.00    -0.046 A 
ATOM     19  C   UNL     1       2.643   0.889   1.919  0.00  0.00    +0.052 A 
ATOM     20  C   UNL     1       3.983   1.239   1.855  0.00  0.00    +0.162 A 
ATOM     21  C   UNL     1       4.833   0.565   0.985  0.00  0.00    +0.163 A 
ATOM     22  C   UNL     1       4.335  -0.452   0.184  0.00  0.00    +0.065 A 
ATOM     23  C   UNL     1       2.998  -0.799   0.257  0.00  0.00    +0.023 A 
ATOM     24 BR   UNL     1       2.324  -2.192  -0.830  0.00  0.00    -0.050 Br
ATOM     25  O   UNL     1       6.152   0.890   0.909  0.00  0.00    -0.485 OA
ATOM     26  C   UNL     1       6.534   2.160   1.449  0.00  0.00    +0.270 C 
ATOM     27  C   UNL     1       5.869   2.317   2.823  0.00  0.00    +0.270 C 
ATOM     28  O   UNL     1       4.450   2.244   2.645  0.00  0.00    -0.485 OA
ENDBRANCH  17  18
ENDBRANCH   2  17
TORSDOF 5
