REMARK  Name = ZINC64462543
REMARK  9 active torsions:
REMARK  status: ('A' for Active; 'I' for Inactive)
REMARK    1  A    between atoms: C_1  and  C_2
REMARK    2  A    between atoms: C_2  and  C_3
REMARK    3  A    between atoms: N_5  and  C_6
REMARK    4  A    between atoms: C_9  and  C_12
REMARK    5  A    between atoms: C_12  and  C_13
REMARK    6  A    between atoms: C_17  and  C_22
REMARK    7  A    between atoms: N_24  and  C_25
REMARK    8  A    between atoms: C_25  and  C_26
REMARK    9  A    between atoms: C_26  and  C_27
REMARK                            x       y       z     vdW  Elec       q    Type
REMARK                         _______ _______ _______ _____ _____    ______ ____
ROOT
ATOM      1  C   UNL     1       5.293  -3.591  -5.609  0.00  0.00    +0.113 A 
ATOM      2  N   UNL     1       6.021  -2.678  -5.036  0.00  0.00    -0.232 NA
ATOM      3  C   UNL     1       7.274  -3.160  -4.827  0.00  0.00    +0.090 A 
ATOM      4  C   UNL     1       8.428  -2.621  -4.262  0.00  0.00    +0.043 A 
ATOM      5  C   UNL     1       9.583  -3.394  -4.193  0.00  0.00    +0.039 A 
ATOM      6  C   UNL     1       9.585  -4.704  -4.689  0.00  0.00    +0.015 A 
ATOM      7  C   UNL     1       8.457  -5.235  -5.244  0.00  0.00    +0.028 A 
ATOM      8  C   UNL     1       7.293  -4.478  -5.320  0.00  0.00    +0.066 A 
ATOM      9  N   UNL     1       6.026  -4.721  -5.803  0.00  0.00    -0.342 N 
ATOM     10  H   UNL     1       5.714  -5.545  -6.207  0.00  0.00    +0.167 HD
ENDROOT
BRANCH   5  11
ATOM     11  C   UNL     1      10.811  -2.831  -3.596  0.00  0.00    +0.244 C 
ATOM     12  O   UNL     1      10.812  -1.694  -3.165  0.00  0.00    -0.270 OA
ATOM     13  N   UNL     1      11.931  -3.578  -3.529  0.00  0.00    -0.311 N 
ATOM     14  H   UNL     1      11.931  -4.485  -3.872  0.00  0.00    +0.149 HD
BRANCH  13  15
ATOM     15  C   UNL     1      13.149  -3.019  -2.936  0.00  0.00    +0.109 C 
BRANCH  15  16
ATOM     16  C   UNL     1      14.265  -4.065  -2.984  0.00  0.00    +0.052 C 
BRANCH  16  17
ATOM     17  C   UNL     1      15.518  -3.491  -2.374  0.00  0.00    -0.040 C 
ATOM     18  C   UNL     1      15.940  -3.633  -1.097  0.00  0.00    -0.001 A 
ATOM     19  C   UNL     1      15.379  -4.336   0.063  0.00  0.00    +0.010 A 
ATOM     20  C   UNL     1      16.046  -4.296   1.239  0.00  0.00    +0.001 A 
ATOM     21  C   UNL     1      17.255  -3.602   1.378  0.00  0.00    +0.002 A 
ATOM     22  C   UNL     1      17.833  -2.932   0.358  0.00  0.00    +0.026 A 
ATOM     23  C   UNL     1      17.218  -2.907  -0.925  0.00  0.00    +0.043 A 
ATOM     24  N   UNL     1      17.573  -2.339  -2.051  0.00  0.00    -0.380 N 
ATOM     25  C   UNL     1      16.562  -2.645  -3.069  0.00  0.00    +0.144 C 
ATOM     26  H   UNL     1      18.373  -1.808  -2.190  0.00  0.00    +0.160 HD
ENDBRANCH  16  17
ENDBRANCH  15  16
ENDBRANCH  13  15
ENDBRANCH   5  11
BRANCH   1  27
ATOM     27  C   UNL     1       3.847  -3.423  -5.997  0.00  0.00    +0.109 C 
BRANCH  27  31
ATOM     28  C   UNL     1       1.587  -2.209  -2.579  0.00  0.00    +0.033 A 
ATOM     29  C   UNL     1       2.161  -1.255  -3.408  0.00  0.00    +0.023 A 
ATOM     30  C   UNL     1       2.891  -1.650  -4.511  0.00  0.00    +0.006 A 
ATOM     31  C   UNL     1       3.050  -2.995  -4.792  0.00  0.00    -0.040 A 
ATOM     32  C   UNL     1       2.478  -3.948  -3.969  0.00  0.00    +0.006 A 
ATOM     33  C   UNL     1       1.753  -3.559  -2.860  0.00  0.00    +0.023 A 
BRANCH  28  36
ATOM     34  C   UNL     1       0.888  -2.545  -0.330  0.00  0.00    +0.217 C 
ATOM     35  O   UNL     1       1.498  -3.593  -0.308  0.00  0.00    -0.275 OA
ATOM     36  N   UNL     1       0.847  -1.812  -1.460  0.00  0.00    -0.286 N 
ATOM     37  H   UNL     1       0.304  -1.009  -1.497  0.00  0.00    +0.155 HD
BRANCH  34  39
ATOM     38  C   UNL     1       0.379  -3.073   2.039  0.00  0.00    +0.013 C 
ATOM     39  C   UNL     1       0.175  -2.063   0.908  0.00  0.00    +0.093 C 
ENDBRANCH  34  39
ENDBRANCH  28  36
ENDBRANCH  27  31
ENDBRANCH   1  27
TORSDOF 8
