REMARK  Name = ZINC19897660
REMARK  7 active torsions:
REMARK  status: ('A' for Active; 'I' for Inactive)
REMARK    1  A    between atoms: C_1  and  C_2
REMARK    2  A    between atoms: C_2  and  N_3
REMARK    3  A    between atoms: C_7  and  C_24
REMARK    4  A    between atoms: C_12  and  S_13
REMARK    5  A    between atoms: S_13  and  C_14
REMARK    6  A    between atoms: C_14  and  C_15
REMARK    7  A    between atoms: C_15  and  C_17
REMARK                            x       y       z     vdW  Elec       q    Type
REMARK                         _______ _______ _______ _____ _____    ______ ____
ROOT
ATOM      1  N   UNL     1       3.954   8.082   0.001  0.00  0.00    -0.307 N 
ATOM      2  C   UNL     1       5.240   8.601  -0.004  0.00  0.00    +0.121 A 
ATOM      3  N   UNL     1       5.457   9.893   0.001  0.00  0.00    -0.384 N 
ATOM      4  C   UNL     1       6.343   7.643  -0.019  0.00  0.00    +0.103 A 
ATOM      5  C   UNL     1       7.752   7.689  -0.033  0.00  0.00    +0.093 A 
ATOM      6  N   UNL     1       8.155   6.449  -0.042  0.00  0.00    -0.080 NA
ATOM      7  O   UNL     1       7.240   5.655  -0.037  0.00  0.00    -0.334 OA
ATOM      8  C   UNL     1       6.048   6.270  -0.023  0.00  0.00    +0.264 A 
ATOM      9  N   UNL     1       4.774   5.876  -0.013  0.00  0.00    -0.186 NA
ATOM     10  C   UNL     1       3.775   6.729   0.001  0.00  0.00    +0.174 A 
ATOM     11  C   UNL     1       8.618   8.923  -0.035  0.00  0.00    +0.070 C 
ATOM     12  H   UNL     1       6.487  10.278  -0.003  0.00  0.00    +0.157 HD
ATOM     13  H   UNL     1       4.608  10.593   0.008  0.00  0.00    +0.157 HD
ENDROOT
BRANCH   1  15
ATOM     14  C   UNL     1       2.404   9.291   1.456  0.00  0.00    +0.027 C 
ATOM     15  C   UNL     1       2.796   8.980   0.010  0.00  0.00    +0.122 C 
ENDBRANCH   1  15
BRANCH  10  16
ATOM     16  S   UNL     1       2.130   6.098   0.013  0.00  0.00    -0.080 S 
BRANCH  16  17
ATOM     17  C   UNL     1       2.474   4.321   0.001  0.00  0.00    +0.157 C 
BRANCH  17  18
ATOM     18  C   UNL     1       1.176   3.557   0.009  0.00  0.00    +0.173 C 
ATOM     19  O   UNL     1       0.121   4.155   0.022  0.00  0.00    -0.291 OA
BRANCH  18  20
ATOM     20  C   UNL     1       1.187   2.086   0.002  0.00  0.00    +0.018 A 
ATOM     21  C   UNL     1      -0.017   1.374   0.010  0.00  0.00    +0.013 A 
ATOM     22  C   UNL     1       0.002  -0.004   0.002  0.00  0.00    +0.020 A 
ATOM     23  C   UNL     1       1.209  -0.684  -0.013  0.00  0.00    +0.041 A 
ATOM     24  C   UNL     1       2.406   0.015  -0.021  0.00  0.00    +0.020 A 
ATOM     25  C   UNL     1       2.402   1.393  -0.013  0.00  0.00    +0.013 A 
ATOM     26 CL   UNL     1       1.223  -2.420  -0.022  0.00  0.00    -0.084 Cl
ENDBRANCH  18  20
ENDBRANCH  17  18
ENDBRANCH  16  17
ENDBRANCH  10  16
TORSDOF 5
