REMARK  Name = ZINC18062595
REMARK  5 active torsions:
REMARK  status: ('A' for Active; 'I' for Inactive)
REMARK    1  A    between atoms: C_1  and  O_2
REMARK    2  A    between atoms: O_2  and  C_3
REMARK    3  A    between atoms: C_3  and  C_5
REMARK    4  A    between atoms: N_7  and  C_24
REMARK    5  A    between atoms: N_14  and  C_17
REMARK                            x       y       z     vdW  Elec       q    Type
REMARK                         _______ _______ _______ _____ _____    ______ ____
ROOT
ATOM      1  C   UNL     1       0.466  -1.991  -1.055  0.00  0.00    +0.157 C 
ATOM      2  N   UNL     1      -0.058  -2.931  -0.272  0.00  0.00    -0.176 NA
ATOM      3  N   UNL     1       0.403  -4.228  -0.635  0.00  0.00    -0.211 N 
ATOM      4  C   UNL     1       0.719  -4.126  -2.050  0.00  0.00    +0.203 C 
ATOM      5  C   UNL     1       1.310  -2.671  -1.991  0.00  0.00    +0.164 C 
ATOM      6  C   UNL     1       1.990  -2.575  -3.258  0.00  0.00    +0.238 C 
ATOM      7  O   UNL     1       2.100  -1.600  -3.970  0.00  0.00    -0.274 OA
ATOM      8  N   UNL     1       2.488  -3.840  -3.475  0.00  0.00    -0.208 N 
ATOM      9  C   UNL     1       1.913  -4.790  -2.658  0.00  0.00    +0.250 C 
ATOM     10  O   UNL     1       2.285  -5.929  -2.471  0.00  0.00    -0.273 OA
ENDROOT
BRANCH   8  11
ATOM     11  C   UNL     1       3.474  -4.135  -4.427  0.00  0.00    +0.044 A 
ATOM     12  C   UNL     1       3.917  -5.441  -4.587  0.00  0.00    +0.025 A 
ATOM     13  C   UNL     1       4.889  -5.730  -5.525  0.00  0.00    +0.017 A 
ATOM     14  C   UNL     1       5.420  -4.719  -6.306  0.00  0.00    +0.018 A 
ATOM     15  C   UNL     1       4.980  -3.416  -6.148  0.00  0.00    +0.017 A 
ATOM     16  C   UNL     1       4.005  -3.123  -5.215  0.00  0.00    +0.025 A 
ATOM     17 BR   UNL     1       6.750  -5.117  -7.589  0.00  0.00    -0.050 Br
ENDBRANCH   8  11
BRANCH   3  18
ATOM     18  C   UNL     1       0.524  -5.350   0.187  0.00  0.00    +0.052 A 
ATOM     19  C   UNL     1       1.115  -5.235   1.439  0.00  0.00    +0.026 A 
ATOM     20  C   UNL     1       1.234  -6.346   2.250  0.00  0.00    +0.017 A 
ATOM     21  C   UNL     1       0.765  -7.574   1.816  0.00  0.00    +0.018 A 
ATOM     22  C   UNL     1       0.177  -7.692   0.569  0.00  0.00    +0.017 A 
ATOM     23  C   UNL     1       0.050  -6.583  -0.244  0.00  0.00    +0.026 A 
ATOM     24 BR   UNL     1       0.930  -9.094   2.929  0.00  0.00    -0.050 Br
ENDBRANCH   3  18
BRANCH   1  25
ATOM     25  C   UNL     1       0.230  -0.595  -0.982  0.00  0.00    +0.356 C 
ATOM     26  O   UNL     1       0.774   0.156  -1.770  0.00  0.00    -0.244 OA
BRANCH  25  28
ATOM     27  C   UNL     1      -0.788   1.317  -0.022  0.00  0.00    +0.280 C 
ATOM     28  O   UNL     1      -0.597  -0.099  -0.038  0.00  0.00    -0.464 OA
ENDBRANCH  25  28
ENDBRANCH   1  25
TORSDOF 4
