REMARK  Name = ZINC13534486
REMARK  10 active torsions:
REMARK  status: ('A' for Active; 'I' for Inactive)
REMARK    1  A    between atoms: C_1  and  C_2
REMARK    2  A    between atoms: C_11  and  N_18
REMARK    3  A    between atoms: C_13  and  C_15
REMARK    4  A    between atoms: C_15  and  C_16
REMARK    5  A    between atoms: C_15  and  C_17
REMARK    6  A    between atoms: N_26  and  C_27
REMARK    7  A    between atoms: C_30  and  O_33
REMARK    8  A    between atoms: O_33  and  C_34
REMARK    9  A    between atoms: C_34  and  C_35
REMARK   10  A    between atoms: C_34  and  C_36
REMARK                            x       y       z     vdW  Elec       q    Type
REMARK                         _______ _______ _______ _____ _____    ______ ____
ROOT
ATOM      1  N   UNL     1       0.593  -7.394  -1.176  0.00  0.00    -0.312 N 
ATOM      2  C   UNL     1       1.869  -6.848  -1.660  0.00  0.00    +0.125 C 
ATOM      3  C   UNL     1       2.371  -5.785  -0.677  0.00  0.00    +0.128 C 
ATOM      4  N   UNL     1       1.305  -4.792  -0.478  0.00  0.00    -0.282 N 
ATOM      5  C   UNL     1      -0.037  -5.274  -0.120  0.00  0.00    +0.128 C 
ATOM      6  C   UNL     1      -0.446  -6.357  -1.130  0.00  0.00    +0.125 C 
ATOM      7  C   UNL     1       1.553  -3.474  -0.616  0.00  0.00    +0.307 C 
ATOM      8  O   UNL     1       2.642  -3.097  -1.005  0.00  0.00    -0.252 OA
ATOM      9  N   UNL     1       0.594  -2.574  -0.322  0.00  0.00    -0.269 N 
ATOM     10  H   UNL     1      -0.295  -2.874  -0.079  0.00  0.00    +0.156 HD
ENDROOT
BRANCH   1  20
ATOM     11  C   UNL     1       0.329 -11.565   4.122  0.00  0.00    +0.008 C 
ATOM     12  C   UNL     1       0.541 -11.110   2.677  0.00  0.00    -0.009 C 
ATOM     13  C   UNL     1       0.031  -9.676   2.507  0.00  0.00    +0.008 C 
ATOM     14  C   UNL     1       0.462  -9.130   1.145  0.00  0.00    +0.037 C 
ATOM     15  C   UNL     1       0.035 -10.114   0.061  0.00  0.00    -0.025 A 
ATOM     16  C   UNL     1      -0.269 -11.391   0.371  0.00  0.00    -0.004 A 
ATOM     17  S   UNL     1      -0.703 -12.151  -1.171  0.00  0.00    -0.073 S 
ATOM     18  C   UNL     1      -0.475 -10.750  -2.234  0.00  0.00    +0.114 A 
ATOM     19  C   UNL     1      -0.068  -9.731  -1.349  0.00  0.00    +0.051 A 
ATOM     20  C   UNL     1       0.189  -8.467  -1.949  0.00  0.00    +0.133 A 
ATOM     21  N   UNL     1       0.030  -8.331  -3.256  0.00  0.00    -0.216 NA
ATOM     22  C   UNL     1      -0.350  -9.334  -4.027  0.00  0.00    +0.135 A 
ATOM     23  N   UNL     1      -0.603 -10.529  -3.527  0.00  0.00    -0.224 NA
ATOM     24  C   UNL     1      -0.243 -12.027   1.728  0.00  0.00    +0.046 C 
BRANCH  22  25
ATOM     25  C   UNL     1      -0.504  -9.107  -5.508  0.00  0.00    +0.051 C 
ATOM     26  C   UNL     1       0.437 -10.044  -6.268  0.00  0.00    +0.015 C 
ATOM     27  C   UNL     1      -1.950  -9.393  -5.921  0.00  0.00    +0.015 C 
ENDBRANCH  22  25
ENDBRANCH   1  20
BRANCH   9  28
ATOM     28  C   UNL     1       0.882  -1.203  -0.369  0.00  0.00    +0.035 A 
ATOM     29  C   UNL     1       1.709  -0.701  -1.365  0.00  0.00    +0.027 A 
ATOM     30  C   UNL     1       1.992   0.650  -1.411  0.00  0.00    +0.047 A 
ATOM     31  C   UNL     1       1.450   1.506  -0.463  0.00  0.00    +0.121 A 
ATOM     32  C   UNL     1       0.623   1.004   0.532  0.00  0.00    +0.047 A 
ATOM     33  C   UNL     1       0.339  -0.346   0.579  0.00  0.00    +0.027 A 
BRANCH  31  34
ATOM     34  O   UNL     1       1.729   2.836  -0.508  0.00  0.00    -0.489 OA
BRANCH  34  35
ATOM     35  C   UNL     1       2.594   3.281  -1.555  0.00  0.00    +0.167 C 
ATOM     36  C   UNL     1       1.774   3.534  -2.822  0.00  0.00    +0.051 C 
ATOM     37  C   UNL     1       3.284   4.578  -1.128  0.00  0.00    +0.051 C 
ENDBRANCH  34  35
ENDBRANCH  31  34
ENDBRANCH   9  28
TORSDOF 5
