REMARK  Name = ZINC63572225
REMARK  7 active torsions:
REMARK  status: ('A' for Active; 'I' for Inactive)
REMARK    1  A    between atoms: C_1  and  C_2
REMARK    2  A    between atoms: C_5  and  O_35
REMARK    3  A    between atoms: C_6  and  N_8
REMARK    4  A    between atoms: C_24  and  C_26
REMARK    5  A    between atoms: C_29  and  O_32
REMARK    6  A    between atoms: O_32  and  C_33
REMARK    7  A    between atoms: O_35  and  C_36
REMARK                            x       y       z     vdW  Elec       q    Type
REMARK                         _______ _______ _______ _____ _____    ______ ____
ROOT
ATOM      1  N   UNL     1      -0.131  -2.404   2.359  0.00  0.00    -0.266 N 
ATOM      2  C   UNL     1       0.054  -1.871   3.583  0.00  0.00    +0.307 C 
ATOM      3  O   UNL     1       0.125  -0.665   3.717  0.00  0.00    -0.252 OA
ATOM      4  N   UNL     1       0.160  -2.676   4.659  0.00  0.00    -0.276 N 
ATOM      5  C   UNL     1       0.181  -4.131   4.477  0.00  0.00    +0.114 C 
ATOM      6  C   UNL     1       1.474  -4.705   5.085  0.00  0.00    +0.052 C 
ATOM      7  C   UNL     1       1.643  -4.055   6.435  0.00  0.00    -0.035 C 
ATOM      8  C   UNL     1       1.847  -4.573   7.640  0.00  0.00    +0.001 A 
ATOM      9  C   UNL     1       2.091  -5.956   8.083  0.00  0.00    +0.030 A 
ATOM     10  C   UNL     1       2.241  -6.139   9.422  0.00  0.00    +0.042 A 
ATOM     11  C   UNL     1       2.174  -5.096  10.353  0.00  0.00    +0.022 A 
ATOM     12  C   UNL     1       1.962  -3.795  10.033  0.00  0.00    +0.027 A 
ATOM     13  C   UNL     1       1.797  -3.476   8.654  0.00  0.00    +0.043 A 
ATOM     14  N   UNL     1       1.608  -2.329   8.072  0.00  0.00    -0.375 N 
ATOM     15  C   UNL     1       1.576  -2.544   6.625  0.00  0.00    +0.131 C 
ATOM     16  C   UNL     1       0.259  -2.086   6.003  0.00  0.00    +0.134 C 
ATOM     17 CL   UNL     1       2.531  -7.747  10.006  0.00  0.00    -0.084 Cl
ATOM     18  H   UNL     1      -0.227  -3.364   2.257  0.00  0.00    +0.156 HD
ATOM     19  H   UNL     1       1.505  -1.475   8.522  0.00  0.00    +0.160 HD
ENDROOT
BRANCH   1  25
ATOM     20  C   UNL     1      -1.068   2.007   0.397  0.00  0.00    +0.044 C 
ATOM     21  C   UNL     1      -0.634   0.571   0.253  0.00  0.00    -0.048 A 
ATOM     22  C   UNL     1      -0.289   0.077  -0.992  0.00  0.00    +0.007 A 
ATOM     23  C   UNL     1       0.110  -1.240  -1.130  0.00  0.00    +0.048 A 
ATOM     24  C   UNL     1       0.164  -2.068  -0.021  0.00  0.00    +0.141 A 
ATOM     25  C   UNL     1      -0.183  -1.571   1.233  0.00  0.00    +0.077 A 
ATOM     26  C   UNL     1      -0.577  -0.247   1.365  0.00  0.00    +0.030 A 
BRANCH  24  27
ATOM     27  O   UNL     1       0.555  -3.363  -0.155  0.00  0.00    -0.493 OA
ATOM     28  C   UNL     1       0.896  -3.804  -1.471  0.00  0.00    +0.277 C 
ENDBRANCH  24  27
ENDBRANCH   1  25
BRANCH  16  29
ATOM     29  C   UNL     1      -0.893  -2.555   6.853  0.00  0.00    -0.024 A 
ATOM     30  C   UNL     1      -1.032  -3.899   7.148  0.00  0.00    +0.009 A 
ATOM     31  C   UNL     1      -2.087  -4.331   7.926  0.00  0.00    +0.046 A 
ATOM     32  C   UNL     1      -3.009  -3.416   8.414  0.00  0.00    +0.120 A 
ATOM     33  C   UNL     1      -2.868  -2.068   8.117  0.00  0.00    +0.046 A 
ATOM     34  C   UNL     1      -1.807  -1.640   7.343  0.00  0.00    +0.009 A 
BRANCH  32  35
ATOM     35  O   UNL     1      -4.049  -3.840   9.180  0.00  0.00    -0.495 OA
ATOM     36  C   UNL     1      -4.959  -2.842   9.647  0.00  0.00    +0.277 C 
ENDBRANCH  32  35
ENDBRANCH  16  29
TORSDOF 4
