REMARK  Name = ZINC10439438
REMARK  6 active torsions:
REMARK  status: ('A' for Active; 'I' for Inactive)
REMARK    1  A    between atoms: C_1  and  C_2
REMARK    2  A    between atoms: N_13  and  C_24
REMARK    3  A    between atoms: C_14  and  S_16
REMARK    4  A    between atoms: S_16  and  C_17
REMARK    5  A    between atoms: C_17  and  C_18
REMARK    6  A    between atoms: C_24  and  C_25
REMARK                            x       y       z     vdW  Elec       q    Type
REMARK                         _______ _______ _______ _____ _____    ______ ____
ROOT
ATOM      1  C   UNL     1       3.669   2.289   0.062  0.00  0.00    +0.008 C 
ATOM      2  C   UNL     1       2.417   1.461   0.360  0.00  0.00    -0.009 C 
ATOM      3  C   UNL     1       2.433   0.184  -0.485  0.00  0.00    +0.008 C 
ATOM      4  C   UNL     1       1.327  -0.762  -0.015  0.00  0.00    +0.037 C 
ATOM      5  C   UNL     1       0.002  -0.004   0.002  0.00  0.00    -0.023 A 
ATOM      6  C   UNL     1      -0.016   1.348   0.009  0.00  0.00    -0.004 A 
ATOM      7  S   UNL     1      -1.735   1.790   0.036  0.00  0.00    -0.073 S 
ATOM      8  C   UNL     1      -2.425   0.166   0.026  0.00  0.00    +0.117 A 
ATOM      9  C   UNL     1      -1.288  -0.674   0.011  0.00  0.00    +0.076 A 
ATOM     10  C   UNL     1      -1.518  -2.088   0.005  0.00  0.00    +0.263 A 
ATOM     11  O   UNL     1      -0.603  -2.893  -0.008  0.00  0.00    -0.267 OA
ATOM     12  N   UNL     1      -2.815  -2.476   0.015  0.00  0.00    -0.285 N 
ATOM     13  C   UNL     1      -3.853  -1.594   0.030  0.00  0.00    +0.173 A 
ATOM     14  N   UNL     1      -3.675  -0.279   0.036  0.00  0.00    -0.216 NA
ATOM     15  C   UNL     1       1.163   2.271   0.003  0.00  0.00    +0.046 C 
ENDROOT
BRANCH  13  16
ATOM     16  S   UNL     1      -5.498  -2.224   0.043  0.00  0.00    -0.078 S 
BRANCH  16  17
ATOM     17  C   UNL     1      -6.429  -0.672   0.061  0.00  0.00    +0.173 C 
BRANCH  17  18
ATOM     18  C   UNL     1      -7.906  -0.973   0.073  0.00  0.00    +0.231 C 
ATOM     19  O   UNL     1      -8.291  -2.122   0.071  0.00  0.00    -0.274 OA
ATOM     20  N   UNL     1      -8.799   0.037   0.088  0.00  0.00    -0.240 N 
ATOM     21  C   UNL     1     -10.119  -0.232   0.100  0.00  0.00    +0.303 C 
ATOM     22  O   UNL     1     -10.505  -1.384   0.097  0.00  0.00    -0.253 OA
ATOM     23  N   UNL     1     -11.012   0.778   0.114  0.00  0.00    -0.313 N 
ATOM     24  H   UNL     1      -8.491   0.957   0.090  0.00  0.00    +0.159 HD
ATOM     25  H   UNL     1     -10.704   1.698   0.116  0.00  0.00    +0.146 HD
ATOM     26  H   UNL     1     -11.963   0.585   0.122  0.00  0.00    +0.146 HD
ENDBRANCH  17  18
ENDBRANCH  16  17
ENDBRANCH  13  16
BRANCH  12  27
ATOM     27  C   UNL     1      -3.117  -3.910   0.009  0.00  0.00    +0.159 C 
BRANCH  27  28
ATOM     28  C   UNL     1      -3.208  -4.417   1.450  0.00  0.00    +0.138 C 
ATOM     29  C   UNL     1      -3.456  -5.946   1.467  0.00  0.00    +0.035 C 
ATOM     30  C   UNL     1      -2.882  -6.323   2.860  0.00  0.00    +0.031 C 
ATOM     31  C   UNL     1      -1.707  -5.332   3.008  0.00  0.00    +0.160 C 
ATOM     32  O   UNL     1      -1.953  -4.233   2.124  0.00  0.00    -0.375 OA
ENDBRANCH  27  28
ENDBRANCH  12  27
TORSDOF 5
