REMARK  Name = ZINC12570570
REMARK  3 active torsions:
REMARK  status: ('A' for Active; 'I' for Inactive)
REMARK    1  A    between atoms: C_3  and  C_6
REMARK    2  A    between atoms: C_14  and  C_16
REMARK    3  A    between atoms: C_25  and  C_27
REMARK                            x       y       z     vdW  Elec       q    Type
REMARK                         _______ _______ _______ _____ _____    ______ ____
ROOT
ATOM      1  C   UNL     1       4.197   3.440  -0.273  0.00  0.00    +0.088 C 
ATOM      2  C   UNL     1       3.472   2.522  -1.261  0.00  0.00    +0.070 C 
ATOM      3  C   UNL     1       1.972   2.735  -1.095  0.00  0.00    +0.062 A 
ATOM      4  C   UNL     1       1.516   3.979  -0.638  0.00  0.00    +0.079 A 
ATOM      5  S   UNL     1      -0.236   3.749  -0.598  0.00  0.00    -0.049 S 
ATOM      6  C   UNL     1      -0.250   2.104  -1.165  0.00  0.00    +0.165 A 
ATOM      7  N   UNL     1       1.039   1.847  -1.339  0.00  0.00    -0.229 NA
ATOM      8  N   UNL     1      -1.334   1.273  -1.380  0.00  0.00    -0.264 N 
ATOM      9  C   UNL     1      -2.583   1.720  -1.143  0.00  0.00    +0.222 C 
ATOM     10  O   UNL     1      -2.756   2.851  -0.741  0.00  0.00    -0.275 OA
ATOM     11  C   UNL     1       2.319   5.068  -0.319  0.00  0.00    +0.172 C 
ATOM     12  O   UNL     1       1.843   6.109   0.089  0.00  0.00    -0.291 OA
ATOM     13  C   UNL     1       3.817   4.903  -0.504  0.00  0.00    +0.093 C 
ATOM     14  H   UNL     1      -1.195   0.369  -1.702  0.00  0.00    +0.157 HD
ENDROOT
BRANCH   1  23
ATOM     15  C   UNL     1       9.014   4.691   3.412  0.00  0.00    +0.253 C 
ATOM     16  O   UNL     1       8.581   5.318   4.361  0.00  0.00    -0.269 OA
ATOM     17  N   UNL     1       8.165   4.064   2.574  0.00  0.00    -0.294 N 
ATOM     18  C   UNL     1       8.672   3.327   1.408  0.00  0.00    +0.127 C 
ATOM     19  C   UNL     1       7.984   3.869   0.149  0.00  0.00    +0.127 C 
ATOM     20  N   UNL     1       6.534   3.909   0.386  0.00  0.00    -0.298 N 
ATOM     21  C   UNL     1       6.027   4.650   1.549  0.00  0.00    +0.127 C 
ATOM     22  C   UNL     1       6.715   4.103   2.811  0.00  0.00    +0.127 C 
ATOM     23  C   UNL     1       5.685   3.281  -0.451  0.00  0.00    +0.220 C 
ATOM     24  O   UNL     1       6.118   2.589  -1.348  0.00  0.00    -0.275 OA
BRANCH  15  27
ATOM     25  C   UNL     1      12.732   5.229   3.144  0.00  0.00    +0.008 A 
ATOM     26  C   UNL     1      11.440   5.555   3.471  0.00  0.00    +0.021 A 
ATOM     27  C   UNL     1      10.460   4.619   3.179  0.00  0.00    +0.074 A 
ATOM     28  S   UNL     1      11.418   3.300   2.454  0.00  0.00    -0.092 S 
ATOM     29  C   UNL     1      12.987   4.029   2.561  0.00  0.00    +0.046 A 
ENDBRANCH  15  27
ENDBRANCH   1  23
BRANCH   9  30
ATOM     30  C   UNL     1      -3.764   0.815  -1.378  0.00  0.00    +0.075 C 
ATOM     31  C   UNL     1      -4.221   0.766  -2.846  0.00  0.00    +0.013 C 
ATOM     32  C   UNL     1      -5.664   0.770  -2.315  0.00  0.00    +0.001 C 
ATOM     33  C   UNL     1      -5.118   1.473  -1.061  0.00  0.00    +0.013 C 
ENDBRANCH   9  30
TORSDOF 3
