REMARK  Name = ZINC44712428
REMARK  11 active torsions:
REMARK  status: ('A' for Active; 'I' for Inactive)
REMARK    1  A    between atoms: C_1  and  C_2
REMARK    2  A    between atoms: C_2  and  C_3
REMARK    3  A    between atoms: C_2  and  C_4
REMARK    4  A    between atoms: C_2  and  O_20
REMARK    5  A    between atoms: C_4  and  O_6
REMARK    6  A    between atoms: O_6  and  C_7
REMARK    7  A    between atoms: C_7  and  C_8
REMARK    8  A    between atoms: C_7  and  C_14
REMARK    9  A    between atoms: O_20  and  N_21
REMARK   10  A    between atoms: C_22  and  C_23
REMARK   11  A    between atoms: C_22  and  C_29
REMARK                            x       y       z     vdW  Elec       q    Type
REMARK                         _______ _______ _______ _____ _____    ______ ____
ROOT
ATOM      1  C   UNL     1       0.037   2.053  -0.467  0.00  0.00    +0.070 C 
ATOM      2  C   UNL     1      -0.179   0.540  -0.409  0.00  0.00    +0.228 C 
ATOM      3  C   UNL     1       0.308   0.007   0.940  0.00  0.00    +0.070 C 
ENDROOT
BRANCH   2   4
ATOM      4  C   UNL     1      -1.647   0.235  -0.568  0.00  0.00    +0.354 C 
ATOM      5  O   UNL     1      -2.025  -0.449  -1.490  0.00  0.00    -0.246 OA
BRANCH   4   6
ATOM      6  O   UNL     1      -2.533   0.724   0.313  0.00  0.00    -0.449 OA
BRANCH   6   7
ATOM      7  C   UNL     1      -3.908   0.395   0.101  0.00  0.00    +0.237 C 
BRANCH   7   8
ATOM      8  C   UNL     1      -4.623   0.344   1.426  0.00  0.00    -0.003 A 
ATOM      9  C   UNL     1      -4.343   1.285   2.399  0.00  0.00    +0.007 A 
ATOM     10  C   UNL     1      -4.998   1.239   3.615  0.00  0.00    +0.000 A 
ATOM     11  C   UNL     1      -5.935   0.252   3.858  0.00  0.00    +0.000 A 
ATOM     12  C   UNL     1      -6.216  -0.689   2.884  0.00  0.00    +0.000 A 
ATOM     13  C   UNL     1      -5.563  -0.640   1.667  0.00  0.00    +0.007 A 
ENDBRANCH   7   8
BRANCH   7  14
ATOM     14  C   UNL     1      -4.545   1.443  -0.775  0.00  0.00    -0.003 A 
ATOM     15  C   UNL     1      -4.153   2.764  -0.668  0.00  0.00    +0.007 A 
ATOM     16  C   UNL     1      -4.737   3.726  -1.471  0.00  0.00    +0.000 A 
ATOM     17  C   UNL     1      -5.715   3.366  -2.380  0.00  0.00    +0.000 A 
ATOM     18  C   UNL     1      -6.107   2.045  -2.487  0.00  0.00    +0.000 A 
ATOM     19  C   UNL     1      -5.519   1.083  -1.687  0.00  0.00    +0.007 A 
ENDBRANCH   7  14
ENDBRANCH   6   7
ENDBRANCH   4   6
ENDBRANCH   2   4
BRANCH   2  20
ATOM     20  O   UNL     1       0.555  -0.087  -1.462  0.00  0.00    -0.376 OA
BRANCH  20  21
ATOM     21  N   UNL     1       1.952   0.138  -1.404  0.00  0.00    -0.074 NA
ATOM     22  C   UNL     1       2.733  -0.381  -2.309  0.00  0.00    +0.216 C 
BRANCH  22  23
ATOM     23  C   UNL     1       2.185  -1.325  -3.307  0.00  0.00    +0.109 A 
ATOM     24  C   UNL     1       0.889  -1.756  -3.215  0.00  0.00    +0.078 A 
ATOM     25  S   UNL     1       0.794  -2.837  -4.635  0.00  0.00    -0.060 S 
ATOM     26  C   UNL     1       2.473  -2.611  -5.204  0.00  0.00    +0.156 A 
ATOM     27  N   UNL     1       2.946  -1.764  -4.309  0.00  0.00    -0.223 NA
ATOM     28  N   UNL     1       3.109  -3.171  -6.299  0.00  0.00    -0.338 N 
ATOM     29  H   UNL     1       2.628  -3.782  -6.879  0.00  0.00    +0.144 HD
ATOM     30  H   UNL     1       4.036  -2.954  -6.486  0.00  0.00    +0.144 HD
ENDBRANCH  22  23
BRANCH  22  31
ATOM     31  C   UNL     1       4.169  -0.024  -2.338  0.00  0.00    +0.410 C 
ATOM     32  O   UNL     1       4.622   0.756  -1.514  0.00  0.00    -0.239 OA
ATOM     33  O   UNL     1       4.903  -0.511  -3.187  0.00  0.00    -0.239 OA
ENDBRANCH  22  31
ENDBRANCH  20  21
ENDBRANCH   2  20
TORSDOF 9
