REMARK  Name = ZINC35358640
REMARK  4 active torsions:
REMARK  status: ('A' for Active; 'I' for Inactive)
REMARK    1  A    between atoms: C_1  and  C_2
REMARK    2  A    between atoms: C_5  and  C_11
REMARK    3  A    between atoms: C_7  and  N_8
REMARK    4  A    between atoms: C_23  and  C_25
REMARK                            x       y       z     vdW  Elec       q    Type
REMARK                         _______ _______ _______ _____ _____    ______ ____
ROOT
ATOM      1  C   UNL     1       0.435  -4.459   0.007  0.00  0.00    +0.247 C 
ATOM      2  O   UNL     1       0.063  -3.369   0.397  0.00  0.00    -0.270 OA
ATOM      3  N   UNL     1       0.279  -4.801  -1.288  0.00  0.00    -0.297 N 
ATOM      4  C   UNL     1      -0.463  -3.927  -2.207  0.00  0.00    +0.111 C 
ATOM      5  C   UNL     1       0.427  -3.615  -3.415  0.00  0.00    +0.056 C 
ATOM      6  C   UNL     1       0.932  -4.916  -4.023  0.00  0.00    +0.087 C 
ATOM      7  C   UNL     1       1.732  -5.729  -3.015  0.00  0.00    +0.056 C 
ATOM      8  C   UNL     1       0.854  -6.050  -1.806  0.00  0.00    +0.111 C 
ATOM      9  N   UNL     1      -0.172  -5.704  -4.583  0.00  0.00    -0.282 N 
ATOM     10  C   UNL     1      -0.051  -6.058  -5.997  0.00  0.00    +0.120 C 
ATOM     11  C   UNL     1       0.728  -4.960  -6.779  0.00  0.00    +0.090 C 
ATOM     12  S   UNL     1       1.984  -4.544  -5.485  0.00  0.00    -0.133 S 
ATOM     13  C   UNL     1      -1.233  -6.077  -3.840  0.00  0.00    +0.248 C 
ATOM     14  O   UNL     1      -1.223  -5.904  -2.637  0.00  0.00    -0.270 OA
ENDROOT
BRANCH   1  19
ATOM     15  C   UNL     1       2.865  -8.157   3.685  0.00  0.00    +0.046 C 
ATOM     16  C   UNL     1       2.229  -7.189   2.722  0.00  0.00    -0.020 A 
ATOM     17  C   UNL     1       1.487  -7.665   1.655  0.00  0.00    +0.006 A 
ATOM     18  C   UNL     1       0.902  -6.784   0.770  0.00  0.00    +0.013 A 
ATOM     19  C   UNL     1       1.059  -5.409   0.952  0.00  0.00    +0.039 A 
ATOM     20  C   UNL     1       1.808  -4.935   2.030  0.00  0.00    +0.046 A 
ATOM     21  C   UNL     1       2.383  -5.827   2.912  0.00  0.00    +0.130 A 
BRANCH  21  22
ATOM     22  N   UNL     1       3.172  -5.326   4.059  0.00  0.00    +0.057 N 
ATOM     23  O   UNL     1       3.286  -6.002   5.056  0.00  0.00    -0.126 OA
ATOM     24  O   UNL     1       3.703  -4.242   4.000  0.00  0.00    -0.126 OA
ENDBRANCH  21  22
ENDBRANCH   1  19
BRANCH  13  25
ATOM     25  C   UNL     1      -2.407  -6.697  -4.488  0.00  0.00    +0.037 A 
ATOM     26  C   UNL     1      -2.232  -7.625  -5.516  0.00  0.00    +0.016 A 
ATOM     27  C   UNL     1      -3.331  -8.200  -6.117  0.00  0.00    +0.039 A 
ATOM     28  C   UNL     1      -4.609  -7.858  -5.703  0.00  0.00    +0.123 A 
ATOM     29  C   UNL     1      -4.789  -6.936  -4.682  0.00  0.00    +0.039 A 
ATOM     30  C   UNL     1      -3.697  -6.360  -4.070  0.00  0.00    +0.016 A 
ATOM     31  F   UNL     1      -5.683  -8.424  -6.296  0.00  0.00    -0.205 F 
ENDBRANCH  13  25
TORSDOF 3
