REMARK  Name = ZINC39836052
REMARK  8 active torsions:
REMARK  status: ('A' for Active; 'I' for Inactive)
REMARK    1  A    between atoms: C_1  and  C_2
REMARK    2  A    between atoms: C_9  and  O_28
REMARK    3  A    between atoms: C_10  and  C_13
REMARK    4  A    between atoms: N_17  and  C_21
REMARK    5  A    between atoms: C_21  and  C_22
REMARK    6  A    between atoms: O_28  and  C_29
REMARK    7  A    between atoms: C_31  and  C_36
REMARK    8  A    between atoms: C_33  and  C_35
REMARK                            x       y       z     vdW  Elec       q    Type
REMARK                         _______ _______ _______ _____ _____    ______ ____
ROOT
ATOM      1  C   UNL     1       1.196   1.145  -0.118  0.00  0.00    +0.047 C 
ATOM      2  C   UNL     1       1.101  -0.357  -0.038  0.00  0.00    -0.007 A 
ATOM      3  C   UNL     1       1.272  -1.116  -1.157  0.00  0.00    +0.008 A 
ATOM      4  C   UNL     1       1.181  -2.512  -1.066  0.00  0.00    +0.019 A 
ATOM      5  C   UNL     1       0.925  -3.098   0.125  0.00  0.00    +0.096 A 
ATOM      6  N   UNL     1       0.752  -2.348   1.249  0.00  0.00    -0.267 N 
ATOM      7  C   UNL     1       0.842  -0.985   1.193  0.00  0.00    +0.147 A 
ATOM      8  N   UNL     1       0.681  -0.234   2.284  0.00  0.00    -0.194 NA
ATOM      9  C   UNL     1       0.435  -0.772   3.467  0.00  0.00    +0.235 A 
ATOM     10  C   UNL     1       0.338  -2.176   3.589  0.00  0.00    +0.103 A 
ATOM     11  C   UNL     1       0.498  -2.964   2.424  0.00  0.00    +0.269 A 
ATOM     12  O   UNL     1       0.422  -4.179   2.482  0.00  0.00    -0.266 OA
ENDROOT
BRANCH  10  13
ATOM     13  C   UNL     1       0.076  -2.779   4.842  0.00  0.00    +0.039 C 
ATOM     14  C   UNL     1      -1.035  -2.424   5.551  0.00  0.00    +0.077 C 
ATOM     15  C   UNL     1      -2.129  -1.597   5.167  0.00  0.00    +0.258 C 
ATOM     16  O   UNL     1      -2.169  -1.084   4.062  0.00  0.00    -0.269 OA
ATOM     17  N   UNL     1      -3.099  -1.401   6.043  0.00  0.00    -0.253 N 
ATOM     18  C   UNL     1      -3.054  -1.970   7.268  0.00  0.00    +0.121 C 
ATOM     19  S   UNL     1      -4.186  -1.855   8.547  0.00  0.00    -0.027 S 
ATOM     20  S   UNL     1      -1.517  -2.879   7.211  0.00  0.00    -0.061 S 
BRANCH  17  21
ATOM     21  C   UNL     1      -4.239  -0.555   5.681  0.00  0.00    +0.146 C 
BRANCH  21  22
ATOM     22  C   UNL     1      -5.331  -1.416   5.043  0.00  0.00    +0.136 C 
ATOM     23  C   UNL     1      -6.533  -0.535   4.620  0.00  0.00    +0.035 C 
ATOM     24  C   UNL     1      -7.154  -1.404   3.493  0.00  0.00    +0.031 C 
ATOM     25  C   UNL     1      -5.906  -2.054   2.856  0.00  0.00    +0.160 C 
ATOM     26  O   UNL     1      -4.851  -2.009   3.826  0.00  0.00    -0.375 OA
ENDBRANCH  21  22
ENDBRANCH  17  21
ENDBRANCH  10  13
BRANCH   9  27
ATOM     27  O   UNL     1       0.278   0.018   4.554  0.00  0.00    -0.437 OA
BRANCH  27  28
ATOM     28  C   UNL     1       0.472   1.354   4.405  0.00  0.00    +0.131 A 
ATOM     29  C   UNL     1      -0.490   2.131   3.776  0.00  0.00    +0.049 A 
ATOM     30  C   UNL     1      -0.289   3.489   3.626  0.00  0.00    -0.047 A 
ATOM     31  C   UNL     1       0.869   4.075   4.102  0.00  0.00    +0.007 A 
ATOM     32  C   UNL     1       1.830   3.304   4.729  0.00  0.00    -0.047 A 
ATOM     33  C   UNL     1       1.631   1.946   4.888  0.00  0.00    +0.049 A 
ATOM     34  C   UNL     1       3.091   3.946   5.246  0.00  0.00    +0.044 C 
ATOM     35  C   UNL     1      -1.334   4.333   2.942  0.00  0.00    +0.044 C 
ENDBRANCH  27  28
ENDBRANCH   9  27
TORSDOF 5
