REMARK  Name = ZINC49149969
REMARK  6 active torsions:
REMARK  status: ('A' for Active; 'I' for Inactive)
REMARK    1  A    between atoms: C_1  and  C_2
REMARK    2  A    between atoms: C_5  and  N_21
REMARK    3  A    between atoms: C_6  and  C_20
REMARK    4  A    between atoms: C_7  and  S_8
REMARK    5  A    between atoms: S_8  and  N_11
REMARK    6  A    between atoms: N_11  and  C_12
REMARK                            x       y       z     vdW  Elec       q    Type
REMARK                         _______ _______ _______ _____ _____    ______ ____
ROOT
ATOM      1  S   UNL     1      -0.332  -0.310   1.581  0.00  0.00    +0.073 S 
ATOM      2  O   UNL     1       0.471  -1.460   1.813  0.00  0.00    -0.150 OA
ATOM      3  O   UNL     1       0.067   0.732   0.701  0.00  0.00    -0.150 OA
ENDROOT
BRANCH   1  10
ATOM      4  C   UNL     1      -2.373   1.419   0.174  0.00  0.00    +0.046 C 
ATOM      5  C   UNL     1      -2.759  -0.025   0.365  0.00  0.00    -0.023 A 
ATOM      6  C   UNL     1      -3.980  -0.480  -0.098  0.00  0.00    +0.007 A 
ATOM      7  C   UNL     1      -4.337  -1.803   0.075  0.00  0.00    +0.023 A 
ATOM      8  C   UNL     1      -3.467  -2.677   0.716  0.00  0.00    +0.029 A 
ATOM      9  C   UNL     1      -2.242  -2.217   1.180  0.00  0.00    -0.003 A 
ATOM     10  C   UNL     1      -1.889  -0.894   0.999  0.00  0.00    +0.116 A 
ATOM     11  C   UNL     1      -1.296  -3.161   1.877  0.00  0.00    +0.048 C 
BRANCH   8  12
ATOM     12  N   UNL     1      -3.826  -4.015   0.894  0.00  0.00    -0.358 N 
ATOM     13  H   UNL     1      -4.682  -4.335   0.569  0.00  0.00    +0.142 HD
ATOM     14  H   UNL     1      -3.218  -4.624   1.341  0.00  0.00    +0.142 HD
ENDBRANCH   8  12
ENDBRANCH   1  10
BRANCH   1  15
ATOM     15  N   UNL     1      -0.593   0.391   3.058  0.00  0.00    -0.215 N 
ATOM     16  H   UNL     1      -0.411   1.335   3.185  0.00  0.00    +0.174 HD
BRANCH  15  17
ATOM     17  C   UNL     1      -1.075  -0.377   4.121  0.00  0.00    +0.062 A 
ATOM     18  C   UNL     1      -0.191  -1.080   4.929  0.00  0.00    +0.027 A 
ATOM     19  C   UNL     1      -0.671  -1.838   5.979  0.00  0.00    +0.017 A 
ATOM     20  C   UNL     1      -2.031  -1.898   6.227  0.00  0.00    +0.019 A 
ATOM     21  C   UNL     1      -2.914  -1.199   5.424  0.00  0.00    +0.032 A 
ATOM     22  C   UNL     1      -2.440  -0.434   4.375  0.00  0.00    +0.041 A 
ATOM     23 BR   UNL     1      -3.648   0.527   3.283  0.00  0.00    -0.048 Br
ATOM     24 BR   UNL     1      -2.683  -2.938   7.665  0.00  0.00    -0.050 Br
ENDBRANCH  15  17
ENDBRANCH   1  15
TORSDOF 4
