REMARK  Name = ZINC12446112
REMARK  6 active torsions:
REMARK  status: ('A' for Active; 'I' for Inactive)
REMARK    1  A    between atoms: C_1  and  C_2
REMARK    2  A    between atoms: C_4  and  C_34
REMARK    3  A    between atoms: C_11  and  O_13
REMARK    4  A    between atoms: O_13  and  C_14
REMARK    5  A    between atoms: C_14  and  C_15
REMARK    6  A    between atoms: C_24  and  N_67
REMARK                            x       y       z     vdW  Elec       q    Type
REMARK                         _______ _______ _______ _____ _____    ______ ____
ROOT
ATOM      1  C   UNL     1       1.671  -3.266  -0.030  0.00  0.00    +0.067 C 
ATOM      2  C   UNL     1       0.761  -2.064  -0.016  0.00  0.00    +0.061 A 
ATOM      3  C   UNL     1      -0.639  -2.096  -0.003  0.00  0.00    +0.048 A 
ATOM      4  C   UNL     1      -1.085  -0.820   0.013  0.00  0.00    +0.045 A 
ATOM      5  N   UNL     1       0.002  -0.004   0.002  0.00  0.00    -0.202 N 
ATOM      6  N   UNL     1       1.145  -0.814  -0.013  0.00  0.00    -0.169 NA
ATOM      7  C   UNL     1      -0.017   1.388   0.010  0.00  0.00    +0.259 A 
ATOM      8  N   UNL     1       1.124   2.067   0.002  0.00  0.00    -0.177 NA
ATOM      9  C   UNL     1       1.105   3.397   0.009  0.00  0.00    +0.225 A 
ATOM     10  N   UNL     1      -0.056   4.045   0.023  0.00  0.00    -0.161 NA
ATOM     11  C   UNL     1      -1.195   3.364   0.031  0.00  0.00    +0.324 A 
ATOM     12  N   UNL     1      -1.176   2.036   0.019  0.00  0.00    -0.157 NA
ATOM     13  N   UNL     1       2.291   4.104   0.002  0.00  0.00    -0.303 N 
ATOM     14  C   UNL     1       3.144   3.712   1.133  0.00  0.00    +0.089 C 
ATOM     15  C   UNL     1       4.477   4.458   1.044  0.00  0.00    -0.059 C 
ATOM     16  C   UNL     1       3.374   6.298  -0.077  0.00  0.00    -0.059 C 
ATOM     17  C   UNL     1       2.040   5.551   0.012  0.00  0.00    +0.089 C 
ATOM     18  C   UNL     1      -2.527  -0.382   0.037  0.00  0.00    +0.066 C 
ATOM     19  N   UNL     1       4.213   5.912   1.077  0.00  0.00    +0.385 N 
ATOM     20  H   UNL     1       3.713   6.141   1.945  0.00  0.00    -0.081 HD
ENDROOT
BRANCH  19  21
ATOM     21  C   UNL     1       5.489   6.659   1.046  0.00  0.00    -0.065 C 
ATOM     22  C   UNL     1       6.241   6.379  -0.256  0.00  0.00    -0.009 C 
ATOM     23  C   UNL     1       7.555   7.163  -0.264  0.00  0.00    -0.012 C 
ATOM     24  C   UNL     1       8.415   6.729   0.925  0.00  0.00    +0.007 C 
ATOM     25  C   UNL     1       7.662   7.008   2.227  0.00  0.00    -0.012 C 
ATOM     26  C   UNL     1       6.348   6.225   2.235  0.00  0.00    -0.009 C 
ATOM     27  C   UNL     1       7.364   8.505   2.333  0.00  0.00    +0.007 C 
ATOM     28  C   UNL     1       6.505   8.939   1.144  0.00  0.00    -0.012 C 
ATOM     29  C   UNL     1       7.257   8.660  -0.158  0.00  0.00    +0.007 C 
ATOM     30  C   UNL     1       5.190   8.155   1.152  0.00  0.00    -0.009 C 
ENDBRANCH  19  21
BRANCH  11  31
ATOM     31  O   UNL     1      -2.376   4.023   0.045  0.00  0.00    -0.453 OA
BRANCH  31  32
ATOM     32  C   UNL     1      -3.563   3.227   0.052  0.00  0.00    +0.345 C 
BRANCH  32  33
ATOM     33  C   UNL     1      -4.790   4.141   0.067  0.00  0.00    +0.424 C 
ATOM     34  F   UNL     1      -4.780   4.954  -1.071  0.00  0.00    -0.167 F 
ATOM     35  F   UNL     1      -5.952   3.362   0.074  0.00  0.00    -0.167 F 
ATOM     36  F   UNL     1      -4.760   4.944   1.213  0.00  0.00    -0.167 F 
ENDBRANCH  32  33
ENDBRANCH  31  32
ENDBRANCH  11  31
TORSDOF 4
