REMARK  Name = ZINC00930839
REMARK  8 active torsions:
REMARK  status: ('A' for Active; 'I' for Inactive)
REMARK    1  A    between atoms: C_1  and  C_2
REMARK    2  A    between atoms: C_2  and  C_4
REMARK    3  A    between atoms: C_7  and  N_10
REMARK    4  A    between atoms: N_10  and  C_11
REMARK    5  A    between atoms: C_11  and  C_13
REMARK    6  A    between atoms: C_11  and  C_20
REMARK    7  A    between atoms: N_22  and  C_23
REMARK    8  A    between atoms: C_29  and  C_31
REMARK                            x       y       z     vdW  Elec       q    Type
REMARK                         _______ _______ _______ _____ _____    ______ ____
ROOT
ATOM      1  N   UNL     1       1.223  -2.397   0.074  0.00  0.00    -0.252 N 
ATOM      2  C   UNL     1       1.100  -2.717   1.377  0.00  0.00    +0.265 C 
ATOM      3  O   UNL     1       1.572  -1.992   2.227  0.00  0.00    -0.271 OA
ENDROOT
BRANCH   2   4
ATOM      4  C   UNL     1       0.376  -3.976   1.778  0.00  0.00    +0.296 C 
ATOM      5  C   UNL     1      -1.139  -3.744   1.717  0.00  0.00    +0.283 C 
ATOM      6  O   UNL     1      -1.795  -4.952   2.117  0.00  0.00    -0.484 OA
ATOM      7  C   UNL     1      -1.319  -5.565   3.235  0.00  0.00    +0.162 A 
ATOM      8  C   UNL     1      -2.103  -6.512   3.878  0.00  0.00    +0.049 A 
ATOM      9  C   UNL     1      -1.632  -7.146   5.012  0.00  0.00    +0.004 A 
ATOM     10  C   UNL     1      -0.379  -6.838   5.509  0.00  0.00    +0.004 A 
ATOM     11  C   UNL     1       0.406  -5.894   4.874  0.00  0.00    +0.049 A 
ATOM     12  C   UNL     1      -0.061  -5.254   3.736  0.00  0.00    +0.163 A 
ATOM     13  O   UNL     1       0.723  -4.325   3.123  0.00  0.00    -0.472 OA
ENDBRANCH   2   4
BRANCH   1  17
ATOM     14  C   UNL     1      -0.208  -4.988  -2.849  0.00  0.00    +0.017 A 
ATOM     15  C   UNL     1       0.908  -5.343  -2.081  0.00  0.00    +0.013 A 
ATOM     16  C   UNL     1       1.376  -4.487  -1.119  0.00  0.00    +0.024 A 
ATOM     17  C   UNL     1       0.744  -3.265  -0.905  0.00  0.00    +0.038 A 
ATOM     18  C   UNL     1      -0.369  -2.910  -1.663  0.00  0.00    +0.024 A 
ATOM     19  C   UNL     1      -0.841  -3.758  -2.631  0.00  0.00    +0.013 A 
BRANCH  14  21
ATOM     20  C   UNL     1      -1.913  -5.518  -4.707  0.00  0.00    +0.091 C 
ATOM     21  C   UNL     1      -0.713  -5.902  -3.882  0.00  0.00    +0.160 C 
ATOM     22  O   UNL     1      -0.163  -6.967  -4.070  0.00  0.00    -0.292 OA
ENDBRANCH  14  21
ENDBRANCH   1  17
BRANCH   1  23
ATOM     23  C   UNL     1       1.861  -1.136  -0.314  0.00  0.00    +0.197 C 
BRANCH  23  24
ATOM     24  C   UNL     1       3.297  -1.139   0.142  0.00  0.00    -0.018 A 
ATOM     25  C   UNL     1       4.090  -2.250  -0.079  0.00  0.00    +0.009 A 
ATOM     26  C   UNL     1       5.409  -2.252   0.334  0.00  0.00    +0.038 A 
ATOM     27  C   UNL     1       5.933  -1.145   0.979  0.00  0.00    +0.123 A 
ATOM     28  C   UNL     1       5.137  -0.034   1.204  0.00  0.00    +0.038 A 
ATOM     29  C   UNL     1       3.820  -0.033   0.785  0.00  0.00    +0.009 A 
ATOM     30  F   UNL     1       7.221  -1.148   1.388  0.00  0.00    -0.205 F 
ENDBRANCH  23  24
BRANCH  23  31
ATOM     31  C   UNL     1       1.810  -0.987  -1.812  0.00  0.00    +0.239 C 
ATOM     32  O   UNL     1       2.091  -1.927  -2.525  0.00  0.00    -0.273 OA
ATOM     33  N   UNL     1       1.452   0.191  -2.361  0.00  0.00    -0.311 N 
ATOM     34  H   UNL     1       1.228   0.943  -1.791  0.00  0.00    +0.149 HD
BRANCH  33  35
ATOM     35  C   UNL     1       1.408   0.338  -3.818  0.00  0.00    +0.073 C 
ATOM     36  C   UNL     1       2.804   0.687  -4.338  0.00  0.00    +0.022 C 
ATOM     37  C   UNL     1       2.758   0.840  -5.859  0.00  0.00    +0.002 C 
ATOM     38  C   UNL     1       1.782   1.958  -6.230  0.00  0.00    +0.000 C 
ATOM     39  C   UNL     1       0.386   1.609  -5.710  0.00  0.00    +0.002 C 
ATOM     40  C   UNL     1       0.432   1.455  -4.189  0.00  0.00    +0.022 C 
ENDBRANCH  33  35
ENDBRANCH  23  31
ENDBRANCH   1  23
TORSDOF 7
