REMARK  Name = ZINC39579422
REMARK  10 active torsions:
REMARK  status: ('A' for Active; 'I' for Inactive)
REMARK    1  A    between atoms: C_1  and  C_2
REMARK    2  A    between atoms: C_2  and  O_3
REMARK    3  A    between atoms: O_3  and  C_4
REMARK    4  A    between atoms: C_7  and  C_18
REMARK    5  A    between atoms: C_9  and  O_10
REMARK    6  A    between atoms: O_10  and  C_11
REMARK    7  A    between atoms: C_11  and  C_12
REMARK    8  A    between atoms: C_20  and  C_31
REMARK    9  A    between atoms: C_21  and  N_30
REMARK   10  A    between atoms: C_26  and  C_29
REMARK                            x       y       z     vdW  Elec       q    Type
REMARK                         _______ _______ _______ _____ _____    ______ ____
ROOT
ATOM      1  C   UNL     1       0.777  -1.811  -1.336  0.00  0.00    +0.162 A 
ATOM      2  C   UNL     1       0.243  -2.669  -0.388  0.00  0.00    +0.050 A 
ATOM      3  C   UNL     1       0.352  -4.037  -0.555  0.00  0.00    +0.008 A 
ATOM      4  C   UNL     1       0.992  -4.552  -1.667  0.00  0.00    -0.031 A 
ATOM      5  C   UNL     1       1.526  -3.702  -2.616  0.00  0.00    +0.054 A 
ATOM      6  C   UNL     1       1.416  -2.330  -2.458  0.00  0.00    +0.163 A 
ENDROOT
BRANCH   4   7
ATOM      7  C   UNL     1       1.107  -6.044  -1.844  0.00  0.00    +0.098 C 
ATOM      8  C   UNL     1      -0.271  -6.680  -1.857  0.00  0.00    +0.097 C 
ATOM      9  C   UNL     1      -0.582  -7.717  -1.052  0.00  0.00    +0.195 C 
ATOM     10  O   UNL     1       0.224  -8.301  -0.146  0.00  0.00    -0.448 OA
ATOM     11  C   UNL     1       1.633  -8.132  -0.315  0.00  0.00    +0.343 C 
ATOM     12  C   UNL     1       1.821  -6.654  -0.669  0.00  0.00    +0.030 C 
ATOM     13  C   UNL     1       2.645  -6.189   0.238  0.00  0.00    +0.066 C 
ATOM     14  N   UNL     1       2.915  -7.145   1.164  0.00  0.00    -0.155 NA
ATOM     15  N   UNL     1       2.370  -8.253   0.946  0.00  0.00    -0.138 NA
ATOM     16  C   UNL     1       3.211  -4.793   0.252  0.00  0.00    +0.067 C 
BRANCH   9  17
ATOM     17  N   UNL     1      -1.850  -8.228  -1.168  0.00  0.00    -0.329 N 
ATOM     18  H   UNL     1      -2.472  -7.844  -1.805  0.00  0.00    +0.145 HD
ATOM     19  H   UNL     1      -2.125  -8.974  -0.612  0.00  0.00    +0.145 HD
ENDBRANCH   9  17
BRANCH   8  20
ATOM     20  C   UNL     1      -1.268  -6.165  -2.747  0.00  0.00    +0.101 C 
ATOM     21  N   UNL     1      -2.059  -5.757  -3.453  0.00  0.00    -0.191 NA
ENDBRANCH   8  20
ENDBRANCH   4   7
BRANCH   1  22
ATOM     22  O   UNL     1       0.671  -0.465  -1.174  0.00  0.00    -0.489 OA
BRANCH  22  24
ATOM     23  C   UNL     1      -0.019   1.526   0.010  0.00  0.00    +0.048 C 
ATOM     24  C   UNL     1       0.002  -0.004   0.002  0.00  0.00    +0.226 C 
ENDBRANCH  22  24
ENDBRANCH   1  22
BRANCH   6  25
ATOM     25  O   UNL     1       1.936  -1.492  -3.394  0.00  0.00    -0.484 OA
BRANCH  25  26
ATOM     26  C   UNL     1       2.578  -2.095  -4.520  0.00  0.00    +0.264 C 
BRANCH  26  27
ATOM     27  C   UNL     1       3.088  -1.019  -5.443  0.00  0.00    -0.010 A 
ATOM     28  C   UNL     1       2.278  -0.532  -6.452  0.00  0.00    +0.007 A 
ATOM     29  C   UNL     1       2.746   0.455  -7.299  0.00  0.00    +0.000 A 
ATOM     30  C   UNL     1       4.024   0.956  -7.137  0.00  0.00    +0.000 A 
ATOM     31  C   UNL     1       4.835   0.470  -6.128  0.00  0.00    +0.000 A 
ATOM     32  C   UNL     1       4.365  -0.514  -5.278  0.00  0.00    +0.007 A 
ENDBRANCH  26  27
ENDBRANCH  25  26
ENDBRANCH   6  25
TORSDOF 8
