REMARK  Name = ZINC18196227
REMARK  2 active torsions:
REMARK  status: ('A' for Active; 'I' for Inactive)
REMARK    1  A    between atoms: C_3  and  C_6
REMARK    2  A    between atoms: C_11  and  C_19
REMARK                            x       y       z     vdW  Elec       q    Type
REMARK                         _______ _______ _______ _____ _____    ______ ____
ROOT
ATOM      1  C   UNL     1       3.944  -1.686  -0.303  0.00  0.00    +0.039 C 
ATOM      2  C   UNL     1       3.835  -0.214  -0.706  0.00  0.00    +0.060 C 
ATOM      3  C   UNL     1       2.465   0.311  -0.347  0.00  0.00    +0.020 C 
ATOM      4  C   UNL     1       1.386  -0.502  -0.351  0.00  0.00    +0.041 C 
ATOM      5  C   UNL     1       0.002  -0.004   0.002  0.00  0.00    +0.175 C 
ATOM      6  N   UNL     1      -0.018   1.453   0.010  0.00  0.00    -0.221 N 
ATOM      7  C   UNL     1       1.104   2.215   0.003  0.00  0.00    +0.218 A 
ATOM      8  N   UNL     1       0.741   3.468   0.022  0.00  0.00    -0.201 NA
ATOM      9  C   UNL     1      -0.593   3.546   0.035  0.00  0.00    +0.247 A 
ATOM     10  N   UNL     1      -1.096   2.336   0.031  0.00  0.00    -0.156 NA
ATOM     11  N   UNL     1       2.366   1.643  -0.024  0.00  0.00    -0.287 N 
ATOM     12  C   UNL     1       1.510  -1.862  -0.688  0.00  0.00    +0.164 C 
ATOM     13  O   UNL     1       0.518  -2.563  -0.704  0.00  0.00    -0.292 OA
ATOM     14  C   UNL     1       2.844  -2.467  -1.029  0.00  0.00    +0.088 C 
ATOM     15  H   UNL     1       3.156   2.168   0.179  0.00  0.00    +0.155 HD
ENDROOT
BRANCH   5  16
ATOM     16  C   UNL     1      -0.380  -0.517   1.367  0.00  0.00    -0.018 A 
ATOM     17  C   UNL     1       0.383  -0.182   2.469  0.00  0.00    +0.007 A 
ATOM     18  C   UNL     1       0.029  -0.647   3.722  0.00  0.00    +0.020 A 
ATOM     19  C   UNL     1      -1.082  -1.458   3.870  0.00  0.00    +0.041 A 
ATOM     20  C   UNL     1      -1.842  -1.797   2.765  0.00  0.00    +0.020 A 
ATOM     21  C   UNL     1      -1.491  -1.327   1.514  0.00  0.00    +0.007 A 
ATOM     22 CL   UNL     1      -1.523  -2.048   5.442  0.00  0.00    -0.084 Cl
ENDBRANCH   5  16
BRANCH   1  25
ATOM     23  C   UNL     1       7.434  -3.199  -0.508  0.00  0.00    +0.008 A 
ATOM     24  C   UNL     1       6.261  -2.764   0.081  0.00  0.00    +0.011 A 
ATOM     25  C   UNL     1       5.295  -2.223  -0.700  0.00  0.00    -0.006 A 
ATOM     26  S   UNL     1       6.040  -2.304  -2.320  0.00  0.00    -0.101 S 
ATOM     27  C   UNL     1       7.587  -3.061  -1.847  0.00  0.00    +0.045 A 
ENDBRANCH   1  25
TORSDOF 2
