REMARK  Name = ZINC38688319
REMARK  6 active torsions:
REMARK  status: ('A' for Active; 'I' for Inactive)
REMARK    1  A    between atoms: C_9  and  C_12
REMARK    2  A    between atoms: C_12  and  O_14
REMARK    3  A    between atoms: O_14  and  C_15
REMARK    4  A    between atoms: C_22  and  N_36
REMARK    5  A    between atoms: C_23  and  C_34
REMARK    6  A    between atoms: C_24  and  C_26
REMARK                            x       y       z     vdW  Elec       q    Type
REMARK                         _______ _______ _______ _____ _____    ______ ____
ROOT
ATOM      1  C   UNL     1       6.287  -4.553  -0.117  0.00  0.00    +0.135 A 
ATOM      2  C   UNL     1       7.287  -3.853  -0.778  0.00  0.00    +0.047 A 
ATOM      3  C   UNL     1       8.450  -4.497  -1.150  0.00  0.00    +0.012 A 
ATOM      4  C   UNL     1       8.625  -5.839  -0.866  0.00  0.00    +0.008 A 
ATOM      5  C   UNL     1       7.631  -6.543  -0.205  0.00  0.00    +0.138 A 
ATOM      6  C   UNL     1       6.462  -5.895   0.175  0.00  0.00    +0.093 A 
ATOM      7  O   UNL     1       7.784  -7.859   0.083  0.00  0.00    -0.441 OA
ATOM      8  C   UNL     1       9.011  -8.406   0.089  0.00  0.00    +0.199 C 
ATOM      9  C   UNL     1      10.059  -7.821  -0.539  0.00  0.00    +0.098 C 
ATOM     10  C   UNL     1       9.901  -6.524  -1.280  0.00  0.00    +0.098 C 
ENDROOT
BRANCH  10  11
ATOM     11  C   UNL     1       9.862  -6.796  -2.762  0.00  0.00    -0.033 A 
ATOM     12  C   UNL     1       8.862  -7.590  -3.292  0.00  0.00    +0.006 A 
ATOM     13  C   UNL     1       8.825  -7.841  -4.651  0.00  0.00    +0.022 A 
ATOM     14  C   UNL     1       9.790  -7.298  -5.481  0.00  0.00    +0.059 A 
ATOM     15  C   UNL     1      10.791  -6.504  -4.950  0.00  0.00    +0.060 A 
ATOM     16  C   UNL     1      10.823  -6.249  -3.590  0.00  0.00    +0.026 A 
ATOM     17 CL   UNL     1      12.003  -5.822  -5.990  0.00  0.00    -0.082 Cl
ATOM     18 CL   UNL     1       9.745  -7.614  -7.187  0.00  0.00    -0.082 Cl
ENDBRANCH  10  11
BRANCH   8  19
ATOM     19  N   UNL     1       9.209  -9.591   0.752  0.00  0.00    -0.328 N 
ATOM     20  H   UNL     1       8.469 -10.022   1.206  0.00  0.00    +0.145 HD
ATOM     21  H   UNL     1      10.090  -9.998   0.765  0.00  0.00    +0.145 HD
ENDBRANCH   8  19
BRANCH   9  22
ATOM     22  C   UNL     1      11.344  -8.452  -0.496  0.00  0.00    +0.101 C 
ATOM     23  N   UNL     1      12.363  -8.953  -0.461  0.00  0.00    -0.191 NA
ENDBRANCH   9  22
BRANCH   1  24
ATOM     24  O   UNL     1       5.142  -3.920   0.250  0.00  0.00    -0.423 OA
BRANCH  24  25
ATOM     25  C   UNL     1       4.222  -3.681  -0.699  0.00  0.00    +0.357 C 
ATOM     26  O   UNL     1       4.463  -3.944  -1.853  0.00  0.00    -0.246 OA
BRANCH  25  35
ATOM     27  C   UNL     1      -1.905  -2.052  -1.010  0.00  0.00    +0.004 A 
ATOM     28  C   UNL     1      -1.273  -1.730  -2.196  0.00  0.00    +0.004 A 
ATOM     29  C   UNL     1       0.073  -1.995  -2.359  0.00  0.00    +0.049 A 
ATOM     30  C   UNL     1       0.795  -2.583  -1.331  0.00  0.00    +0.163 A 
ATOM     31  C   UNL     1       0.160  -2.904  -0.137  0.00  0.00    +0.162 A 
ATOM     32  C   UNL     1      -1.192  -2.638   0.019  0.00  0.00    +0.049 A 
ATOM     33  O   UNL     1       0.851  -3.475   0.888  0.00  0.00    -0.484 OA
ATOM     34  C   UNL     1       2.114  -4.066   0.562  0.00  0.00    +0.285 C 
ATOM     35  C   UNL     1       2.890  -3.084  -0.325  0.00  0.00    +0.319 C 
ATOM     36  O   UNL     1       2.120  -2.841  -1.506  0.00  0.00    -0.470 OA
ENDBRANCH  25  35
ENDBRANCH  24  25
ENDBRANCH   1  24
TORSDOF 6
