REMARK  Name = ZINC38163617
REMARK  3 active torsions:
REMARK  status: ('A' for Active; 'I' for Inactive)
REMARK    1  A    between atoms: C_6  and  C_7
REMARK    2  A    between atoms: C_7  and  N_8
REMARK    3  A    between atoms: C_9  and  C_11
REMARK                            x       y       z     vdW  Elec       q    Type
REMARK                         _______ _______ _______ _____ _____    ______ ____
ROOT
ATOM      1  C   UNL     1      -3.301  -1.936  -2.990  0.00  0.00    +0.153 C 
ATOM      2  C   UNL     1      -4.417  -2.589  -3.377  0.00  0.00    +0.227 C 
ATOM      3  O   UNL     1      -4.454  -2.598  -4.722  0.00  0.00    -0.443 OA
ATOM      4  C   UNL     1      -3.376  -1.959  -5.196  0.00  0.00    +0.239 C 
ATOM      5  C   UNL     1      -3.066  -1.763  -6.555  0.00  0.00    +0.164 C 
ATOM      6  C   UNL     1      -3.820  -2.190  -7.664  0.00  0.00    +0.149 C 
ATOM      7  N   UNL     1      -3.160  -1.794  -8.745  0.00  0.00    -0.219 NA
ATOM      8  C   UNL     1      -2.057  -1.155  -8.369  0.00  0.00    +0.224 C 
ATOM      9  N   UNL     1      -1.981  -1.118  -7.061  0.00  0.00    -0.227 NA
ATOM     10  N   UNL     1      -5.022  -2.892  -7.632  0.00  0.00    -0.341 N 
ATOM     11  N   UNL     1      -2.641  -1.530  -4.150  0.00  0.00    -0.171 NA
ATOM     12  H   UNL     1      -5.421  -3.134  -6.782  0.00  0.00    +0.144 HD
ATOM     13  H   UNL     1      -5.461  -3.138  -8.461  0.00  0.00    +0.144 HD
ENDROOT
BRANCH   1  15
ATOM     14  N   UNL     1      -1.726  -1.017  -1.368  0.00  0.00    -0.306 N 
ATOM     15  C   UNL     1      -2.867  -1.693  -1.607  0.00  0.00    +0.263 C 
ATOM     16  O   UNL     1      -3.538  -2.103  -0.678  0.00  0.00    -0.269 OA
ATOM     17  H   UNL     1      -1.191  -0.691  -2.109  0.00  0.00    +0.149 HD
BRANCH  14  18
ATOM     18  C   UNL     1      -1.293  -0.775   0.010  0.00  0.00    +0.140 C 
BRANCH  18  24
ATOM     19  C   UNL     1      -0.017   1.378   0.010  0.00  0.00    +0.008 A 
ATOM     20  C   UNL     1       1.170   2.086   0.002  0.00  0.00    +0.038 A 
ATOM     21  C   UNL     1       2.379   1.410  -0.013  0.00  0.00    +0.123 A 
ATOM     22  C   UNL     1       2.396   0.026  -0.021  0.00  0.00    +0.038 A 
ATOM     23  C   UNL     1       1.208  -0.680  -0.013  0.00  0.00    +0.008 A 
ATOM     24  C   UNL     1       0.002  -0.004   0.002  0.00  0.00    -0.030 A 
ATOM     25  F   UNL     1       3.540   2.101  -0.021  0.00  0.00    -0.205 F 
ENDBRANCH  18  24
ENDBRANCH  14  18
ENDBRANCH   1  15
TORSDOF 3
