REMARK  Name = ZINC37287695
REMARK  2 active torsions:
REMARK  status: ('A' for Active; 'I' for Inactive)
REMARK    1  A    between atoms: C_6  and  C_7
REMARK    2  A    between atoms: C_7  and  C_9
REMARK                            x       y       z     vdW  Elec       q    Type
REMARK                         _______ _______ _______ _____ _____    ______ ____
ROOT
ATOM      1  C   UNL     1       1.220  -0.676  -0.131  0.00  0.00    +0.014 A 
ATOM      2  C   UNL     1       2.387   0.016  -0.257  0.00  0.00    +0.032 A 
ATOM      3  C   UNL     1       2.366   1.409  -0.381  0.00  0.00    +0.113 A 
ATOM      4  C   UNL     1       1.138   2.095  -0.376  0.00  0.00    +0.160 A 
ATOM      5  C   UNL     1      -0.042   1.392  -0.249  0.00  0.00    +0.060 A 
ATOM      6  C   UNL     1      -0.008   0.001  -0.125  0.00  0.00    +0.026 A 
ATOM      7  O   UNL     1       1.436   3.408  -0.511  0.00  0.00    -0.406 OA
ATOM      8  C   UNL     1       2.771   3.528  -0.594  0.00  0.00    +0.441 A 
ATOM      9  O   UNL     1       3.436   4.695  -0.735  0.00  0.00    -0.221 OA
ATOM     10  N   UNL     1       3.335   2.350  -0.518  0.00  0.00    -0.172 NA
ENDROOT
BRANCH   6  11
ATOM     11  C   UNL     1      -1.265  -0.757   0.011  0.00  0.00    +0.195 C 
ATOM     12  O   UNL     1      -1.244  -1.973   0.017  0.00  0.00    -0.287 OA
BRANCH  11  13
ATOM     13  C   UNL     1      -2.550  -0.040   0.139  0.00  0.00    +0.042 A 
ATOM     14  C   UNL     1      -3.425   0.033  -0.948  0.00  0.00    +0.028 A 
ATOM     15  C   UNL     1      -4.623   0.704  -0.821  0.00  0.00    +0.019 A 
ATOM     16  C   UNL     1      -4.960   1.306   0.380  0.00  0.00    +0.017 A 
ATOM     17  C   UNL     1      -4.099   1.240   1.460  0.00  0.00    +0.022 A 
ATOM     18  C   UNL     1      -2.899   0.565   1.349  0.00  0.00    +0.052 A 
ATOM     19 CL   UNL     1      -1.823   0.475   2.709  0.00  0.00    -0.083 Cl
ATOM     20 BR   UNL     1      -5.809   0.804  -2.291  0.00  0.00    -0.050 Br
ENDBRANCH  11  13
ENDBRANCH   6  11
TORSDOF 2
