REMARK  Name = ZINC04858178
REMARK  5 active torsions:
REMARK  status: ('A' for Active; 'I' for Inactive)
REMARK    1  A    between atoms: C_1  and  C_2
REMARK    2  A    between atoms: C_2  and  C_3
REMARK    3  A    between atoms: C_9  and  N_22
REMARK    4  A    between atoms: C_10  and  C_20
REMARK    5  A    between atoms: C_11  and  C_13
REMARK                            x       y       z     vdW  Elec       q    Type
REMARK                         _______ _______ _______ _____ _____    ______ ____
ROOT
ATOM      1  C   UNL     1      -2.098   1.886   2.856  0.00  0.00    +0.198 A 
ATOM      2  N   UNL     1      -1.880   1.191   1.772  0.00  0.00    -0.215 NA
ATOM      3  C   UNL     1      -0.712   1.572   1.249  0.00  0.00    +0.115 A 
ATOM      4  C   UNL     1      -0.198   2.540   2.054  0.00  0.00    +0.216 A 
ATOM      5  O   UNL     1      -1.068   2.731   3.050  0.00  0.00    -0.426 OA
ATOM      6  N   UNL     1       1.026   3.152   1.791  0.00  0.00    -0.272 N 
ATOM      7  C   UNL     1       1.839   2.574   0.841  0.00  0.00    +0.102 C 
ATOM      8  C   UNL     1       1.399   1.608  -0.003  0.00  0.00    +0.078 C 
ATOM      9  C   UNL     1      -0.013   1.086   0.008  0.00  0.00    +0.116 C 
ATOM     10  H   UNL     1       1.296   3.957   2.260  0.00  0.00    +0.156 HD
ENDROOT
BRANCH   9  11
ATOM     11  C   UNL     1      -0.744   1.586  -1.211  0.00  0.00    -0.030 A 
ATOM     12  C   UNL     1      -0.895   2.945  -1.417  0.00  0.00    +0.005 A 
ATOM     13  C   UNL     1      -1.561   3.405  -2.538  0.00  0.00    +0.003 A 
ATOM     14  C   UNL     1      -2.085   2.507  -3.448  0.00  0.00    +0.038 A 
ATOM     15  C   UNL     1      -1.939   1.146  -3.240  0.00  0.00    +0.124 A 
ATOM     16  C   UNL     1      -1.267   0.686  -2.120  0.00  0.00    +0.043 A 
ATOM     17  F   UNL     1      -2.451   0.268  -4.129  0.00  0.00    -0.205 F 
ENDBRANCH   9  11
BRANCH   7  18
ATOM     18  N   UNL     1       3.145   2.991   0.745  0.00  0.00    -0.346 N 
ATOM     19  H   UNL     1       3.734   2.596   0.083  0.00  0.00    +0.144 HD
ATOM     20  H   UNL     1       3.479   3.681   1.340  0.00  0.00    +0.144 HD
ENDBRANCH   7  18
BRANCH   1  22
ATOM     21  C   UNL     1      -3.041   0.716   4.829  0.00  0.00    +0.013 C 
ATOM     22  C   UNL     1      -3.308   1.763   3.746  0.00  0.00    +0.093 C 
ENDBRANCH   1  22
BRANCH   8  23
ATOM     23  C   UNL     1       2.322   1.058  -0.949  0.00  0.00    +0.099 C 
ATOM     24  N   UNL     1       3.054   0.621  -1.700  0.00  0.00    -0.191 NA
ENDBRANCH   8  23
TORSDOF 4
