REMARK  Name = ZINC60271649
REMARK  5 active torsions:
REMARK  status: ('A' for Active; 'I' for Inactive)
REMARK    1  A    between atoms: C_1  and  C_2
REMARK    2  A    between atoms: C_7  and  N_8
REMARK    3  A    between atoms: C_11  and  C_13
REMARK    4  A    between atoms: N_15  and  C_16
REMARK    5  A    between atoms: C_21  and  N_22
REMARK                            x       y       z     vdW  Elec       q    Type
REMARK                         _______ _______ _______ _____ _____    ______ ____
ROOT
ATOM      1  C   UNL     1       0.068   3.195   4.030  0.00  0.00    +0.269 C 
ATOM      2  O   UNL     1       0.323   3.410   5.199  0.00  0.00    -0.268 OA
ATOM      3  N   UNL     1      -0.238   4.218   3.208  0.00  0.00    -0.278 N 
ATOM      4  H   UNL     1      -0.515   4.040   2.295  0.00  0.00    +0.155 HD
ENDROOT
BRANCH   1   8
ATOM      5  N   UNL     1      -0.047   0.160   2.169  0.00  0.00    -0.235 N 
ATOM      6  C   UNL     1       0.297  -0.379   3.370  0.00  0.00    +0.049 A 
ATOM      7  C   UNL     1       0.395   0.643   4.247  0.00  0.00    +0.006 A 
ATOM      8  C   UNL     1       0.094   1.813   3.511  0.00  0.00    +0.151 A 
ATOM      9  N   UNL     1      -0.154   1.436   2.272  0.00  0.00    -0.161 NA
ATOM     10  C   UNL     1       0.776   0.132   5.615  0.00  0.00    +0.040 C 
ATOM     11  C   UNL     1       0.484  -1.385   5.570  0.00  0.00    +0.011 C 
ATOM     12  C   UNL     1       0.604  -1.689   4.060  0.00  0.00    +0.056 C 
BRANCH   5  19
ATOM     13  C   UNL     1      -2.385   0.696   0.637  0.00  0.00    +0.046 C 
ATOM     14  C   UNL     1      -1.377  -0.340   0.213  0.00  0.00    -0.025 A 
ATOM     15  C   UNL     1      -1.570  -1.057  -0.951  0.00  0.00    +0.005 A 
ATOM     16  C   UNL     1      -0.645  -2.008  -1.341  0.00  0.00    +0.000 A 
ATOM     17  C   UNL     1       0.476  -2.244  -0.566  0.00  0.00    +0.002 A 
ATOM     18  C   UNL     1       0.675  -1.530   0.599  0.00  0.00    +0.028 A 
ATOM     19  C   UNL     1      -0.249  -0.571   0.990  0.00  0.00    +0.069 A 
ENDBRANCH   5  19
ENDBRANCH   1   8
BRANCH   3  20
ATOM     20  C   UNL     1      -0.156   5.536   3.670  0.00  0.00    +0.060 A 
ATOM     21  C   UNL     1      -0.625   5.860   4.935  0.00  0.00    +0.040 A 
ATOM     22  C   UNL     1      -0.542   7.163   5.390  0.00  0.00    +0.020 A 
ATOM     23  C   UNL     1       0.008   8.146   4.587  0.00  0.00    +0.017 A 
ATOM     24  C   UNL     1       0.478   7.832   3.326  0.00  0.00    +0.031 A 
ATOM     25  C   UNL     1       0.404   6.526   2.864  0.00  0.00    +0.088 A 
ATOM     26 BR   UNL     1      -1.183   7.602   7.114  0.00  0.00    -0.050 Br
BRANCH  25  27
ATOM     27  N   UNL     1       0.885   6.204   1.586  0.00  0.00    -0.218 N 
ATOM     28  C   UNL     1       1.489   7.037   0.717  0.00  0.00    +0.225 A 
ATOM     29  N   UNL     1       1.787   6.354  -0.359  0.00  0.00    -0.222 NA
ATOM     30  C   UNL     1       1.392   5.089  -0.215  0.00  0.00    +0.245 A 
ATOM     31  N   UNL     1       0.839   4.947   0.961  0.00  0.00    -0.153 NA
ENDBRANCH  25  27
ENDBRANCH   3  20
TORSDOF 4
