REMARK  Name = ZINC20209404
REMARK  9 active torsions:
REMARK  status: ('A' for Active; 'I' for Inactive)
REMARK    1  A    between atoms: C_1  and  C_2
REMARK    2  A    between atoms: C_2  and  C_3
REMARK    3  A    between atoms: C_9  and  S_16
REMARK    4  A    between atoms: C_13  and  C_15
REMARK    5  A    between atoms: S_16  and  C_19
REMARK    6  A    between atoms: C_19  and  C_20
REMARK    7  A    between atoms: C_20  and  C_21
REMARK    8  A    between atoms: N_23  and  C_24
REMARK    9  A    between atoms: C_27  and  C_30
REMARK                            x       y       z     vdW  Elec       q    Type
REMARK                         _______ _______ _______ _____ _____    ______ ____
ROOT
ATOM      1  S   UNL     1      -5.106   4.587   5.527  0.00  0.00    -0.003 S 
ATOM      2  O   UNL     1      -4.701   5.032   6.814  0.00  0.00    -0.169 OA
ATOM      3  O   UNL     1      -5.388   5.520   4.494  0.00  0.00    -0.169 OA
ENDROOT
BRANCH   1  10
ATOM      4  C   UNL     1      -0.001   1.088   2.481  0.00  0.00    +0.220 C 
ATOM      5  O   UNL     1       0.992   0.404   2.352  0.00  0.00    -0.275 OA
ATOM      6  N   UNL     1      -0.455   1.393   3.712  0.00  0.00    -0.268 N 
ATOM      7  C   UNL     1      -1.585   2.171   3.981  0.00  0.00    +0.040 A 
ATOM      8  C   UNL     1      -2.469   2.785   3.090  0.00  0.00    +0.025 A 
ATOM      9  C   UNL     1      -3.536   3.517   3.564  0.00  0.00    +0.029 A 
ATOM     10  C   UNL     1      -3.740   3.650   4.925  0.00  0.00    +0.089 A 
ATOM     11  C   UNL     1      -2.870   3.045   5.813  0.00  0.00    +0.032 A 
ATOM     12  C   UNL     1      -1.798   2.310   5.343  0.00  0.00    -0.022 A 
ATOM     13  C   UNL     1      -0.713   1.557   6.079  0.00  0.00    +0.059 C 
ATOM     14  C   UNL     1       0.161   0.953   4.967  0.00  0.00    +0.083 C 
ATOM     15  C   UNL     1       1.591   1.486   5.072  0.00  0.00    +0.029 C 
BRANCH   4  17
ATOM     16  C   UNL     1      -0.011   1.112   0.001  0.00  0.00    +0.013 C 
ATOM     17  C   UNL     1      -0.728   1.598   1.262  0.00  0.00    +0.093 C 
ENDBRANCH   4  17
ENDBRANCH   1  10
BRANCH   1  18
ATOM     18  C   UNL     1      -6.462   3.391   5.677  0.00  0.00    +0.181 C 
BRANCH  18  19
ATOM     19  C   UNL     1      -7.713   4.101   6.197  0.00  0.00    +0.119 C 
BRANCH  19  20
ATOM     20  C   UNL     1      -8.839   3.108   6.322  0.00  0.00    +0.219 C 
ATOM     21  O   UNL     1      -8.659   1.946   6.024  0.00  0.00    -0.275 OA
ATOM     22  N   UNL     1     -10.047   3.511   6.764  0.00  0.00    -0.285 N 
ATOM     23  H   UNL     1     -10.190   4.547   7.106  0.00  0.00    +0.155 HD
BRANCH  22  24
ATOM     24  C   UNL     1     -11.119   2.612   6.789  0.00  0.00    +0.033 A 
ATOM     25  C   UNL     1     -12.407   3.058   6.528  0.00  0.00    +0.024 A 
ATOM     26  C   UNL     1     -13.462   2.167   6.547  0.00  0.00    +0.014 A 
ATOM     27  C   UNL     1     -13.238   0.834   6.838  0.00  0.00    +0.055 A 
ATOM     28  C   UNL     1     -11.957   0.387   7.103  0.00  0.00    +0.014 A 
ATOM     29  C   UNL     1     -10.896   1.272   7.080  0.00  0.00    +0.024 A 
BRANCH  27  30
ATOM     30  C   UNL     1     -14.392  -0.135   6.864  0.00  0.00    +0.417 C 
ATOM     31  F   UNL     1     -14.929  -0.185   8.155  0.00  0.00    -0.166 F 
ATOM     32  F   UNL     1     -15.377   0.289   5.966  0.00  0.00    -0.166 F 
ATOM     33  F   UNL     1     -13.942  -1.407   6.496  0.00  0.00    -0.166 F 
ENDBRANCH  27  30
ENDBRANCH  22  24
ENDBRANCH  19  20
ENDBRANCH  18  19
ENDBRANCH   1  18
TORSDOF 7
