REMARK  Name = ZINC63351549
REMARK  4 active torsions:
REMARK  status: ('A' for Active; 'I' for Inactive)
REMARK    1  A    between atoms: C_1  and  C_2
REMARK    2  A    between atoms: C_2  and  C_33
REMARK    3  A    between atoms: N_20  and  N_23
REMARK    4  A    between atoms: C_24  and  C_25
REMARK                            x       y       z     vdW  Elec       q    Type
REMARK                         _______ _______ _______ _____ _____    ______ ____
ROOT
ATOM      1  C   UNL     1      -0.019   1.522   0.010  0.00  0.00    +0.034 C 
ATOM      2  C   UNL     1       0.002  -0.004   0.002  0.00  0.00    +0.057 C 
ATOM      3  C   UNL     1       0.751  -0.510  -1.237  0.00  0.00    +0.129 C 
ATOM      4  C   UNL     1       0.801  -2.029  -1.108  0.00  0.00    -0.034 C 
ATOM      5  C   UNL     1       0.272  -2.517  -2.222  0.00  0.00    -0.001 A 
ATOM      6  C   UNL     1       0.093  -3.898  -2.700  0.00  0.00    +0.010 A 
ATOM      7  C   UNL     1      -0.501  -4.040  -3.914  0.00  0.00    +0.001 A 
ATOM      8  C   UNL     1      -0.932  -2.960  -4.691  0.00  0.00    +0.002 A 
ATOM      9  C   UNL     1      -0.807  -1.657  -4.330  0.00  0.00    +0.026 A 
ATOM     10  C   UNL     1      -0.193  -1.380  -3.075  0.00  0.00    +0.043 A 
ATOM     11  N   UNL     1       0.059  -0.243  -2.493  0.00  0.00    -0.375 N 
ATOM     12  C   UNL     1       1.349  -2.707   0.124  0.00  0.00    +0.065 C 
ATOM     13  C   UNL     1       0.655  -2.045   1.330  0.00  0.00    +0.168 C 
ATOM     14  N   UNL     1       0.699  -0.582   1.167  0.00  0.00    -0.281 N 
ATOM     15  C   UNL     1       1.394   0.152   2.037  0.00  0.00    +0.236 C 
ATOM     16  O   UNL     1       1.995   1.147   1.727  0.00  0.00    -0.274 OA
ATOM     17  C   UNL     1       1.508  -0.243   3.487  0.00  0.00    +0.230 C 
ATOM     18  N   UNL     1       1.654  -1.688   3.590  0.00  0.00    -0.183 N 
ATOM     19  C   UNL     1       1.302  -2.504   2.596  0.00  0.00    +0.256 C 
ATOM     20  O   UNL     1       1.519  -3.689   2.728  0.00  0.00    -0.272 OA
ATOM     21  C   UNL     1      -1.450  -0.504  -0.043  0.00  0.00    +0.034 C 
ATOM     22  H   UNL     1      -0.174   0.630  -2.848  0.00  0.00    +0.160 HD
ENDROOT
BRANCH  18  23
ATOM     23  N   UNL     1       2.178  -2.233   4.764  0.00  0.00    -0.184 NA
ATOM     24  C   UNL     1       2.527  -1.454   5.741  0.00  0.00    +0.141 C 
BRANCH  24  25
ATOM     25  C   UNL     1       3.081  -2.029   6.981  0.00  0.00    +0.031 A 
ATOM     26  C   UNL     1       3.237  -3.413   7.105  0.00  0.00    +0.051 A 
ATOM     27  C   UNL     1       3.756  -3.943   8.269  0.00  0.00    +0.021 A 
ATOM     28  C   UNL     1       4.121  -3.110   9.311  0.00  0.00    +0.003 A 
ATOM     29  C   UNL     1       3.970  -1.740   9.196  0.00  0.00    +0.021 A 
ATOM     30  C   UNL     1       3.458  -1.193   8.036  0.00  0.00    +0.051 A 
ATOM     31 CL   UNL     1       3.275   0.527   7.891  0.00  0.00    -0.083 Cl
ATOM     32 CL   UNL     1       2.779  -4.460   5.799  0.00  0.00    -0.083 Cl
ENDBRANCH  24  25
ENDBRANCH  18  23
TORSDOF 2
