REMARK  Name = ZINC09407432
REMARK  9 active torsions:
REMARK  status: ('A' for Active; 'I' for Inactive)
REMARK    1  A    between atoms: C_1  and  C_2
REMARK    2  A    between atoms: C_4  and  N_9
REMARK    3  A    between atoms: C_10  and  C_12
REMARK    4  A    between atoms: C_12  and  C_13
REMARK    5  A    between atoms: C_13  and  C_14
REMARK    6  A    between atoms: C_15  and  C_25
REMARK    7  A    between atoms: C_19  and  C_24
REMARK    8  A    between atoms: C_22  and  C_23
REMARK    9  A    between atoms: C_24  and  N_47
REMARK                            x       y       z     vdW  Elec       q    Type
REMARK                         _______ _______ _______ _____ _____    ______ ____
ROOT
ATOM      1  C   UNL     1       0.860  -0.728   0.011  0.00  0.00    -0.005 A 
ATOM      2  C   UNL     1      -0.345  -0.031  -0.141  0.00  0.00    +0.047 A 
ATOM      3  N   UNL     1      -0.358   1.283  -0.118  0.00  0.00    -0.216 NA
ATOM      4  C   UNL     1       0.773   1.978   0.048  0.00  0.00    +0.253 A 
ATOM      5  N   UNL     1       1.026   3.281   0.105  0.00  0.00    -0.196 NA
ATOM      6  C   UNL     1       2.325   3.478   0.285  0.00  0.00    +0.136 A 
ATOM      7  N   UNL     1       2.941   2.322   0.348  0.00  0.00    -0.151 NA
ATOM      8  N   UNL     1       1.966   1.328   0.198  0.00  0.00    -0.201 N 
ATOM      9  C   UNL     1       2.013  -0.031   0.180  0.00  0.00    +0.048 A 
ATOM     10  C   UNL     1       3.325  -0.753   0.345  0.00  0.00    +0.066 C 
ATOM     11  C   UNL     1      -1.633  -0.790  -0.329  0.00  0.00    +0.066 C 
ENDROOT
BRANCH   1  12
ATOM     12  C   UNL     1       0.877  -2.235  -0.014  0.00  0.00    +0.048 C 
BRANCH  12  13
ATOM     13  C   UNL     1       1.076  -2.719  -1.451  0.00  0.00    +0.101 C 
BRANCH  13  15
ATOM     14  N   UNL     1       1.258  -4.879  -2.643  0.00  0.00    -0.285 N 
ATOM     15  C   UNL     1       1.093  -4.226  -1.476  0.00  0.00    +0.218 C 
ATOM     16  O   UNL     1       0.959  -4.851  -0.445  0.00  0.00    -0.275 OA
ATOM     17  H   UNL     1       1.288  -4.384  -3.476  0.00  0.00    +0.155 HD
BRANCH  14  21
ATOM     18  C   UNL     1       0.467  -9.184  -4.883  0.00  0.00    +0.045 C 
ATOM     19  C   UNL     1       1.010  -8.385  -3.726  0.00  0.00    -0.035 A 
ATOM     20  C   UNL     1       0.884  -7.009  -3.719  0.00  0.00    +0.027 A 
ATOM     21  C   UNL     1       1.384  -6.273  -2.653  0.00  0.00    +0.034 A 
ATOM     22  C   UNL     1       2.015  -6.922  -1.599  0.00  0.00    +0.024 A 
ATOM     23  C   UNL     1       2.133  -8.298  -1.609  0.00  0.00    +0.017 A 
ATOM     24  C   UNL     1       1.634  -9.029  -2.673  0.00  0.00    +0.021 A 
ATOM     25 BR   UNL     1       1.804 -10.912  -2.686  0.00  0.00    -0.050 Br
ENDBRANCH  14  21
ENDBRANCH  13  15
ENDBRANCH  12  13
ENDBRANCH   1  12
BRANCH   6  26
ATOM     26  C   UNL     1       2.991   4.825   0.399  0.00  0.00    -0.007 C 
BRANCH  26  29
ATOM     27  H   UNL     1       3.842   6.189  -0.886  0.00  0.00    -0.089 HD
ATOM     28  H   UNL     1       3.989   4.610  -1.388  0.00  0.00    -0.089 HD
ATOM     29  N   UNL     1       3.370   5.288  -0.947  0.00  0.00    +0.383 N 
ATOM     30  H   UNL     1       2.524   5.392  -1.519  0.00  0.00    -0.089 HD
ENDBRANCH  26  29
ENDBRANCH   6  26
TORSDOF 6
