REMARK  Name = ZINC40165991
REMARK  6 active torsions:
REMARK  status: ('A' for Active; 'I' for Inactive)
REMARK    1  A    between atoms: C_1  and  C_2
REMARK    2  A    between atoms: C_6  and  O_8
REMARK    3  A    between atoms: O_8  and  C_9
REMARK    4  A    between atoms: C_9  and  C_10
REMARK    5  A    between atoms: C_10  and  S_11
REMARK    6  A    between atoms: S_11  and  C_12
REMARK                            x       y       z     vdW  Elec       q    Type
REMARK                         _______ _______ _______ _____ _____    ______ ____
ROOT
ATOM      1  S   UNL     1       0.106  -6.607   3.576  0.00  0.00    -0.103 S 
ENDROOT
BRANCH   1   2
ATOM      2  C   UNL     1       0.121  -7.134   5.257  0.00  0.00    +0.098 A 
ATOM      3  C   UNL     1       0.146  -8.507   5.545  0.00  0.00    +0.035 A 
ATOM      4  C   UNL     1       0.159  -8.928   6.840  0.00  0.00    +0.012 A 
ATOM      5  C   UNL     1       0.145  -7.955   7.860  0.00  0.00    +0.000 A 
ATOM      6  C   UNL     1       0.157  -8.320   9.215  0.00  0.00    +0.010 A 
ATOM      7  C   UNL     1       0.144  -7.353  10.174  0.00  0.00    +0.001 A 
ATOM      8  C   UNL     1       0.119  -6.004   9.827  0.00  0.00    +0.002 A 
ATOM      9  C   UNL     1       0.106  -5.615   8.523  0.00  0.00    +0.028 A 
ATOM     10  C   UNL     1       0.119  -6.584   7.505  0.00  0.00    +0.072 A 
ATOM     11  N   UNL     1       0.113  -6.229   6.215  0.00  0.00    -0.240 NA
ENDBRANCH   1   2
BRANCH   1  12
ATOM     12  C   UNL     1       0.083  -4.796   3.683  0.00  0.00    +0.117 C 
BRANCH  12  13
ATOM     13  C   UNL     1       0.069  -4.202   2.274  0.00  0.00    +0.240 C 
BRANCH  13  14
ATOM     14  O   UNL     1       0.050  -2.776   2.358  0.00  0.00    -0.491 OA
BRANCH  14  20
ATOM     15  C   UNL     1      -0.018   1.503   0.010  0.00  0.00    +0.044 C 
ATOM     16  C   UNL     1       0.002  -0.004   0.002  0.00  0.00    -0.047 A 
ATOM     17  C   UNL     1       0.006  -0.688  -1.200  0.00  0.00    +0.003 A 
ATOM     18  C   UNL     1       0.024  -2.071  -1.211  0.00  0.00    +0.004 A 
ATOM     19  C   UNL     1       0.039  -2.772  -0.020  0.00  0.00    +0.045 A 
ATOM     20  C   UNL     1       0.035  -2.088   1.186  0.00  0.00    +0.121 A 
ATOM     21  C   UNL     1       0.023  -0.700   1.195  0.00  0.00    +0.049 A 
ENDBRANCH  14  20
ENDBRANCH  13  14
ENDBRANCH  12  13
ENDBRANCH   1  12
TORSDOF 5
