REMARK  Name = ZINC21657595
REMARK  2 active torsions:
REMARK  status: ('A' for Active; 'I' for Inactive)
REMARK    1  A    between atoms: C_3  and  S_8
REMARK    2  A    between atoms: S_8  and  C_11
REMARK                            x       y       z     vdW  Elec       q    Type
REMARK                         _______ _______ _______ _____ _____    ______ ____
ROOT
ATOM      1  C   UNL     1      -0.117   4.190   0.025  0.00  0.00    +0.159 A 
ATOM      2  C   UNL     1      -1.238   3.439   0.033  0.00  0.00    +0.142 A 
ATOM      3  N   UNL     1      -1.207   2.085   0.019  0.00  0.00    -0.250 NA
ATOM      4  C   UNL     1      -0.017   1.389   0.010  0.00  0.00    +0.110 A 
ATOM      5  C   UNL     1       1.198   2.096   0.002  0.00  0.00    +0.053 A 
ATOM      6  C   UNL     1       1.153   3.569   0.010  0.00  0.00    +0.215 A 
ATOM      7  O   UNL     1       2.178   4.231   0.003  0.00  0.00    -0.285 OA
ATOM      8  C   UNL     1       2.410   1.405  -0.014  0.00  0.00    +0.034 A 
ATOM      9  C   UNL     1       2.407   0.027  -0.021  0.00  0.00    +0.044 A 
ATOM     10  C   UNL     1       1.208  -0.673  -0.013  0.00  0.00    +0.060 A 
ATOM     11  C   UNL     1       0.002  -0.004   0.002  0.00  0.00    +0.151 A 
ATOM     12  F   UNL     1      -1.157  -0.697   0.009  0.00  0.00    -0.203 F 
ATOM     13 CL   UNL     1       3.912  -0.838  -0.041  0.00  0.00    -0.083 Cl
ENDROOT
BRANCH   1  14
ATOM     14  S   UNL     1      -0.237   5.948   0.036  0.00  0.00    +0.030 S 
ATOM     15  O   UNL     1       0.620   6.420  -0.995  0.00  0.00    -0.164 OA
ATOM     16  O   UNL     1      -1.622   6.261   0.078  0.00  0.00    -0.164 OA
BRANCH  14  19
ATOM     17  C   UNL     1       2.341   7.244   2.832  0.00  0.00    +0.040 A 
ATOM     18  C   UNL     1       1.800   6.804   1.639  0.00  0.00    +0.030 A 
ATOM     19  C   UNL     1       0.452   6.508   1.558  0.00  0.00    +0.094 A 
ATOM     20  C   UNL     1      -0.357   6.657   2.669  0.00  0.00    +0.030 A 
ATOM     21  C   UNL     1       0.183   7.091   3.865  0.00  0.00    +0.040 A 
ATOM     22  C   UNL     1       1.533   7.388   3.946  0.00  0.00    +0.124 A 
ATOM     23  F   UNL     1       2.061   7.817   5.114  0.00  0.00    -0.205 F 
ENDBRANCH  14  19
ENDBRANCH   1  14
TORSDOF 2
