REMARK  Name = ZINC21324062
REMARK  8 active torsions:
REMARK  status: ('A' for Active; 'I' for Inactive)
REMARK    1  A    between atoms: C_1  and  C_2
REMARK    2  A    between atoms: C_5  and  C_28
REMARK    3  A    between atoms: C_6  and  S_8
REMARK    4  A    between atoms: S_8  and  C_9
REMARK    5  A    between atoms: C_12  and  N_15
REMARK    6  A    between atoms: C_16  and  C_18
REMARK    7  A    between atoms: C_18  and  N_19
REMARK    8  A    between atoms: C_22  and  C_25
REMARK                            x       y       z     vdW  Elec       q    Type
REMARK                         _______ _______ _______ _____ _____    ______ ____
ROOT
ATOM      1  N   UNL     1      -0.142   8.016   0.391  0.00  0.00    -0.287 N 
ATOM      2  C   UNL     1       0.886   8.495  -0.336  0.00  0.00    +0.201 C 
ATOM      3  O   UNL     1       1.399   7.804  -1.192  0.00  0.00    -0.278 OA
ATOM      4  H   UNL     1      -0.551   8.609   1.222  0.00  0.00    +0.155 HD
ENDROOT
BRANCH   1   8
ATOM      5  C   UNL     1      -1.775   4.286  -0.514  0.00  0.00    +0.013 A 
ATOM      6  C   UNL     1      -0.409   4.500  -0.655  0.00  0.00    +0.017 A 
ATOM      7  C   UNL     1       0.130   5.736  -0.361  0.00  0.00    +0.024 A 
ATOM      8  C   UNL     1      -0.691   6.763   0.087  0.00  0.00    +0.033 A 
ATOM      9  C   UNL     1      -2.055   6.548   0.235  0.00  0.00    +0.024 A 
ATOM     10  C   UNL     1      -2.595   5.314  -0.065  0.00  0.00    +0.017 A 
BRANCH   5  11
ATOM     11  S   UNL     1      -2.464   2.711  -0.896  0.00  0.00    -0.089 S 
BRANCH  11  17
ATOM     12  C   UNL     1       1.042  -0.969   0.347  0.00  0.00    +0.044 C 
ATOM     13  C   UNL     1       0.519   0.024  -0.659  0.00  0.00    -0.049 A 
ATOM     14  C   UNL     1       1.144   0.159  -1.886  0.00  0.00    +0.004 A 
ATOM     15  C   UNL     1       0.668   1.068  -2.812  0.00  0.00    +0.005 A 
ATOM     16  C   UNL     1      -0.433   1.847  -2.515  0.00  0.00    -0.037 A 
ATOM     17  C   UNL     1      -1.063   1.714  -1.283  0.00  0.00    +0.016 A 
ATOM     18  C   UNL     1      -0.582   0.798  -0.355  0.00  0.00    +0.018 A 
ATOM     19  C   UNL     1      -0.951   2.839  -3.524  0.00  0.00    +0.045 C 
ENDBRANCH  11  17
ENDBRANCH   5  11
ENDBRANCH   1   8
BRANCH   2  20
ATOM     20  C   UNL     1       1.400   9.890  -0.087  0.00  0.00    +0.019 C 
BRANCH  20  21
ATOM     21  N   UNL     1       2.526  10.166  -0.990  0.00  0.00    +0.385 N 
ATOM     22  C   UNL     1       2.887  11.589  -0.960  0.00  0.00    -0.077 C 
ATOM     23  C   UNL     1       3.960  11.866  -2.015  0.00  0.00    -0.006 C 
ATOM     24  C   UNL     1       5.190  11.002  -1.724  0.00  0.00    +0.071 C 
ATOM     25  C   UNL     1       4.777   9.527  -1.713  0.00  0.00    -0.006 C 
ATOM     26  C   UNL     1       3.680   9.318  -0.667  0.00  0.00    -0.077 C 
ATOM     27  H   UNL     1       2.207   9.922  -2.014  0.00  0.00    -0.081 HD
BRANCH  24  28
ATOM     28  C   UNL     1       6.228  11.226  -2.794  0.00  0.00    +0.213 C 
ATOM     29  O   UNL     1       6.601  10.298  -3.481  0.00  0.00    -0.276 OA
ATOM     30  N   UNL     1       6.741  12.457  -2.988  0.00  0.00    -0.329 N 
ATOM     31  H   UNL     1       7.498  12.620  -3.769  0.00  0.00    +0.145 HD
ATOM     32  H   UNL     1       6.403  13.298  -2.365  0.00  0.00    +0.145 HD
ENDBRANCH  24  28
ENDBRANCH  20  21
ENDBRANCH   2  20
TORSDOF 6
