REMARK  Name = ZINC63598784
REMARK  8 active torsions:
REMARK  status: ('A' for Active; 'I' for Inactive)
REMARK    1  A    between atoms: C_1  and  C_2
REMARK    2  A    between atoms: C_4  and  S_12
REMARK    3  A    between atoms: S_12  and  C_13
REMARK    4  A    between atoms: C_13  and  C_14
REMARK    5  A    between atoms: N_16  and  N_17
REMARK    6  A    between atoms: N_20  and  C_21
REMARK    7  A    between atoms: C_24  and  O_27
REMARK    8  A    between atoms: O_27  and  C_28
REMARK                            x       y       z     vdW  Elec       q    Type
REMARK                         _______ _______ _______ _____ _____    ______ ____
ROOT
ATOM      1  C   UNL     1       1.476  -0.683  -5.250  0.00  0.00    +0.239 C 
ATOM      2  O   UNL     1       0.447  -0.177  -5.647  0.00  0.00    -0.273 OA
ATOM      3  N   UNL     1       2.379  -1.154  -6.132  0.00  0.00    -0.233 N 
ATOM      4  H   UNL     1       3.202  -1.559  -5.815  0.00  0.00    +0.173 HD
ENDROOT
BRANCH   3   5
ATOM      5  N   UNL     1       2.130  -1.059  -7.508  0.00  0.00    -0.218 N 
ATOM      6  C   UNL     1       3.034  -1.530  -8.390  0.00  0.00    +0.320 C 
ATOM      7  O   UNL     1       2.818  -1.448  -9.584  0.00  0.00    -0.251 OA
ATOM      8  N   UNL     1       4.176  -2.093  -7.949  0.00  0.00    -0.268 N 
ATOM      9  H   UNL     1       1.308  -0.655  -7.825  0.00  0.00    +0.174 HD
ATOM     10  H   UNL     1       4.316  -2.227  -6.998  0.00  0.00    +0.156 HD
BRANCH   8  11
ATOM     11  C   UNL     1       5.164  -2.483  -8.864  0.00  0.00    +0.035 A 
ATOM     12  C   UNL     1       5.948  -3.599  -8.604  0.00  0.00    +0.027 A 
ATOM     13  C   UNL     1       6.921  -3.983  -9.506  0.00  0.00    +0.048 A 
ATOM     14  C   UNL     1       7.114  -3.255 -10.671  0.00  0.00    +0.130 A 
ATOM     15  C   UNL     1       6.331  -2.140 -10.930  0.00  0.00    +0.048 A 
ATOM     16  C   UNL     1       5.354  -1.758 -10.032  0.00  0.00    +0.027 A 
BRANCH  14  17
ATOM     17  O   UNL     1       8.072  -3.634 -11.558  0.00  0.00    -0.406 OA
BRANCH  17  18
ATOM     18  C   UNL     1       8.217  -2.838 -12.736  0.00  0.00    +0.575 C 
ATOM     19  F   UNL     1       8.537  -1.524 -12.375  0.00  0.00    -0.133 F 
ATOM     20  F   UNL     1       9.239  -3.365 -13.533  0.00  0.00    -0.133 F 
ATOM     21  F   UNL     1       7.016  -2.845 -13.454  0.00  0.00    -0.133 F 
ENDBRANCH  17  18
ENDBRANCH  14  17
ENDBRANCH   8  11
ENDBRANCH   3   5
BRANCH   1  22
ATOM     22  C   UNL     1       1.743  -0.785  -3.770  0.00  0.00    +0.171 C 
BRANCH  22  23
ATOM     23  S   UNL     1       0.352  -0.069  -2.853  0.00  0.00    -0.117 S 
BRANCH  23  26
ATOM     24  C   UNL     1      -0.030   1.989  -0.238  0.00  0.00    +0.036 C 
ATOM     25  C   UNL     1       0.135   0.477  -0.072  0.00  0.00    +0.113 C 
ATOM     26  C   UNL     1       0.853  -0.103  -1.271  0.00  0.00    +0.017 C 
ATOM     27  C   UNL     1       2.020  -0.672  -0.772  0.00  0.00    +0.009 A 
ATOM     28  C   UNL     1       3.087  -1.357  -1.393  0.00  0.00    +0.011 A 
ATOM     29  C   UNL     1       4.122  -1.814  -0.641  0.00  0.00    +0.001 A 
ATOM     30  C   UNL     1       4.161  -1.624   0.741  0.00  0.00    +0.002 A 
ATOM     31  C   UNL     1       3.170  -0.976   1.402  0.00  0.00    +0.026 A 
ATOM     32  C   UNL     1       2.057  -0.470   0.685  0.00  0.00    +0.044 A 
ATOM     33  N   UNL     1       0.982   0.185   1.088  0.00  0.00    -0.377 N 
ATOM     34  H   UNL     1       0.785   0.433   2.005  0.00  0.00    +0.160 HD
ENDBRANCH  23  26
ENDBRANCH  22  23
ENDBRANCH   1  22
TORSDOF 7
