REMARK  Name = ZINC09357829
REMARK  7 active torsions:
REMARK  status: ('A' for Active; 'I' for Inactive)
REMARK    1  A    between atoms: C_1  and  O_2
REMARK    2  A    between atoms: O_2  and  C_3
REMARK    3  A    between atoms: C_3  and  C_5
REMARK    4  A    between atoms: C_5  and  C_35
REMARK    5  A    between atoms: C_6  and  C_28
REMARK    6  A    between atoms: C_8  and  C_20
REMARK    7  A    between atoms: C_20  and  C_22
REMARK                            x       y       z     vdW  Elec       q    Type
REMARK                         _______ _______ _______ _____ _____    ______ ____
ROOT
ATOM      1  C   UNL     1       1.305   1.606   0.336  0.00  0.00    +0.183 C 
ATOM      2  C   UNL     1      -0.227   1.476   0.129  0.00  0.00    +0.078 C 
ATOM      3  C   UNL     1      -0.436   2.260  -1.196  0.00  0.00    +0.138 C 
ATOM      4  C   UNL     1       1.868   1.643  -1.095  0.00  0.00    +0.119 C 
ATOM      5  C   UNL     1       2.452   0.309  -1.482  0.00  0.00    -0.019 A 
ATOM      6  C   UNL     1       3.113  -0.472  -0.562  0.00  0.00    +0.006 A 
ATOM      7  C   UNL     1       3.637  -1.696  -0.943  0.00  0.00    +0.000 A 
ATOM      8  C   UNL     1       3.499  -2.138  -2.246  0.00  0.00    +0.001 A 
ATOM      9  C   UNL     1       2.840  -1.364  -3.179  0.00  0.00    +0.008 A 
ATOM     10  C   UNL     1       2.310  -0.128  -2.805  0.00  0.00    -0.019 A 
ATOM     11  C   UNL     1       1.609   0.710  -3.799  0.00  0.00    +0.022 C 
ATOM     12  C   UNL     1       0.811   1.710  -3.374  0.00  0.00    +0.054 C 
ATOM     13  N   UNL     1       0.859   2.217  -1.944  0.00  0.00    -0.383 NA
ATOM     14  H   UNL     1       1.137   3.200  -2.046  0.00  0.00    +0.127 HD
ENDROOT
BRANCH   2  15
ATOM     15  C   UNL     1      -0.981   2.122   1.263  0.00  0.00    -0.040 A 
ATOM     16  C   UNL     1      -0.974   3.497   1.403  0.00  0.00    +0.005 A 
ATOM     17  C   UNL     1      -1.669   4.090   2.440  0.00  0.00    +0.015 A 
ATOM     18  C   UNL     1      -2.364   3.306   3.344  0.00  0.00    +0.018 A 
ATOM     19  C   UNL     1      -2.366   1.930   3.207  0.00  0.00    +0.015 A 
ATOM     20  C   UNL     1      -1.675   1.338   2.166  0.00  0.00    +0.005 A 
ATOM     21 BR   UNL     1      -3.308   4.116   4.768  0.00  0.00    -0.050 Br
ENDBRANCH   2  15
BRANCH   1  22
ATOM     22  C   UNL     1       1.841   0.413   1.084  0.00  0.00    +0.330 C 
ATOM     23  O   UNL     1       1.377  -0.685   0.882  0.00  0.00    -0.249 OA
BRANCH  22  25
ATOM     24  C   UNL     1       3.280  -0.620   2.679  0.00  0.00    +0.280 C 
ATOM     25  O   UNL     1       2.832   0.569   1.975  0.00  0.00    -0.467 OA
ENDBRANCH  22  25
ENDBRANCH   1  22
BRANCH   3  26
ATOM     26  C   UNL     1      -1.710   1.827  -1.873  0.00  0.00    +0.182 C 
ATOM     27  O   UNL     1      -2.246   0.789  -1.550  0.00  0.00    -0.290 OA
BRANCH  26  28
ATOM     28  C   UNL     1      -2.305   2.666  -2.927  0.00  0.00    +0.019 A 
ATOM     29  C   UNL     1      -1.760   3.920  -3.218  0.00  0.00    +0.011 A 
ATOM     30  C   UNL     1      -2.320   4.697  -4.210  0.00  0.00    +0.001 A 
ATOM     31  C   UNL     1      -3.425   4.243  -4.909  0.00  0.00    +0.000 A 
ATOM     32  C   UNL     1      -3.973   3.005  -4.623  0.00  0.00    +0.001 A 
ATOM     33  C   UNL     1      -3.421   2.214  -3.638  0.00  0.00    +0.011 A 
ENDBRANCH  26  28
ENDBRANCH   3  26
BRANCH   1  34
ATOM     34  C   UNL     1       1.626   2.852   1.050  0.00  0.00    +0.084 C 
ATOM     35  N   UNL     1       1.874   3.814   1.601  0.00  0.00    -0.195 NA
ENDBRANCH   1  34
TORSDOF 6
