REMARK  Name = ZINC14139619
REMARK  5 active torsions:
REMARK  status: ('A' for Active; 'I' for Inactive)
REMARK    1  A    between atoms: C_1  and  C_2
REMARK    2  A    between atoms: C_7  and  O_8
REMARK    3  A    between atoms: O_8  and  C_9
REMARK    4  A    between atoms: C_9  and  C_10
REMARK    5  A    between atoms: N_12  and  C_13
REMARK                            x       y       z     vdW  Elec       q    Type
REMARK                         _______ _______ _______ _____ _____    ______ ____
ROOT
ATOM      1  C   UNL     1      -4.235   0.387   1.099  0.00  0.00    +0.255 C 
ATOM      2  O   UNL     1      -4.643   0.165  -0.021  0.00  0.00    -0.272 OA
ATOM      3  N   UNL     1      -4.935  -0.040   2.168  0.00  0.00    -0.283 N 
ATOM      4  H   UNL     1      -4.577   0.078   3.062  0.00  0.00    +0.155 HD
ENDROOT
BRANCH   3   5
ATOM      5  C   UNL     1      -6.181  -0.656   1.990  0.00  0.00    +0.036 A 
ATOM      6  C   UNL     1      -7.192  -0.459   2.923  0.00  0.00    +0.025 A 
ATOM      7  C   UNL     1      -8.424  -1.058   2.750  0.00  0.00    +0.029 A 
ATOM      8  C   UNL     1      -8.650  -1.869   1.648  0.00  0.00    +0.067 A 
ATOM      9  C   UNL     1      -7.634  -2.073   0.712  0.00  0.00    +0.069 A 
ATOM     10  C   UNL     1      -6.401  -1.465   0.885  0.00  0.00    +0.051 A 
ATOM     11  N   UNL     1      -8.152  -2.919  -0.266  0.00  0.00    -0.306 N 
ATOM     12  H   UNL     1      -7.677  -3.240  -1.049  0.00  0.00    +0.170 HD
ATOM     13  C   UNL     1      -9.424  -3.216   0.059  0.00  0.00    +0.325 A 
ATOM     14  O   UNL     1     -10.163  -3.935  -0.587  0.00  0.00    -0.247 OA
ATOM     15  N   UNL     1      -9.755  -2.598   1.209  0.00  0.00    -0.306 N 
ATOM     16  H   UNL     1     -10.614  -2.651   1.656  0.00  0.00    +0.170 HD
ENDBRANCH   3   5
BRANCH   1  17
ATOM     17  C   UNL     1      -2.946   1.141   1.295  0.00  0.00    +0.325 C 
BRANCH  17  18
ATOM     18  O   UNL     1      -2.396   1.484   0.021  0.00  0.00    -0.481 OA
BRANCH  18  25
ATOM     19  C   UNL     1      -0.004  -0.018  -0.012  0.00  0.00    +0.047 C 
ATOM     20  C   UNL     1      -0.017   1.489   0.004  0.00  0.00    -0.006 A 
ATOM     21  C   UNL     1       1.174   2.190  -0.004  0.00  0.00    +0.022 A 
ATOM     22  C   UNL     1       1.163   3.573   0.011  0.00  0.00    +0.020 A 
ATOM     23  C   UNL     1      -0.039   4.258   0.033  0.00  0.00    +0.039 A 
ATOM     24  C   UNL     1      -1.232   3.560   0.040  0.00  0.00    +0.084 A 
ATOM     25  C   UNL     1      -1.223   2.172   0.020  0.00  0.00    +0.142 A 
ATOM     26 CL   UNL     1      -2.740   4.419   0.067  0.00  0.00    -0.080 Cl
ATOM     27 BR   UNL     1       2.795   4.530   0.001  0.00  0.00    -0.050 Br
ENDBRANCH  18  25
ENDBRANCH  17  18
ENDBRANCH   1  17
TORSDOF 4
