REMARK  Name = ZINC50202165
REMARK  3 active torsions:
REMARK  status: ('A' for Active; 'I' for Inactive)
REMARK    1  A    between atoms: N_8  and  C_19
REMARK    2  A    between atoms: C_9  and  C_11
REMARK    3  A    between atoms: C_16  and  N_17
REMARK                            x       y       z     vdW  Elec       q    Type
REMARK                         _______ _______ _______ _____ _____    ______ ____
ROOT
ATOM      1  C   UNL     1      -0.003   1.343   0.459  0.00  0.00    +0.004 A 
ATOM      2  C   UNL     1       1.165   2.069   0.405  0.00  0.00    +0.030 A 
ATOM      3  C   UNL     1       2.380   1.415   0.181  0.00  0.00    +0.091 A 
ATOM      4  C   UNL     1       2.393   0.019   0.014  0.00  0.00    +0.088 A 
ATOM      5  C   UNL     1       1.205  -0.697   0.073  0.00  0.00    +0.067 A 
ATOM      6  C   UNL     1       0.015  -0.034   0.293  0.00  0.00    +0.022 A 
ATOM      7 CL   UNL     1       1.216  -2.421  -0.133  0.00  0.00    -0.081 Cl
ATOM      8  N   UNL     1       3.715  -0.334  -0.187  0.00  0.00    -0.319 N 
ATOM      9  C   UNL     1       4.453   0.819  -0.139  0.00  0.00    +0.144 A 
ATOM     10  N   UNL     1       3.662   1.843   0.077  0.00  0.00    -0.227 NA
ENDROOT
BRANCH   9  11
ATOM     11  C   UNL     1       5.918   0.897  -0.306  0.00  0.00    +0.039 A 
ATOM     12  C   UNL     1       6.752   0.034   0.406  0.00  0.00    +0.028 A 
ATOM     13  C   UNL     1       8.120   0.112   0.245  0.00  0.00    +0.019 A 
ATOM     14  C   UNL     1       8.671   1.044  -0.620  0.00  0.00    +0.017 A 
ATOM     15  C   UNL     1       7.857   1.903  -1.331  0.00  0.00    +0.024 A 
ATOM     16  C   UNL     1       6.478   1.835  -1.186  0.00  0.00    +0.035 A 
ATOM     17 BR   UNL     1       9.249  -1.058   1.211  0.00  0.00    -0.050 Br
BRANCH  16  18
ATOM     18  N   UNL     1       5.655   2.697  -1.906  0.00  0.00    -0.357 N 
ATOM     19  H   UNL     1       4.698   2.697  -1.749  0.00  0.00    +0.142 HD
ATOM     20  H   UNL     1       6.040   3.298  -2.563  0.00  0.00    +0.142 HD
ENDBRANCH  16  18
ENDBRANCH   9  11
BRANCH   8  21
ATOM     21  C   UNL     1       4.230  -1.687  -0.408  0.00  0.00    +0.089 C 
ATOM     22  C   UNL     1       5.234  -1.883  -1.546  0.00  0.00    +0.027 C 
ATOM     23  C   UNL     1       3.803  -2.404  -1.691  0.00  0.00    +0.027 C 
ENDBRANCH   8  21
TORSDOF 3
