REMARK  Name = ZINC00989274
REMARK  3 active torsions:
REMARK  status: ('A' for Active; 'I' for Inactive)
REMARK    1  A    between atoms: C_12  and  C_20
REMARK    2  A    between atoms: C_14  and  C_18
REMARK    3  A    between atoms: C_15  and  N_17
REMARK                            x       y       z     vdW  Elec       q    Type
REMARK                         _______ _______ _______ _____ _____    ______ ____
ROOT
ATOM      1  C   UNL     1       2.405   0.021  -0.022  0.00  0.00    +0.001 A 
ATOM      2  C   UNL     1       1.206  -0.676  -0.014  0.00  0.00    +0.004 A 
ATOM      3  C   UNL     1       0.002  -0.004   0.002  0.00  0.00    +0.047 A 
ATOM      4  C   UNL     1      -0.017   1.385   0.010  0.00  0.00    +0.143 A 
ATOM      5  C   UNL     1       1.196   2.091   0.002  0.00  0.00    +0.060 A 
ATOM      6  C   UNL     1       2.409   1.399  -0.014  0.00  0.00    +0.015 A 
ATOM      7  C   UNL     1       1.162   3.562   0.011  0.00  0.00    +0.152 A 
ATOM      8  C   UNL     1      -0.054   4.178   0.024  0.00  0.00    +0.092 A 
ATOM      9  C   UNL     1      -1.226   3.401   0.030  0.00  0.00    +0.345 A 
ATOM     10  O   UNL     1      -2.308   3.962   0.041  0.00  0.00    -0.245 OA
ATOM     11  O   UNL     1      -1.186   2.060   0.019  0.00  0.00    -0.422 OA
ATOM     12  C   UNL     1      -0.152   5.680   0.034  0.00  0.00    +0.108 C 
ATOM     13  C   UNL     1       1.160   6.289  -0.374  0.00  0.00    +0.098 C 
ATOM     14  C   UNL     1       2.302   5.560  -0.365  0.00  0.00    +0.199 C 
ATOM     15  O   UNL     1       2.309   4.267   0.006  0.00  0.00    -0.440 OA
ENDROOT
BRANCH  12  16
ATOM     16  C   UNL     1      -0.510   6.148   1.421  0.00  0.00    +0.001 A 
ATOM     17  C   UNL     1       0.330   5.869   2.483  0.00  0.00    +0.008 A 
ATOM     18  C   UNL     1       0.006   6.303   3.755  0.00  0.00    +0.016 A 
ATOM     19  C   UNL     1      -1.165   7.008   3.968  0.00  0.00    +0.021 A 
ATOM     20  C   UNL     1      -2.009   7.284   2.908  0.00  0.00    +0.054 A 
ATOM     21  C   UNL     1      -1.681   6.854   1.633  0.00  0.00    +0.129 A 
ATOM     22  F   UNL     1      -2.506   7.123   0.597  0.00  0.00    -0.205 F 
ATOM     23 BR   UNL     1      -1.611   7.596   5.709  0.00  0.00    -0.050 Br
ENDBRANCH  12  16
BRANCH  14  24
ATOM     24  N   UNL     1       3.479   6.155  -0.744  0.00  0.00    -0.328 N 
ATOM     25  H   UNL     1       4.304   5.644  -0.741  0.00  0.00    +0.145 HD
ATOM     26  H   UNL     1       3.487   7.086  -1.014  0.00  0.00    +0.145 HD
ENDBRANCH  14  24
BRANCH  13  27
ATOM     27  C   UNL     1       1.204   7.662  -0.780  0.00  0.00    +0.101 C 
ATOM     28  N   UNL     1       1.239   8.751  -1.101  0.00  0.00    -0.191 NA
ENDBRANCH  13  27
TORSDOF 3
