REMARK  Name = ZINC05650229
REMARK  3 active torsions:
REMARK  status: ('A' for Active; 'I' for Inactive)
REMARK    1  A    between atoms: C_8  and  C_9
REMARK    2  A    between atoms: C_10  and  O_22
REMARK    3  A    between atoms: N_11  and  C_15
REMARK                            x       y       z     vdW  Elec       q    Type
REMARK                         _______ _______ _______ _____ _____    ______ ____
ROOT
ATOM      1  C   UNL     1      -0.976   3.685   0.132  0.00  0.00    +0.075 A 
ATOM      2  C   UNL     1      -1.945   4.683   0.256  0.00  0.00    +0.213 A 
ATOM      3  N   UNL     1      -1.543   5.960   0.349  0.00  0.00    -0.265 N 
ATOM      4  C   UNL     1      -0.225   6.262   0.323  0.00  0.00    +0.133 A 
ATOM      5  S   UNL     1       0.529   7.796   0.426  0.00  0.00    -0.024 S 
ATOM      6  S   UNL     1       0.527   4.650   0.163  0.00  0.00    -0.058 S 
ENDROOT
BRANCH   1  14
ATOM      7  C   UNL     1      -0.599  -2.320   0.051  0.00  0.00    +0.001 A 
ATOM      8  C   UNL     1       0.746  -2.669   0.033  0.00  0.00    +0.002 A 
ATOM      9  C   UNL     1       1.720  -1.713   0.011  0.00  0.00    +0.028 A 
ATOM     10  C   UNL     1       1.370  -0.357   0.007  0.00  0.00    +0.072 A 
ATOM     11  C   UNL     1       0.002  -0.004   0.025  0.00  0.00    +0.009 A 
ATOM     12  C   UNL     1      -0.975  -0.994   0.047  0.00  0.00    +0.010 A 
ATOM     13  C   UNL     1      -0.018   1.468   0.014  0.00  0.00    +0.003 C 
ATOM     14  C   UNL     1      -1.138   2.306   0.020  0.00  0.00    +0.030 C 
ATOM     15  C   UNL     1       1.341   1.849  -0.009  0.00  0.00    +0.120 C 
ATOM     16  N   UNL     1       2.095   0.778  -0.013  0.00  0.00    -0.254 NA
ENDBRANCH   1  14
BRANCH   3  17
ATOM     17  C   UNL     1      -2.492   6.983   0.475  0.00  0.00    +0.086 A 
ATOM     18  C   UNL     1      -2.920   7.385   1.733  0.00  0.00    +0.029 A 
ATOM     19  C   UNL     1      -3.851   8.398   1.855  0.00  0.00    +0.002 A 
ATOM     20  C   UNL     1      -4.367   9.005   0.724  0.00  0.00    +0.003 A 
ATOM     21  C   UNL     1      -3.948   8.605  -0.531  0.00  0.00    +0.040 A 
ATOM     22  C   UNL     1      -3.012   7.595  -0.660  0.00  0.00    +0.147 A 
ATOM     23  F   UNL     1      -2.603   7.204  -1.887  0.00  0.00    -0.203 F 
ENDBRANCH   3  17
BRANCH   2  24
ATOM     24  O   UNL     1      -3.257   4.370   0.281  0.00  0.00    -0.492 OA
ATOM     25  H   UNL     1      -3.605   4.203   1.168  0.00  0.00    +0.294 HD
ENDBRANCH   2  24
TORSDOF 3
