REMARK  Name = ZINC57632178
REMARK  7 active torsions:
REMARK  status: ('A' for Active; 'I' for Inactive)
REMARK    1  A    between atoms: C_1  and  C_2
REMARK    2  A    between atoms: C_7  and  C_8
REMARK    3  A    between atoms: C_8  and  C_9
REMARK    4  A    between atoms: C_9  and  C_10
REMARK    5  A    between atoms: C_10  and  C_12
REMARK    6  A    between atoms: C_10  and  O_14
REMARK    7  A    between atoms: O_14  and  C_15
REMARK                            x       y       z     vdW  Elec       q    Type
REMARK                         _______ _______ _______ _____ _____    ______ ____
ROOT
ATOM      1  C   UNL     1      -1.404   1.145   4.223  0.00  0.00    +0.275 C 
ENDROOT
BRANCH   1   2
ATOM      2  C   UNL     1      -2.655   1.790   4.652  0.00  0.00    +0.107 C 
ATOM      3  N   UNL     1      -3.621   2.289   4.983  0.00  0.00    -0.193 NA
ENDBRANCH   1   2
BRANCH   1   4
ATOM      4  C   UNL     1      -1.663   0.318   2.962  0.00  0.00    +0.065 C 
BRANCH   4   5
ATOM      5  C   UNL     1      -0.340  -0.252   2.445  0.00  0.00    +0.040 C 
BRANCH   5  12
ATOM      6  C   UNL     1      -0.469   1.048  -0.132  0.00  0.00    +0.044 C 
ATOM      7  C   UNL     1      -0.657  -0.444  -0.030  0.00  0.00    -0.046 A 
ATOM      8  C   UNL     1      -0.885  -1.191  -1.171  0.00  0.00    +0.023 A 
ATOM      9  C   UNL     1      -1.057  -2.560  -1.077  0.00  0.00    +0.041 A 
ATOM     10  C   UNL     1      -1.001  -3.181   0.158  0.00  0.00    +0.020 A 
ATOM     11  C   UNL     1      -0.773  -2.434   1.297  0.00  0.00    +0.005 A 
ATOM     12  C   UNL     1      -0.596  -1.066   1.203  0.00  0.00    -0.044 A 
ATOM     13 CL   UNL     1      -1.345  -3.499  -2.509  0.00  0.00    -0.084 Cl
ENDBRANCH   5  12
ENDBRANCH   4   5
ENDBRANCH   1   4
BRANCH   1  14
ATOM     14  O   UNL     1      -0.928   0.289   5.264  0.00  0.00    -0.474 OA
BRANCH  14  15
ATOM     15  C   UNL     1      -0.188   0.866   6.247  0.00  0.00    +0.123 A 
ATOM     16  C   UNL     1       0.403   0.078   7.224  0.00  0.00    +0.048 A 
ATOM     17  C   UNL     1       1.155   0.666   8.223  0.00  0.00    +0.042 A 
ATOM     18  C   UNL     1       1.319   2.041   8.249  0.00  0.00    +0.124 A 
ATOM     19  C   UNL     1       0.729   2.828   7.275  0.00  0.00    +0.042 A 
ATOM     20  C   UNL     1      -0.018   2.243   6.272  0.00  0.00    +0.048 A 
ATOM     21  F   UNL     1       2.054   2.614   9.227  0.00  0.00    -0.205 F 
ENDBRANCH  14  15
ENDBRANCH   1  14
TORSDOF 6
