REMARK  Name = ZINC13939856
REMARK  7 active torsions:
REMARK  status: ('A' for Active; 'I' for Inactive)
REMARK    1  A    between atoms: C_6  and  O_7
REMARK    2  A    between atoms: O_7  and  C_8
REMARK    3  A    between atoms: C_8  and  C_9
REMARK    4  A    between atoms: N_11  and  N_12
REMARK    5  A    between atoms: C_13  and  C_14
REMARK    6  A    between atoms: C_17  and  O_21
REMARK    7  A    between atoms: C_19  and  O_20
REMARK                            x       y       z     vdW  Elec       q    Type
REMARK                         _______ _______ _______ _____ _____    ______ ____
ROOT
ATOM      1  C   UNL     1      -2.454  -2.722   0.012  0.00  0.00    +0.270 C 
ATOM      2  O   UNL     1      -3.426  -1.997   0.025  0.00  0.00    -0.270 OA
ATOM      3  N   UNL     1      -2.611  -4.061   0.006  0.00  0.00    -0.204 N 
ATOM      4  H   UNL     1      -1.834  -4.641  -0.005  0.00  0.00    +0.177 HD
ENDROOT
BRANCH   3   5
ATOM      5  N   UNL     1      -3.898  -4.615   0.016  0.00  0.00    -0.188 NA
ATOM      6  C   UNL     1      -4.050  -5.904   0.011  0.00  0.00    +0.142 C 
BRANCH   6   7
ATOM      7  C   UNL     1      -5.402  -6.487   0.021  0.00  0.00    +0.037 A 
ATOM      8  C   UNL     1      -5.569  -7.875   0.021  0.00  0.00    +0.032 A 
ATOM      9  C   UNL     1      -6.836  -8.415   0.030  0.00  0.00    +0.060 A 
ATOM     10  C   UNL     1      -7.952  -7.585   0.040  0.00  0.00    +0.134 A 
ATOM     11  C   UNL     1      -7.796  -6.206   0.039  0.00  0.00    +0.092 A 
ATOM     12  C   UNL     1      -6.528  -5.652   0.037  0.00  0.00    +0.129 A 
ATOM     13 BR   UNL     1      -7.060 -10.293   0.030  0.00  0.00    -0.047 Br
BRANCH  12  14
ATOM     14  O   UNL     1      -6.375  -4.302   0.043  0.00  0.00    -0.506 OA
ATOM     15  H   UNL     1      -6.340  -3.906  -0.839  0.00  0.00    +0.292 HD
ENDBRANCH  12  14
BRANCH  10  16
ATOM     16  O   UNL     1      -9.198  -8.125   0.049  0.00  0.00    -0.506 OA
ATOM     17  H   UNL     1      -9.552  -8.282   0.935  0.00  0.00    +0.292 HD
ENDBRANCH  10  16
ENDBRANCH   6   7
ENDBRANCH   3   5
BRANCH   1  18
ATOM     18  C   UNL     1      -1.070  -2.126   0.001  0.00  0.00    +0.326 C 
BRANCH  18  19
ATOM     19  O   UNL     1      -1.165  -0.701   0.010  0.00  0.00    -0.483 OA
BRANCH  19  25
ATOM     20  C   UNL     1      -0.017   1.383   0.010  0.00  0.00    +0.047 A 
ATOM     21  C   UNL     1       1.171   2.089   0.002  0.00  0.00    +0.019 A 
ATOM     22  C   UNL     1       2.378   1.414  -0.013  0.00  0.00    +0.018 A 
ATOM     23  C   UNL     1       2.399   0.030  -0.022  0.00  0.00    +0.019 A 
ATOM     24  C   UNL     1       1.214  -0.679  -0.014  0.00  0.00    +0.047 A 
ATOM     25  C   UNL     1       0.002  -0.004   0.002  0.00  0.00    +0.121 A 
ATOM     26 BR   UNL     1       4.002   2.383  -0.024  0.00  0.00    -0.050 Br
ENDBRANCH  19  25
ENDBRANCH  18  19
ENDBRANCH   1  18
TORSDOF 7
