REMARK  Name = ZINC64015184
REMARK  7 active torsions:
REMARK  status: ('A' for Active; 'I' for Inactive)
REMARK    1  A    between atoms: C_1  and  C_2
REMARK    2  A    between atoms: C_4  and  C_8
REMARK    3  A    between atoms: C_8  and  N_9
REMARK    4  A    between atoms: N_9  and  C_10
REMARK    5  A    between atoms: N_9  and  C_11
REMARK    6  A    between atoms: C_11  and  C_12
REMARK    7  A    between atoms: C_16  and  C_18
REMARK                            x       y       z     vdW  Elec       q    Type
REMARK                         _______ _______ _______ _____ _____    ______ ____
ROOT
ATOM      1  C   UNL     1      -5.390   5.965  -3.225  0.00  0.00    -0.039 C 
ATOM      2  C   UNL     1      -5.231   6.967  -4.093  0.00  0.00    +0.132 C 
ATOM      3  N   UNL     1      -5.521   8.153  -3.515  0.00  0.00    -0.186 NA
ATOM      4  N   UNL     1      -5.864   8.077  -2.333  0.00  0.00    -0.298 N 
ATOM      5  C   UNL     1      -5.843   6.654  -1.951  0.00  0.00    +0.154 C 
ATOM      6  H   UNL     1      -6.107   8.820  -1.758  0.00  0.00    +0.183 HD
ENDROOT
BRANCH   5   7
ATOM      7  C   UNL     1      -4.856   6.419  -0.837  0.00  0.00    -0.016 A 
ATOM      8  C   UNL     1      -3.700   7.174  -0.769  0.00  0.00    +0.010 A 
ATOM      9  C   UNL     1      -2.791   6.962   0.251  0.00  0.00    +0.050 A 
ATOM     10  C   UNL     1      -3.037   5.991   1.208  0.00  0.00    +0.166 A 
ATOM     11  C   UNL     1      -4.202   5.230   1.139  0.00  0.00    +0.167 A 
ATOM     12  C   UNL     1      -5.111   5.452   0.118  0.00  0.00    +0.055 A 
ATOM     13  O   UNL     1      -4.211   4.351   2.184  0.00  0.00    -0.453 OA
ATOM     14  C   UNL     1      -2.852   4.302   2.657  0.00  0.00    +0.466 C 
ATOM     15  O   UNL     1      -2.317   5.589   2.296  0.00  0.00    -0.453 OA
ENDBRANCH   5   7
BRANCH   1  16
ATOM     16  C   UNL     1      -5.175   4.492  -3.458  0.00  0.00    -0.043 C 
BRANCH  16  17
ATOM     17  N   UNL     1      -3.822   4.120  -3.022  0.00  0.00    +0.385 N 
ATOM     18  C   UNL     1      -2.831   4.796  -3.869  0.00  0.00    -0.095 C 
ATOM     19  H   UNL     1      -3.690   4.399  -2.061  0.00  0.00    -0.081 HD
BRANCH  17  20
ATOM     20  C   UNL     1      -3.654   2.665  -3.137  0.00  0.00    -0.003 C 
BRANCH  20  24
ATOM     21  C   UNL     1      -0.013   1.086   0.008  0.00  0.00    +0.065 C 
ATOM     22  C   UNL     1      -0.742   1.585  -1.213  0.00  0.00    +0.032 A 
ATOM     23  N   UNL     1      -2.083   1.839  -1.315  0.00  0.00    -0.347 N 
ATOM     24  C   UNL     1      -2.313   2.268  -2.575  0.00  0.00    +0.091 A 
ATOM     25  H   UNL     1      -2.744   1.732  -0.614  0.00  0.00    +0.167 HD
ATOM     26  N   UNL     1      -1.181   2.282  -3.225  0.00  0.00    -0.243 NA
ATOM     27  C   UNL     1      -0.198   1.872  -2.411  0.00  0.00    +0.133 A 
ENDBRANCH  20  24
ENDBRANCH  17  20
ENDBRANCH  16  17
ENDBRANCH   1  16
TORSDOF 5
