REMARK  Name = ZINC13079119
REMARK  10 active torsions:
REMARK  status: ('A' for Active; 'I' for Inactive)
REMARK    1  A    between atoms: C_1  and  C_2
REMARK    2  A    between atoms: C_2  and  C_3
REMARK    3  A    between atoms: C_4  and  C_25
REMARK    4  A    between atoms: C_6  and  C_8
REMARK    5  A    between atoms: N_10  and  N_11
REMARK    6  A    between atoms: N_11  and  S_12
REMARK    7  A    between atoms: S_12  and  C_15
REMARK    8  A    between atoms: C_17  and  C_23
REMARK    9  A    between atoms: C_19  and  C_22
REMARK   10  A    between atoms: C_20  and  C_21
REMARK                            x       y       z     vdW  Elec       q    Type
REMARK                         _______ _______ _______ _____ _____    ______ ____
ROOT
ATOM      1  N   UNL     1      -5.024   1.643  -0.052  0.00  0.00    -0.108 NA
ATOM      2  H   UNL     1      -5.362   1.008  -0.703  0.00  0.00    +0.172 HD
ENDROOT
BRANCH   1   5
ATOM      3  C   UNL     1      -2.675   1.453  -0.390  0.00  0.00    +0.265 C 
ATOM      4  O   UNL     1      -2.785   0.241  -0.373  0.00  0.00    -0.268 OA
ATOM      5  N   UNL     1      -3.765   2.230  -0.234  0.00  0.00    -0.227 N 
ATOM      6  H   UNL     1      -3.678   3.196  -0.247  0.00  0.00    +0.171 HD
BRANCH   3  10
ATOM      7  C   UNL     1       0.785   3.624  -0.895  0.00  0.00    -0.007 A 
ATOM      8  C   UNL     1       0.961   2.277  -0.920  0.00  0.00    -0.040 A 
ATOM      9  C   UNL     1      -0.126   1.456  -0.757  0.00  0.00    +0.024 A 
ATOM     10  C   UNL     1      -1.358   2.067  -0.580  0.00  0.00    +0.076 A 
ATOM     11  S   UNL     1      -0.921   3.796  -0.642  0.00  0.00    -0.088 S 
ATOM     12  C   UNL     1       2.335   1.692  -1.123  0.00  0.00    +0.044 C 
BRANCH   7  14
ATOM     13  C   UNL     1       1.960   5.071  -2.531  0.00  0.00    +0.009 C 
ATOM     14  C   UNL     1       1.821   4.707  -1.052  0.00  0.00    +0.039 C 
ENDBRANCH   7  14
ENDBRANCH   3  10
ENDBRANCH   1   5
BRANCH   1  15
ATOM     15  S   UNL     1      -5.936   2.034   1.274  0.00  0.00    +0.074 S 
ATOM     16  O   UNL     1      -7.205   1.420   1.089  0.00  0.00    -0.152 OA
ATOM     17  O   UNL     1      -5.126   1.780   2.413  0.00  0.00    -0.152 OA
BRANCH  15  18
ATOM     18  C   UNL     1      -6.207   3.774   1.225  0.00  0.00    +0.111 A 
ATOM     19  C   UNL     1      -5.670   4.582   2.206  0.00  0.00    +0.044 A 
ATOM     20  C   UNL     1      -5.886   5.961   2.166  0.00  0.00    +0.065 A 
ATOM     21  C   UNL     1      -6.644   6.513   1.132  0.00  0.00    +0.018 A 
ATOM     22  C   UNL     1      -7.176   5.693   0.157  0.00  0.00    -0.045 A 
ATOM     23  C   UNL     1      -6.954   4.328   0.201  0.00  0.00    -0.021 A 
ATOM     24  C   UNL     1      -7.532   3.440  -0.871  0.00  0.00    +0.046 C 
ATOM     25  C   UNL     1      -7.995   6.287  -0.960  0.00  0.00    +0.044 C 
BRANCH  20  26
ATOM     26  C   UNL     1      -5.313   6.832   3.212  0.00  0.00    +0.387 C 
ATOM     27  O   UNL     1      -4.653   6.349   4.111  0.00  0.00    -0.241 OA
ATOM     28  O   UNL     1      -5.523   8.162   3.171  0.00  0.00    -0.241 OA
ENDBRANCH  20  26
ENDBRANCH  15  18
ENDBRANCH   1  15
TORSDOF 6
