REMARK  Name = ZINC49181866
REMARK  10 active torsions:
REMARK  status: ('A' for Active; 'I' for Inactive)
REMARK    1  A    between atoms: C_3  and  O_41
REMARK    2  A    between atoms: C_4  and  C_12
REMARK    3  A    between atoms: C_21  and  O_40
REMARK    4  A    between atoms: C_22  and  O_23
REMARK    5  A    between atoms: O_23  and  C_24
REMARK    6  A    between atoms: C_26  and  O_39
REMARK    7  A    between atoms: C_28  and  O_38
REMARK    8  A    between atoms: C_30  and  O_37
REMARK    9  A    between atoms: C_32  and  C_35
REMARK   10  A    between atoms: C_35  and  O_36
REMARK                            x       y       z     vdW  Elec       q    Type
REMARK                         _______ _______ _______ _____ _____    ______ ____
ROOT
ATOM      1  C   UNL     1       3.725  -0.671  -0.038  0.00  0.00    +0.077 A 
ATOM      2  C   UNL     1       4.333  -0.993  -1.256  0.00  0.00    +0.151 A 
ATOM      3  C   UNL     1       5.569  -1.661  -1.257  0.00  0.00    +0.022 A 
ATOM      4  C   UNL     1       6.195  -1.993  -2.539  0.00  0.00    +0.018 A 
ATOM      5  C   UNL     1       5.549  -1.637  -3.680  0.00  0.00    +0.092 A 
ATOM      6  C   UNL     1       4.311  -0.968  -3.605  0.00  0.00    +0.337 A 
ATOM      7  O   UNL     1       3.741  -0.655  -4.635  0.00  0.00    -0.245 OA
ATOM      8  O   UNL     1       3.743  -0.668  -2.427  0.00  0.00    -0.421 OA
ATOM      9  C   UNL     1       6.185  -2.002  -0.046  0.00  0.00    +0.060 A 
ATOM     10  C   UNL     1       5.578  -1.680   1.149  0.00  0.00    +0.160 A 
ATOM     11  C   UNL     1       4.353  -1.011   1.160  0.00  0.00    +0.177 A 
ENDROOT
BRANCH   1  15
ATOM     12  C   UNL     1      -0.017   1.396   0.010  0.00  0.00    +0.015 A 
ATOM     13  C   UNL     1       1.156   2.096   0.002  0.00  0.00    +0.047 A 
ATOM     14  C   UNL     1       2.377   1.431  -0.013  0.00  0.00    +0.128 A 
ATOM     15  C   UNL     1       2.421   0.035  -0.021  0.00  0.00    +0.074 A 
ATOM     16  C   UNL     1       1.228  -0.693  -0.014  0.00  0.00    +0.150 A 
ATOM     17  C   UNL     1       0.002  -0.004   0.002  0.00  0.00    +0.018 A 
ATOM     18  C   UNL     1      -1.244  -0.774   0.009  0.00  0.00    +0.018 A 
ATOM     19  C   UNL     1      -1.160  -2.130   0.001  0.00  0.00    +0.092 A 
ATOM     20  C   UNL     1       0.104  -2.755  -0.015  0.00  0.00    +0.337 A 
ATOM     21  O   UNL     1       0.166  -3.971  -0.022  0.00  0.00    -0.245 OA
ATOM     22  O   UNL     1       1.242  -2.042  -0.022  0.00  0.00    -0.421 OA
BRANCH  14  23
ATOM     23  O   UNL     1       3.533   2.142  -0.020  0.00  0.00    -0.506 OA
ATOM     24  H   UNL     1       3.876   2.344   0.861  0.00  0.00    +0.292 HD
ENDBRANCH  14  23
ENDBRANCH   1  15
BRANCH  10  25
ATOM     25  O   UNL     1       6.178  -2.012   2.324  0.00  0.00    -0.503 OA
ATOM     26  H   UNL     1       6.771  -1.331   2.669  0.00  0.00    +0.292 HD
ENDBRANCH  10  25
BRANCH  11  27
ATOM     27  O   UNL     1       3.766  -0.694   2.343  0.00  0.00    -0.456 OA
BRANCH  27  28
ATOM     28  C   UNL     1       2.881  -1.663   2.908  0.00  0.00    +0.339 C 
ATOM     29  C   UNL     1       2.132  -1.042   4.090  0.00  0.00    +0.214 C 
ATOM     30  C   UNL     1       1.230  -2.104   4.728  0.00  0.00    +0.180 C 
ATOM     31  C   UNL     1       2.088  -3.302   5.146  0.00  0.00    +0.177 C 
ATOM     32  C   UNL     1       2.837  -3.836   3.922  0.00  0.00    +0.179 C 
ATOM     33  O   UNL     1       3.633  -2.790   3.360  0.00  0.00    -0.331 OA
BRANCH  31  34
ATOM     34  O   UNL     1       3.027  -2.893   6.142  0.00  0.00    -0.386 OA
ATOM     35  H   UNL     1       2.620  -2.540   6.945  0.00  0.00    +0.210 HD
ENDBRANCH  31  34
BRANCH  30  36
ATOM     36  O   UNL     1       0.582  -1.554   5.876  0.00  0.00    -0.386 OA
ATOM     37  H   UNL     1       0.026  -0.786   5.684  0.00  0.00    +0.210 HD
ENDBRANCH  30  36
BRANCH  29  38
ATOM     38  O   UNL     1       1.335   0.051   3.631  0.00  0.00    -0.383 OA
ATOM     39  H   UNL     1       1.842   0.759   3.212  0.00  0.00    +0.210 HD
ENDBRANCH  29  38
BRANCH  32  40
ATOM     40  C   UNL     1       3.742  -4.995   4.344  0.00  0.00    +0.190 C 
BRANCH  40  41
ATOM     41  O   UNL     1       4.353  -5.568   3.186  0.00  0.00    -0.392 OA
ATOM     42  H   UNL     1       4.941  -6.311   3.378  0.00  0.00    +0.210 HD
ENDBRANCH  40  41
ENDBRANCH  32  40
ENDBRANCH  27  28
ENDBRANCH  11  27
TORSDOF 10
