REMARK  Name = ZINC58368476
REMARK  4 active torsions:
REMARK  status: ('A' for Active; 'I' for Inactive)
REMARK    1  A    between atoms: C_6  and  C_7
REMARK    2  A    between atoms: C_7  and  N_10
REMARK    3  A    between atoms: C_11  and  C_13
REMARK    4  A    between atoms: C_13  and  N_14
REMARK                            x       y       z     vdW  Elec       q    Type
REMARK                         _______ _______ _______ _____ _____    ______ ____
ROOT
ATOM      1  N   UNL     1      -2.483   0.078   0.030  0.00  0.00    -0.304 N 
ATOM      2  C   UNL     1      -2.435   1.290   0.617  0.00  0.00    +0.232 C 
ATOM      3  O   UNL     1      -1.383   1.713   1.049  0.00  0.00    -0.274 OA
ATOM      4  H   UNL     1      -3.307  -0.229  -0.381  0.00  0.00    +0.150 HD
ENDROOT
BRANCH   1   5
ATOM      5  C   UNL     1      -1.293  -0.776   0.011  0.00  0.00    +0.060 C 
ATOM      6  C   UNL     1      -0.981  -1.580   1.275  0.00  0.00    +0.033 C 
ATOM      7  C   UNL     1      -1.510  -2.290   0.027  0.00  0.00    +0.033 C 
BRANCH   5  13
ATOM      8  C   UNL     1       1.124  -0.163  -0.201  0.00  0.00    +0.007 A 
ATOM      9  C   UNL     1       2.194   0.321  -0.930  0.00  0.00    +0.015 A 
ATOM     10  C   UNL     1       2.013   0.721  -2.242  0.00  0.00    +0.018 A 
ATOM     11  C   UNL     1       0.761   0.637  -2.824  0.00  0.00    +0.015 A 
ATOM     12  C   UNL     1      -0.308   0.152  -2.094  0.00  0.00    +0.007 A 
ATOM     13  C   UNL     1      -0.127  -0.247  -0.783  0.00  0.00    -0.024 A 
ATOM     14 BR   UNL     1       3.477   1.385  -3.239  0.00  0.00    -0.050 Br
ENDBRANCH   5  13
ENDBRANCH   1   5
BRANCH   2  15
ATOM     15  C   UNL     1      -3.687   2.120   0.737  0.00  0.00    +0.212 C 
BRANCH  15  16
ATOM     16  N   UNL     1      -3.372   3.385   1.407  0.00  0.00    -0.233 N 
ATOM     17  C   UNL     1      -3.427   3.548   2.757  0.00  0.00    +0.226 C 
ATOM     18  O   UNL     1      -3.520   2.676   3.594  0.00  0.00    -0.275 OA
ATOM     19  C   UNL     1      -3.349   5.022   2.997  0.00  0.00    +0.087 C 
ATOM     20  C   UNL     1      -2.653   5.537   4.239  0.00  0.00    +0.013 C 
ATOM     21  C   UNL     1      -2.714   7.076   4.158  0.00  0.00    +0.001 C 
ATOM     22  C   UNL     1      -2.070   7.604   2.881  0.00  0.00    +0.001 C 
ATOM     23  C   UNL     1      -2.647   6.934   1.621  0.00  0.00    +0.013 C 
ATOM     24  C   UNL     1      -2.474   5.449   1.781  0.00  0.00    +0.087 C 
ATOM     25  C   UNL     1      -2.990   4.508   0.741  0.00  0.00    +0.226 C 
ATOM     26  O   UNL     1      -3.057   4.707  -0.453  0.00  0.00    -0.275 OA
ENDBRANCH  15  16
ENDBRANCH   2  15
TORSDOF 4
