REMARK  Name = ZINC58945314
REMARK  7 active torsions:
REMARK  status: ('A' for Active; 'I' for Inactive)
REMARK    1  A    between atoms: C_1  and  O_2
REMARK    2  A    between atoms: O_2  and  C_3
REMARK    3  A    between atoms: C_3  and  C_5
REMARK    4  A    between atoms: C_5  and  N_6
REMARK    5  A    between atoms: C_10  and  C_22
REMARK    6  A    between atoms: N_14  and  C_15
REMARK    7  A    between atoms: N_24  and  C_25
REMARK                            x       y       z     vdW  Elec       q    Type
REMARK                         _______ _______ _______ _____ _____    ______ ____
ROOT
ATOM      1  N   UNL     1       1.410  -2.515   2.291  0.00  0.00    -0.240 N 
ATOM      2  C   UNL     1       2.723  -2.677   2.210  0.00  0.00    +0.223 C 
ATOM      3  O   UNL     1       3.231  -2.334   1.164  0.00  0.00    -0.275 OA
ATOM      4  C   UNL     1       3.656  -3.225   3.233  0.00  0.00    +0.120 C 
ATOM      5  C   UNL     1       3.154  -3.005   4.661  0.00  0.00    +0.149 C 
ATOM      6  S   UNL     1       1.442  -3.623   4.755  0.00  0.00    -0.077 S 
ATOM      7  C   UNL     1       0.672  -2.708   3.445  0.00  0.00    +0.164 C 
ATOM      8  N   UNL     1      -0.547  -2.236   3.562  0.00  0.00    -0.226 NA
ENDROOT
BRANCH   8   9
ATOM      9  C   UNL     1      -1.252  -2.443   4.718  0.00  0.00    +0.067 A 
ATOM     10  C   UNL     1      -1.259  -3.704   5.319  0.00  0.00    +0.029 A 
ATOM     11  C   UNL     1      -1.972  -3.906   6.482  0.00  0.00    +0.022 A 
ATOM     12  C   UNL     1      -2.680  -2.863   7.054  0.00  0.00    +0.041 A 
ATOM     13  C   UNL     1      -2.677  -1.611   6.463  0.00  0.00    +0.022 A 
ATOM     14  C   UNL     1      -1.963  -1.394   5.303  0.00  0.00    +0.029 A 
ATOM     15 CL   UNL     1      -3.574  -3.125   8.519  0.00  0.00    -0.084 Cl
ENDBRANCH   8   9
BRANCH   5  16
ATOM     16  C   UNL     1       4.024  -3.763   5.630  0.00  0.00    +0.231 C 
ATOM     17  O   UNL     1       4.567  -4.791   5.282  0.00  0.00    -0.274 OA
ATOM     18  N   UNL     1       4.200  -3.300   6.883  0.00  0.00    -0.284 N 
ATOM     19  H   UNL     1       3.821  -2.445   7.142  0.00  0.00    +0.155 HD
BRANCH  18  20
ATOM     20  C   UNL     1       4.928  -4.051   7.812  0.00  0.00    +0.036 A 
ATOM     21  C   UNL     1       4.558  -4.051   9.150  0.00  0.00    +0.043 A 
ATOM     22  C   UNL     1       5.278  -4.795  10.066  0.00  0.00    +0.044 A 
ATOM     23  C   UNL     1       6.367  -5.540   9.650  0.00  0.00    +0.040 A 
ATOM     24  C   UNL     1       6.739  -5.542   8.317  0.00  0.00    +0.044 A 
ATOM     25  C   UNL     1       6.018  -4.804   7.396  0.00  0.00    +0.043 A 
ATOM     26 CL   UNL     1       8.107  -6.477   7.798  0.00  0.00    -0.083 Cl
ATOM     27 CL   UNL     1       4.816  -4.795  11.739  0.00  0.00    -0.083 Cl
ENDBRANCH  18  20
ENDBRANCH   5  16
BRANCH   1  28
ATOM     28  C   UNL     1       0.696  -2.100   1.081  0.00  0.00    +0.236 C 
BRANCH  28  29
ATOM     29  C   UNL     1       0.646  -0.595   1.019  0.00  0.00    +0.325 C 
ATOM     30  O   UNL     1       1.155   0.063   1.895  0.00  0.00    -0.249 OA
BRANCH  29  32
ATOM     31  C   UNL     1       0.026   1.443  -0.004  0.00  0.00    +0.280 C 
ATOM     32  O   UNL     1       0.036   0.014  -0.009  0.00  0.00    -0.467 OA
ENDBRANCH  29  32
ENDBRANCH  28  29
ENDBRANCH   1  28
TORSDOF 6
