REMARK  Name = ZINC35224388
REMARK  12 active torsions:
REMARK  status: ('A' for Active; 'I' for Inactive)
REMARK    1  A    between atoms: C_1  and  C_2
REMARK    2  A    between atoms: C_2  and  CA_4
REMARK    3  A    between atoms: C_2  and  O_27
REMARK    4  A    between atoms: CA_4  and  C_6
REMARK    5  A    between atoms: CA_4  and  N_9
REMARK    6  A    between atoms: C_10  and  O_12
REMARK    7  A    between atoms: O_12  and  C_13
REMARK    8  A    between atoms: C_13  and  C_14
REMARK    9  A    between atoms: O_27  and  P_28
REMARK   10  A    between atoms: P_28  and  O_31
REMARK   11  A    between atoms: O_31  and  C_32
REMARK   12  A    between atoms: C_32  and  C_33
REMARK                            x       y       z     vdW  Elec       q    Type
REMARK                         _______ _______ _______ _____ _____    ______ ____
ROOT
ATOM      1  N   UNL     1       2.116  -0.004   1.231  0.00  0.00    -0.265 N 
ATOM      2  C   UNL     1       2.795   0.128   2.388  0.00  0.00    +0.401 C 
ATOM      3  O   UNL     1       2.267  -0.174   3.440  0.00  0.00    -0.226 OA
ATOM      4  H   UNL     1       2.538   0.237   0.392  0.00  0.00    +0.153 HD
ENDROOT
BRANCH   1   5
ATOM      5  CA  UNL     1       0.742  -0.511   1.242  0.00  0.00    +0.218 C 
BRANCH   5   6
ATOM      6  C   UNL     1       0.762  -2.018   1.233  0.00  0.00    +0.378 C 
ATOM      7  O   UNL     1       1.680  -2.612   0.693  0.00  0.00    -0.244 OA
ATOM      8  OXT UNL     1      -0.139  -2.643   1.766  0.00  0.00    -0.244 OA
ENDBRANCH   5   6
BRANCH   5  10
ATOM      9  C   UNL     1      -0.019   1.526   0.010  0.00  0.00    +0.041 C 
ATOM     10  C   UNL     1       0.002  -0.004   0.002  0.00  0.00    +0.159 C 
BRANCH  10  11
ATOM     11  O   UNL     1      -1.339  -0.499   0.012  0.00  0.00    -0.280 OA
BRANCH  11  12
ATOM     12  P   UNL     1      -1.939  -1.429  -1.157  0.00  0.00    +0.505 P 
ATOM     13  O   UNL     1      -1.762  -0.723  -2.519  0.00  0.00    -0.225 OA
ATOM     14  O   UNL     1      -1.189  -2.780  -1.175  0.00  0.00    -0.116 OA
BRANCH  12  15
ATOM     15  O   UNL     1      -3.505  -1.688  -0.886  0.00  0.00    -0.280 OA
BRANCH  15  16
ATOM     16  C   UNL     1      -4.347  -2.392  -1.801  0.00  0.00    +0.207 C 
BRANCH  16  17
ATOM     17  C   UNL     1      -5.747  -2.458  -1.246  0.00  0.00    -0.021 A 
ATOM     18  C   UNL     1      -6.122  -3.515  -0.439  0.00  0.00    +0.006 A 
ATOM     19  C   UNL     1      -7.406  -3.575   0.070  0.00  0.00    +0.000 A 
ATOM     20  C   UNL     1      -8.315  -2.577  -0.229  0.00  0.00    +0.000 A 
ATOM     21  C   UNL     1      -7.939  -1.519  -1.036  0.00  0.00    +0.000 A 
ATOM     22  C   UNL     1      -6.654  -1.457  -1.541  0.00  0.00    +0.006 A 
ENDBRANCH  16  17
ENDBRANCH  15  16
ENDBRANCH  12  15
ENDBRANCH  11  12
ENDBRANCH  10  11
ENDBRANCH   5  10
ENDBRANCH   1   5
BRANCH   2  23
ATOM     23  O   UNL     1       4.058   0.594   2.379  0.00  0.00    -0.449 OA
BRANCH  23  24
ATOM     24  C   UNL     1       4.717   0.707   3.641  0.00  0.00    +0.246 C 
BRANCH  24  25
ATOM     25  C   UNL     1       6.132   1.250   3.431  0.00  0.00    +0.088 C 
ATOM     26  C   UNL     1       6.981   0.225   2.720  0.00  0.00    -0.029 A 
ATOM     27  C   UNL     1       6.867  -0.374   1.483  0.00  0.00    +0.005 A 
ATOM     28  C   UNL     1       7.808  -1.301   1.073  0.00  0.00    +0.000 A 
ATOM     29  C   UNL     1       8.866  -1.629   1.902  0.00  0.00    +0.001 A 
ATOM     30  C   UNL     1       8.989  -1.034   3.140  0.00  0.00    +0.009 A 
ATOM     31  C   UNL     1       8.042  -0.098   3.561  0.00  0.00    -0.014 A 
ATOM     32  C   UNL     1       7.931   0.682   4.819  0.00  0.00    -0.014 A 
ATOM     33  C   UNL     1       6.799   1.492   4.763  0.00  0.00    -0.029 A 
ATOM     34  C   UNL     1       6.480   2.314   5.822  0.00  0.00    +0.005 A 
ATOM     35  C   UNL     1       7.286   2.339   6.947  0.00  0.00    +0.000 A 
ATOM     36  C   UNL     1       8.412   1.538   7.012  0.00  0.00    +0.001 A 
ATOM     37  C   UNL     1       8.738   0.712   5.957  0.00  0.00    +0.009 A 
ENDBRANCH  24  25
ENDBRANCH  23  24
ENDBRANCH   2  23
TORSDOF 11
