REMARK  Name = ZINC09202382
REMARK  10 active torsions:
REMARK  status: ('A' for Active; 'I' for Inactive)
REMARK    1  A    between atoms: C_3  and  C_26
REMARK    2  A    between atoms: C_5  and  S_7
REMARK    3  A    between atoms: S_7  and  N_10
REMARK    4  A    between atoms: N_10  and  C_11
REMARK    5  A    between atoms: C_11  and  C_12
REMARK    6  A    between atoms: C_12  and  C_13
REMARK    7  A    between atoms: C_13  and  O_15
REMARK    8  A    between atoms: O_15  and  C_16
REMARK    9  A    between atoms: C_16  and  C_17
REMARK   10  A    between atoms: C_17  and  C_19
REMARK                            x       y       z     vdW  Elec       q    Type
REMARK                         _______ _______ _______ _____ _____    ______ ____
ROOT
ATOM      1  N   UNL     1       0.760   4.438   4.979  0.00  0.00    -0.189 NA
ATOM      2  H   UNL     1       1.705   4.649   4.926  0.00  0.00    +0.148 HD
ENDROOT
BRANCH   1   3
ATOM      3  S   UNL     1       0.266   2.858   5.020  0.00  0.00    +0.058 S 
ATOM      4  O   UNL     1      -0.653   2.747   6.098  0.00  0.00    -0.153 OA
ATOM      5  O   UNL     1       1.441   2.063   4.936  0.00  0.00    -0.153 OA
BRANCH   3  10
ATOM      6  C   UNL     1      -2.735   2.540   2.366  0.00  0.00    +0.002 A 
ATOM      7  C   UNL     1      -2.087   2.098   1.228  0.00  0.00    +0.012 A 
ATOM      8  C   UNL     1      -0.722   1.881   1.250  0.00  0.00    +0.057 A 
ATOM      9  C   UNL     1      -0.003   2.115   2.407  0.00  0.00    +0.041 A 
ATOM     10  C   UNL     1      -0.650   2.560   3.544  0.00  0.00    +0.106 A 
ATOM     11  C   UNL     1      -2.016   2.773   3.524  0.00  0.00    +0.028 A 
BRANCH   8  12
ATOM     12  C   UNL     1      -0.017   1.395   0.010  0.00  0.00    +0.417 C 
ATOM     13  F   UNL     1       0.002  -0.004   0.002  0.00  0.00    -0.166 F 
ATOM     14  F   UNL     1       1.296   1.879  -0.000  0.00  0.00    -0.166 F 
ATOM     15  F   UNL     1      -0.694   1.858  -1.124  0.00  0.00    -0.166 F 
ENDBRANCH   8  12
ENDBRANCH   3  10
ENDBRANCH   1   3
BRANCH   1  16
ATOM     16  C   UNL     1      -0.231   5.516   5.024  0.00  0.00    +0.117 C 
BRANCH  16  17
ATOM     17  C   UNL     1       0.469   6.838   5.348  0.00  0.00    +0.137 C 
BRANCH  17  18
ATOM     18  C   UNL     1      -0.550   7.947   5.394  0.00  0.00    +0.309 C 
ATOM     19  O   UNL     1      -1.716   7.706   5.188  0.00  0.00    -0.251 OA
BRANCH  18  20
ATOM     20  O   UNL     1      -0.162   9.204   5.663  0.00  0.00    -0.457 OA
BRANCH  20  21
ATOM     21  C   UNL     1      -1.198  10.222   5.691  0.00  0.00    +0.311 C 
BRANCH  21  22
ATOM     22  C   UNL     1      -0.579  11.559   6.006  0.00  0.00    +0.200 C 
ATOM     23  O   UNL     1       0.617  11.646   6.190  0.00  0.00    -0.288 OA
BRANCH  22  24
ATOM     24  C   UNL     1      -1.425  12.759   6.092  0.00  0.00    +0.021 A 
ATOM     25  C   UNL     1      -2.804  12.664   5.875  0.00  0.00    +0.013 A 
ATOM     26  C   UNL     1      -3.591  13.791   5.963  0.00  0.00    +0.021 A 
ATOM     27  C   UNL     1      -3.019  15.019   6.253  0.00  0.00    +0.041 A 
ATOM     28  C   UNL     1      -1.653  15.122   6.463  0.00  0.00    +0.021 A 
ATOM     29  C   UNL     1      -0.854  14.002   6.385  0.00  0.00    +0.013 A 
ATOM     30 CL   UNL     1      -4.018  16.436   6.354  0.00  0.00    -0.084 Cl
ENDBRANCH  22  24
ENDBRANCH  21  22
ENDBRANCH  20  21
ENDBRANCH  18  20
ENDBRANCH  17  18
ENDBRANCH  16  17
ENDBRANCH   1  16
TORSDOF 10
