REMARK  Name = ZINC12640605
REMARK  13 active torsions:
REMARK  status: ('A' for Active; 'I' for Inactive)
REMARK    1  A    between atoms: C_1  and  C_2
REMARK    2  A    between atoms: C_2  and  O_3
REMARK    3  A    between atoms: O_3  and  C_4
REMARK    4  A    between atoms: C_6  and  N_29
REMARK    5  A    between atoms: C_7  and  O_26
REMARK    6  A    between atoms: C_9  and  N_10
REMARK    7  A    between atoms: C_11  and  C_13
REMARK    8  A    between atoms: C_13  and  S_14
REMARK    9  A    between atoms: S_14  and  C_15
REMARK   10  A    between atoms: C_21  and  N_25
REMARK   11  A    between atoms: O_26  and  C_27
REMARK   12  A    between atoms: C_27  and  C_28
REMARK   13  A    between atoms: C_30  and  C_32
REMARK                            x       y       z     vdW  Elec       q    Type
REMARK                         _______ _______ _______ _____ _____    ______ ____
ROOT
ATOM      1  C   UNL     1      -1.850   8.787   0.253  0.00  0.00    +0.144 A 
ATOM      2  C   UNL     1      -1.664  10.156   0.354  0.00  0.00    +0.074 A 
ATOM      3  C   UNL     1      -0.381  10.685   0.339  0.00  0.00    +0.079 A 
ATOM      4  C   UNL     1       0.719   9.839   0.220  0.00  0.00    +0.144 A 
ATOM      5  C   UNL     1       0.534   8.470   0.124  0.00  0.00    +0.074 A 
ATOM      6  C   UNL     1      -0.749   7.942   0.134  0.00  0.00    +0.079 A 
ENDROOT
BRANCH   6   7
ATOM      7  N   UNL     1      -0.938   6.556   0.031  0.00  0.00    -0.282 N 
ATOM      8  C   UNL     1       0.001   5.790  -0.560  0.00  0.00    +0.228 C 
ATOM      9  O   UNL     1       0.960   6.309  -1.093  0.00  0.00    -0.275 OA
ATOM     10  H   UNL     1      -1.743   6.148   0.386  0.00  0.00    +0.155 HD
BRANCH   8  11
ATOM     11  C   UNL     1      -0.140   4.290  -0.560  0.00  0.00    +0.173 C 
BRANCH  11  12
ATOM     12  S   UNL     1       1.268   3.551  -1.424  0.00  0.00    -0.078 S 
BRANCH  12  13
ATOM     13  C   UNL     1       0.856   1.844  -1.277  0.00  0.00    +0.169 A 
ATOM     14  N   UNL     1       1.602   0.809  -1.770  0.00  0.00    -0.318 N 
ATOM     15  H   UNL     1       2.465   0.886  -2.270  0.00  0.00    +0.169 HD
ATOM     16  C   UNL     1       0.947  -0.359  -1.452  0.00  0.00    +0.164 A 
ATOM     17  C   UNL     1      -0.211   0.020  -0.754  0.00  0.00    +0.148 A 
ATOM     18  N   UNL     1      -0.212   1.375  -0.679  0.00  0.00    -0.217 NA
ATOM     19  C   UNL     1      -1.075  -0.991  -0.303  0.00  0.00    +0.147 A 
ATOM     20  N   UNL     1      -0.757  -2.256  -0.559  0.00  0.00    -0.219 NA
ATOM     21  C   UNL     1       0.344  -2.564  -1.219  0.00  0.00    +0.225 A 
ATOM     22  N   UNL     1       1.183  -1.650  -1.659  0.00  0.00    -0.216 NA
BRANCH  19  23
ATOM     23  N   UNL     1      -2.232  -0.677   0.391  0.00  0.00    -0.341 N 
ATOM     24  H   UNL     1      -1.996  -0.181   1.227  0.00  0.00    +0.144 HD
ATOM     25  H   UNL     1      -2.821  -1.384   0.697  0.00  0.00    +0.144 HD
ENDBRANCH  19  23
ENDBRANCH  12  13
ENDBRANCH  11  12
ENDBRANCH   8  11
ENDBRANCH   6   7
BRANCH   3  26
ATOM     26  N   UNL     1      -0.193  12.070   0.442  0.00  0.00    -0.278 N 
ATOM     27  C   UNL     1      -1.021  12.807   1.209  0.00  0.00    +0.255 C 
ATOM     28  O   UNL     1      -1.982  12.285   1.743  0.00  0.00    -0.269 OA
ATOM     29  H   UNL     1       0.532  12.498  -0.039  0.00  0.00    +0.155 HD
BRANCH  27  30
ATOM     30  C   UNL     1      -0.763  14.237   1.401  0.00  0.00    +0.074 A 
ATOM     31  C   UNL     1      -1.481  15.163   2.141  0.00  0.00    +0.021 A 
ATOM     32  C   UNL     1      -1.014  16.453   2.151  0.00  0.00    +0.008 A 
ATOM     33  C   UNL     1       0.109  16.758   1.449  0.00  0.00    +0.046 A 
ATOM     34  S   UNL     1       0.562  15.238   0.749  0.00  0.00    -0.092 S 
ENDBRANCH  27  30
ENDBRANCH   3  26
BRANCH   1  35
ATOM     35  O   UNL     1      -3.107   8.268   0.268  0.00  0.00    -0.490 OA
BRANCH  35  37
ATOM     36  C   UNL     1      -5.515   8.430   0.391  0.00  0.00    +0.048 C 
ATOM     37  C   UNL     1      -4.189   9.193   0.392  0.00  0.00    +0.226 C 
ENDBRANCH  35  37
ENDBRANCH   1  35
BRANCH   4  38
ATOM     38  O   UNL     1       1.977  10.358   0.205  0.00  0.00    -0.490 OA
BRANCH  38  39
ATOM     39  C   UNL     1       3.059   9.433   0.081  0.00  0.00    +0.226 C 
ATOM     40  C   UNL     1       4.385  10.195   0.082  0.00  0.00    +0.048 C 
ENDBRANCH  38  39
ENDBRANCH   4  38
TORSDOF 11
