REMARK  Name = ZINC35745095
REMARK  17 active torsions:
REMARK  status: ('A' for Active; 'I' for Inactive)
REMARK    1  A    between atoms: C_1  and  C_2
REMARK    2  A    between atoms: C_2  and  C_3
REMARK    3  A    between atoms: C_3  and  C_4
REMARK    4  A    between atoms: C_4  and  N_5
REMARK    5  A    between atoms: N_5  and  C_6
REMARK    6  A    between atoms: C_6  and  C_7
REMARK    7  A    between atoms: N_9  and  C_10
REMARK    8  A    between atoms: N_9  and  C_17
REMARK    9  A    between atoms: C_10  and  C_11
REMARK   10  A    between atoms: C_17  and  C_18
REMARK   11  A    between atoms: N_22  and  C_23
REMARK   12  A    between atoms: C_24  and  C_26
REMARK   13  A    between atoms: C_26  and  C_27
REMARK   14  A    between atoms: C_27  and  C_28
REMARK   15  A    between atoms: C_28  and  O_30
REMARK   16  A    between atoms: O_30  and  C_31
REMARK   17  A    between atoms: C_31  and  C_32
REMARK                            x       y       z     vdW  Elec       q    Type
REMARK                         _______ _______ _______ _____ _____    ______ ____
ROOT
ATOM      1  C   UNL     1      -2.215  -4.255  -2.227  0.00  0.00    +0.234 C 
ATOM      2  O   UNL     1      -1.234  -4.848  -1.831  0.00  0.00    -0.274 OA
ATOM      3  N   UNL     1      -3.170  -4.915  -2.912  0.00  0.00    -0.290 N 
ENDROOT
BRANCH   1   4
ATOM      4  C   UNL     1      -2.367  -2.781  -1.954  0.00  0.00    +0.203 C 
BRANCH   4   5
ATOM      5  N   UNL     1      -1.338  -2.352  -1.004  0.00  0.00    -0.293 N 
ATOM      6  C   UNL     1      -1.585  -2.393   0.321  0.00  0.00    +0.216 C 
ATOM      7  O   UNL     1      -2.659  -2.784   0.725  0.00  0.00    -0.276 OA
BRANCH   5   8
ATOM      8  C   UNL     1      -0.041  -1.879  -1.492  0.00  0.00    +0.108 C 
BRANCH   8   9
ATOM      9  C   UNL     1      -0.101  -0.366  -1.716  0.00  0.00    +0.019 C 
BRANCH   9  11
ATOM     10  C   UNL     1       1.194   1.640  -2.451  0.00  0.00    +0.004 C 
ATOM     11  C   UNL     1       1.254   0.128  -2.227  0.00  0.00    -0.002 C 
ENDBRANCH   9  11
ENDBRANCH   8   9
ENDBRANCH   5   8
BRANCH   6  12
ATOM     12  C   UNL     1      -0.527  -1.951   1.299  0.00  0.00    +0.107 C 
BRANCH  12  13
ATOM     13  C   UNL     1      -1.059  -2.096   2.726  0.00  0.00    +0.130 C 
BRANCH  13  14
ATOM     14  C   UNL     1      -0.001  -1.655   3.704  0.00  0.00    +0.308 C 
ATOM     15  O   UNL     1       1.069  -1.265   3.301  0.00  0.00    -0.251 OA
BRANCH  14  16
ATOM     16  O   UNL     1      -0.247  -1.696   5.023  0.00  0.00    -0.465 OA
BRANCH  16  17
ATOM     17  C   UNL     1       0.801  -1.262   5.892  0.00  0.00    +0.229 C 
ATOM     18  C   UNL     1       0.339  -1.380   7.346  0.00  0.00    +0.048 C 
ENDBRANCH  16  17
ENDBRANCH  14  16
ENDBRANCH  13  14
ENDBRANCH  12  13
ENDBRANCH   6  12
ENDBRANCH   4   5
ENDBRANCH   1   4
BRANCH   3  19
ATOM     19  C   UNL     1      -3.093  -6.371  -3.058  0.00  0.00    +0.143 C 
BRANCH  19  20
ATOM     20  C   UNL     1      -3.814  -7.030  -1.910  0.00  0.00    -0.030 A 
ATOM     21  C   UNL     1      -3.131  -7.337  -0.749  0.00  0.00    +0.005 A 
ATOM     22  C   UNL     1      -3.793  -7.941   0.304  0.00  0.00    +0.000 A 
ATOM     23  C   UNL     1      -5.138  -8.238   0.195  0.00  0.00    +0.000 A 
ATOM     24  C   UNL     1      -5.822  -7.931  -0.967  0.00  0.00    +0.000 A 
ATOM     25  C   UNL     1      -5.161  -7.323  -2.018  0.00  0.00    +0.005 A 
ENDBRANCH  19  20
ENDBRANCH   3  19
BRANCH   3  26
ATOM     26  C   UNL     1      -4.285  -4.178  -3.510  0.00  0.00    +0.161 C 
BRANCH  26  27
ATOM     27  C   UNL     1      -4.053  -4.032  -4.992  0.00  0.00    +0.036 A 
ATOM     28  C   UNL     1      -4.561  -4.829  -5.954  0.00  0.00    +0.024 A 
ATOM     29  C   UNL     1      -4.098  -4.342  -7.193  0.00  0.00    +0.019 A 
ATOM     30  C   UNL     1      -3.326  -3.266  -6.940  0.00  0.00    +0.085 A 
ATOM     31  N   UNL     1      -3.299  -3.067  -5.592  0.00  0.00    -0.352 N 
ATOM     32  C   UNL     1      -2.577  -1.996  -4.901  0.00  0.00    +0.148 C 
ENDBRANCH  26  27
ENDBRANCH   3  26
TORSDOF 14
