REMARK  Name = ZINC64074712
REMARK  4 active torsions:
REMARK  status: ('A' for Active; 'I' for Inactive)
REMARK    1  A    between atoms: C_1  and  C_2
REMARK    2  A    between atoms: C_7  and  C_8
REMARK    3  A    between atoms: C_23  and  C_25
REMARK    4  A    between atoms: C_25  and  N_26
REMARK                            x       y       z     vdW  Elec       q    Type
REMARK                         _______ _______ _______ _____ _____    ______ ____
ROOT
ATOM      1  C   UNL     1       0.014   0.233   2.388  0.00  0.00    +0.133 C 
ATOM      2  C   UNL     1       1.391   0.886   2.549  0.00  0.00    +0.131 C 
ATOM      3  C   UNL     1       1.433   1.470   3.956  0.00  0.00    -0.035 C 
ATOM      4  C   UNL     1       1.717   2.760   3.818  0.00  0.00    -0.001 A 
ATOM      5  C   UNL     1       1.955   3.821   4.809  0.00  0.00    +0.010 A 
ATOM      6  C   UNL     1       2.215   5.059   4.311  0.00  0.00    +0.001 A 
ATOM      7  C   UNL     1       2.260   5.343   2.942  0.00  0.00    +0.002 A 
ATOM      8  C   UNL     1       2.058   4.428   1.961  0.00  0.00    +0.026 A 
ATOM      9  C   UNL     1       1.781   3.088   2.361  0.00  0.00    +0.043 A 
ATOM     10  N   UNL     1       1.573   2.009   1.628  0.00  0.00    -0.375 N 
ATOM     11  C   UNL     1       1.113   0.652   5.183  0.00  0.00    +0.052 C 
ATOM     12  C   UNL     1      -0.234  -0.043   4.913  0.00  0.00    +0.113 C 
ATOM     13  N   UNL     1      -0.225  -0.618   3.564  0.00  0.00    -0.290 N 
ATOM     14  C   UNL     1      -0.435  -1.939   3.400  0.00  0.00    +0.236 C 
ATOM     15  O   UNL     1      -0.323  -2.439   2.300  0.00  0.00    -0.274 OA
ATOM     16  H   UNL     1       1.540   1.959   0.660  0.00  0.00    +0.160 HD
ENDROOT
BRANCH   1  23
ATOM     17  C   UNL     1      -2.510  -0.535   1.209  0.00  0.00    +0.044 C 
ATOM     18  C   UNL     1      -1.216  -0.975   0.573  0.00  0.00    -0.045 A 
ATOM     19  C   UNL     1      -1.237  -1.741  -0.578  0.00  0.00    +0.004 A 
ATOM     20  C   UNL     1      -0.050  -2.143  -1.161  0.00  0.00    +0.000 A 
ATOM     21  C   UNL     1       1.157  -1.780  -0.595  0.00  0.00    +0.000 A 
ATOM     22  C   UNL     1       1.178  -1.013   0.555  0.00  0.00    +0.006 A 
ATOM     23  C   UNL     1      -0.009  -0.607   1.137  0.00  0.00    -0.022 A 
ENDBRANCH   1  23
BRANCH  14  24
ATOM     24  C   UNL     1      -0.810  -2.795   4.582  0.00  0.00    +0.222 C 
BRANCH  24  25
ATOM     25  N   UNL     1      -0.982  -4.183   4.146  0.00  0.00    -0.290 N 
ATOM     26  C   UNL     1      -2.202  -4.611   3.728  0.00  0.00    +0.203 A 
ATOM     27  N   UNL     1      -2.434  -5.824   3.327  0.00  0.00    -0.237 NA
ATOM     28  C   UNL     1      -1.456  -6.763   3.297  0.00  0.00    +0.078 A 
ATOM     29  C   UNL     1      -1.705  -8.067   2.865  0.00  0.00    +0.028 A 
ATOM     30  C   UNL     1      -0.682  -8.988   2.851  0.00  0.00    +0.002 A 
ATOM     31  C   UNL     1       0.598  -8.636   3.260  0.00  0.00    +0.001 A 
ATOM     32  C   UNL     1       0.869  -7.355   3.690  0.00  0.00    +0.015 A 
ATOM     33  C   UNL     1      -0.153  -6.408   3.713  0.00  0.00    +0.065 A 
ATOM     34  C   UNL     1       0.077  -5.025   4.156  0.00  0.00    +0.262 A 
ATOM     35  O   UNL     1       1.177  -4.654   4.523  0.00  0.00    -0.267 OA
ENDBRANCH  24  25
ENDBRANCH  14  24
TORSDOF 3
