REMARK  Name = ZINC39479752
REMARK  5 active torsions:
REMARK  status: ('A' for Active; 'I' for Inactive)
REMARK    1  A    between atoms: C_1  and  N_2
REMARK    2  A    between atoms: C_6  and  O_16
REMARK    3  A    between atoms: C_8  and  C_9
REMARK    4  A    between atoms: C_9  and  C_10
REMARK    5  A    between atoms: C_18  and  O_27
REMARK                            x       y       z     vdW  Elec       q    Type
REMARK                         _______ _______ _______ _____ _____    ______ ____
ROOT
ATOM      1  C   UNL     1      -0.198   1.517  -0.061  0.00  0.00    +0.137 C 
ATOM      2  N   UNL     1      -0.129   0.055  -0.119  0.00  0.00    -0.286 N 
ATOM      3  C   UNL     1      -1.356  -0.569  -0.126  0.00  0.00    +0.042 A 
ATOM      4  C   UNL     1      -2.384   0.087   0.524  0.00  0.00    -0.013 A 
ATOM      5  C   UNL     1      -3.692  -0.037   0.237  0.00  0.00    +0.051 A 
ATOM      6  C   UNL     1      -4.036  -1.139  -0.564  0.00  0.00    +0.118 A 
ATOM      7  C   UNL     1      -3.038  -1.999  -1.003  0.00  0.00    +0.051 A 
ATOM      8  C   UNL     1      -1.695  -1.732  -0.798  0.00  0.00    -0.018 A 
ATOM      9  C   UNL     1      -1.897   0.523   1.944  0.00  0.00    +0.132 C 
ATOM     10  C   UNL     1      -0.487  -0.052   1.873  0.00  0.00    +0.192 C 
ATOM     11  N   UNL     1       0.624   0.607   1.794  0.00  0.00    -0.211 NA
ATOM     12  C   UNL     1       1.639  -0.063   1.180  0.00  0.00    +0.144 A 
ATOM     13  C   UNL     1       1.143  -0.447  -0.163  0.00  0.00    +0.156 A 
ATOM     14  N   UNL     1       1.917  -1.083  -0.955  0.00  0.00    -0.218 NA
ATOM     15  C   UNL     1       3.153  -1.403  -0.583  0.00  0.00    +0.225 A 
ATOM     16  N   UNL     1       3.637  -1.087   0.603  0.00  0.00    -0.222 NA
ATOM     17  C   UNL     1       2.901  -0.419   1.511  0.00  0.00    +0.160 A 
ATOM     18 CL   UNL     1       3.556  -0.016   3.068  0.00  0.00    -0.060 Cl
ENDROOT
BRANCH   6  19
ATOM     19  O   UNL     1      -5.334  -1.360  -0.906  0.00  0.00    -0.507 OA
ATOM     20  H   UNL     1      -5.602  -0.930  -1.730  0.00  0.00    +0.292 HD
ENDBRANCH   6  19
BRANCH  10  21
ATOM     21  O   UNL     1      -0.386  -1.397   1.897  0.00  0.00    -0.495 OA
ATOM     22  H   UNL     1       0.524  -1.723   1.934  0.00  0.00    +0.293 HD
ENDBRANCH  10  21
BRANCH   8  23
ATOM     23  C   UNL     1      -0.632  -2.679  -1.292  0.00  0.00    +0.072 C 
BRANCH  23  24
ATOM     24  C   UNL     1      -1.284  -3.909  -1.869  0.00  0.00    -0.043 A 
ATOM     25  C   UNL     1      -1.647  -4.953  -1.038  0.00  0.00    +0.004 A 
ATOM     26  C   UNL     1      -2.245  -6.081  -1.568  0.00  0.00    +0.000 A 
ATOM     27  C   UNL     1      -2.480  -6.165  -2.927  0.00  0.00    +0.000 A 
ATOM     28  C   UNL     1      -2.118  -5.121  -3.757  0.00  0.00    +0.000 A 
ATOM     29  C   UNL     1      -1.524  -3.991  -3.228  0.00  0.00    +0.004 A 
ENDBRANCH  23  24
ENDBRANCH   8  23
TORSDOF 4
