REMARK  Name = ZINC09382641
REMARK  9 active torsions:
REMARK  status: ('A' for Active; 'I' for Inactive)
REMARK    1  A    between atoms: C_1  and  C_2
REMARK    2  A    between atoms: C_5  and  S_8
REMARK    3  A    between atoms: S_8  and  N_11
REMARK    4  A    between atoms: N_11  and  C_12
REMARK    5  A    between atoms: C_12  and  C_14
REMARK    6  A    between atoms: C_12  and  C_15
REMARK    7  A    between atoms: C_15  and  C_17
REMARK    8  A    between atoms: C_15  and  N_60
REMARK    9  A    between atoms: N_24  and  C_27
REMARK                            x       y       z     vdW  Elec       q    Type
REMARK                         _______ _______ _______ _____ _____    ______ ____
ROOT
ATOM      1  C   UNL     1       2.282   0.966  -0.842  0.00  0.00    -0.012 C 
ENDROOT
BRANCH   1   7
ATOM      2  C   UNL     1       3.456   3.059  -1.165  0.00  0.00    -0.059 C 
ATOM      3  C   UNL     1       4.805   3.759  -0.982  0.00  0.00    +0.086 C 
ATOM      4  N   UNL     1       5.826   3.066  -1.780  0.00  0.00    -0.331 N 
ATOM      5  C   UNL     1       5.947   1.660  -1.368  0.00  0.00    +0.086 C 
ATOM      6  C   UNL     1       4.598   0.960  -1.550  0.00  0.00    -0.059 C 
ATOM      7  N   UNL     1       3.586   1.654  -0.726  0.00  0.00    +0.388 N 
ATOM      8  H   UNL     1       3.886   1.637   0.256  0.00  0.00    -0.081 HD
BRANCH   4   9
ATOM      9  C   UNL     1       7.059   3.721  -1.695  0.00  0.00    +0.065 A 
ATOM     10  C   UNL     1       8.141   3.266  -2.436  0.00  0.00    +0.026 A 
ATOM     11  C   UNL     1       9.356   3.917  -2.353  0.00  0.00    +0.002 A 
ATOM     12  C   UNL     1       9.499   5.016  -1.526  0.00  0.00    +0.003 A 
ATOM     13  C   UNL     1       8.426   5.470  -0.782  0.00  0.00    +0.040 A 
ATOM     14  C   UNL     1       7.205   4.825  -0.863  0.00  0.00    +0.144 A 
ATOM     15  F   UNL     1       6.157   5.268  -0.135  0.00  0.00    -0.204 F 
ENDBRANCH   4   9
ENDBRANCH   1   7
BRANCH   1  16
ATOM     16  C   UNL     1       2.425  -0.443  -0.325  0.00  0.00    -0.022 A 
ATOM     17  C   UNL     1       1.877  -1.587  -0.802  0.00  0.00    +0.009 A 
ATOM     18  C   UNL     1       2.152  -2.780  -0.161  0.00  0.00    +0.008 A 
ATOM     19  C   UNL     1       2.955  -2.770   0.931  0.00  0.00    +0.045 A 
ATOM     20  S   UNL     1       3.354  -1.036   1.079  0.00  0.00    -0.103 S 
ENDBRANCH   1  16
BRANCH   1  21
ATOM     21  C   UNL     1       1.248   1.716  -0.001  0.00  0.00    +0.065 C 
ATOM     22  C   UNL     1       1.764   1.861   1.432  0.00  0.00    +0.024 C 
BRANCH  21  23
ATOM     23  N   UNL     1      -0.011   0.966   0.007  0.00  0.00    -0.188 NA
ATOM     24  H   UNL     1       0.002  -0.004   0.002  0.00  0.00    +0.148 HD
BRANCH  23  25
ATOM     25  S   UNL     1      -1.456   1.774   0.019  0.00  0.00    +0.059 S 
ATOM     26  O   UNL     1      -2.475   0.784  -0.009  0.00  0.00    -0.153 OA
ATOM     27  O   UNL     1      -1.369   2.749   1.049  0.00  0.00    -0.153 OA
BRANCH  25  32
ATOM     28  C   UNL     1      -1.849   4.800  -5.187  0.00  0.00    +0.044 C 
ATOM     29  C   UNL     1      -1.752   4.044  -3.887  0.00  0.00    -0.050 A 
ATOM     30  C   UNL     1      -2.238   2.753  -3.799  0.00  0.00    +0.005 A 
ATOM     31  C   UNL     1      -2.148   2.060  -2.607  0.00  0.00    +0.029 A 
ATOM     32  C   UNL     1      -1.571   2.658  -1.502  0.00  0.00    +0.105 A 
ATOM     33  C   UNL     1      -1.089   3.950  -1.588  0.00  0.00    +0.029 A 
ATOM     34  C   UNL     1      -1.175   4.642  -2.782  0.00  0.00    +0.005 A 
ENDBRANCH  25  32
ENDBRANCH  23  25
ENDBRANCH  21  23
ENDBRANCH   1  21
TORSDOF 7
