REMARK  Name = ZINC01825424
REMARK  8 active torsions:
REMARK  status: ('A' for Active; 'I' for Inactive)
REMARK    1  A    between atoms: C_1  and  C_2
REMARK    2  A    between atoms: C_2  and  C_3
REMARK    3  A    between atoms: C_3  and  C_35
REMARK    4  A    between atoms: C_12  and  S_22
REMARK    5  A    between atoms: N_13  and  C_16
REMARK    6  A    between atoms: S_22  and  C_23
REMARK    7  A    between atoms: C_23  and  C_24
REMARK    8  A    between atoms: C_24  and  C_26
REMARK                            x       y       z     vdW  Elec       q    Type
REMARK                         _______ _______ _______ _____ _____    ______ ____
ROOT
ATOM      1  C   UNL     1      -0.370  -0.915  -1.462  0.00  0.00    +0.072 C 
ATOM      2  C   UNL     1       0.397  -2.228  -1.301  0.00  0.00    +0.090 C 
ATOM      3  C   UNL     1       0.762  -2.777  -2.659  0.00  0.00    +0.052 A 
ATOM      4  C   UNL     1       0.123  -2.328  -3.803  0.00  0.00    +0.000 A 
ATOM      5  C   UNL     1       0.473  -2.853  -5.037  0.00  0.00    +0.024 A 
ATOM      6  C   UNL     1       1.472  -3.824  -5.080  0.00  0.00    +0.084 A 
ATOM      7  C   UNL     1       2.089  -4.238  -3.877  0.00  0.00    +0.168 A 
ATOM      8  N   UNL     1       1.708  -3.698  -2.724  0.00  0.00    -0.232 NA
ATOM      9  N   UNL     1       3.055  -5.175  -3.930  0.00  0.00    -0.203 NA
ATOM     10  C   UNL     1       3.434  -5.711  -5.065  0.00  0.00    +0.179 A 
ATOM     11  N   UNL     1       2.891  -5.369  -6.271  0.00  0.00    -0.255 N 
ATOM     12  C   UNL     1       1.911  -4.437  -6.340  0.00  0.00    +0.268 A 
ATOM     13  O   UNL     1       1.414  -4.119  -7.404  0.00  0.00    -0.266 OA
ATOM     14  C   UNL     1      -0.949  -1.272  -3.749  0.00  0.00    +0.197 C 
ATOM     15  O   UNL     1      -1.423  -1.117  -2.411  0.00  0.00    -0.369 OA
ATOM     16  C   UNL     1       0.575   0.177  -1.967  0.00  0.00    +0.042 C 
ENDROOT
BRANCH  11  17
ATOM     17  C   UNL     1       3.349  -5.987  -7.443  0.00  0.00    +0.052 A 
ATOM     18  C   UNL     1       2.746  -7.152  -7.896  0.00  0.00    +0.026 A 
ATOM     19  C   UNL     1       3.200  -7.759  -9.051  0.00  0.00    +0.002 A 
ATOM     20  C   UNL     1       4.253  -7.206  -9.755  0.00  0.00    +0.000 A 
ATOM     21  C   UNL     1       4.856  -6.046  -9.306  0.00  0.00    +0.002 A 
ATOM     22  C   UNL     1       4.403  -5.431  -8.156  0.00  0.00    +0.026 A 
ENDBRANCH  11  17
BRANCH   1  24
ATOM     23  C   UNL     1      -1.751   0.803  -0.286  0.00  0.00    +0.007 C 
ATOM     24  C   UNL     1      -0.965  -0.498  -0.116  0.00  0.00    +0.032 C 
ENDBRANCH   1  24
BRANCH  10  25
ATOM     25  S   UNL     1       4.707  -6.930  -5.033  0.00  0.00    -0.079 S 
BRANCH  25  26
ATOM     26  C   UNL     1       5.132  -7.074  -3.275  0.00  0.00    +0.157 C 
BRANCH  26  27
ATOM     27  C   UNL     1       6.224  -8.098  -3.105  0.00  0.00    +0.173 C 
ATOM     28  O   UNL     1       6.671  -8.675  -4.074  0.00  0.00    -0.291 OA
BRANCH  27  29
ATOM     29  C   UNL     1       6.747  -8.400  -1.764  0.00  0.00    +0.018 A 
ATOM     30  C   UNL     1       6.230  -7.742  -0.643  0.00  0.00    +0.012 A 
ATOM     31  C   UNL     1       6.725  -8.030   0.610  0.00  0.00    +0.016 A 
ATOM     32  C   UNL     1       7.733  -8.968   0.762  0.00  0.00    +0.018 A 
ATOM     33  C   UNL     1       8.250  -9.624  -0.343  0.00  0.00    +0.016 A 
ATOM     34  C   UNL     1       7.761  -9.350  -1.602  0.00  0.00    +0.012 A 
ATOM     35 BR   UNL     1       8.406  -9.355   2.486  0.00  0.00    -0.050 Br
ENDBRANCH  27  29
ENDBRANCH  26  27
ENDBRANCH  25  26
ENDBRANCH  10  25
TORSDOF 6
