REMARK  Name = ZINC12484310
REMARK  16 active torsions:
REMARK  status: ('A' for Active; 'I' for Inactive)
REMARK    1  A    between atoms: C_1  and  C_2
REMARK    2  A    between atoms: C_3  and  C_33
REMARK    3  A    between atoms: C_5  and  N_10
REMARK    4  A    between atoms: C_6  and  C_7
REMARK    5  A    between atoms: C_11  and  C_13
REMARK    6  A    between atoms: C_13  and  C_14
REMARK    7  A    between atoms: C_14  and  C_15
REMARK    8  A    between atoms: C_15  and  C_16
REMARK    9  A    between atoms: C_16  and  C_17
REMARK   10  A    between atoms: C_17  and  C_18
REMARK   11  A    between atoms: C_18  and  C_19
REMARK   12  A    between atoms: C_19  and  C_20
REMARK   13  A    between atoms: N_22  and  C_23
REMARK   14  A    between atoms: C_24  and  C_30
REMARK   15  A    between atoms: C_25  and  C_29
REMARK   16  A    between atoms: C_26  and  C_28
REMARK                            x       y       z     vdW  Elec       q    Type
REMARK                         _______ _______ _______ _____ _____    ______ ____
ROOT
ATOM      1  C   UNL     1      -7.513   4.538   7.494  0.00  0.00    +0.000 C 
ENDROOT
BRANCH   1   2
ATOM      2  C   UNL     1      -7.390   4.081   6.039  0.00  0.00    +0.000 C 
BRANCH   2   3
ATOM      3  C   UNL     1      -5.928   3.754   5.729  0.00  0.00    +0.009 C 
BRANCH   3   4
ATOM      4  C   UNL     1      -5.806   3.296   4.274  0.00  0.00    +0.096 C 
BRANCH   4   6
ATOM      5  N   UNL     1      -4.017   2.548   2.738  0.00  0.00    -0.279 N 
ATOM      6  C   UNL     1      -4.366   2.974   3.968  0.00  0.00    +0.218 C 
ATOM      7  O   UNL     1      -3.521   3.098   4.829  0.00  0.00    -0.275 OA
ATOM      8  H   UNL     1      -4.693   2.449   2.050  0.00  0.00    +0.155 HD
BRANCH   5  13
ATOM      9  C   UNL     1      -0.013   1.086   0.008  0.00  0.00    +0.045 C 
ATOM     10  C   UNL     1      -0.718   1.572   1.248  0.00  0.00    -0.027 A 
ATOM     11  C   UNL     1      -0.047   1.809   2.389  0.00  0.00    -0.008 A 
ATOM     12  S   UNL     1      -1.321   2.350   3.509  0.00  0.00    -0.078 S 
ATOM     13  C   UNL     1      -2.692   2.252   2.457  0.00  0.00    +0.084 A 
ATOM     14  C   UNL     1      -2.142   1.808   1.260  0.00  0.00    +0.068 A 
ATOM     15  C   UNL     1       1.428   1.654   2.656  0.00  0.00    +0.052 C 
BRANCH  14  16
ATOM     16  C   UNL     1      -2.968   1.588   0.068  0.00  0.00    +0.244 C 
ATOM     17  O   UNL     1      -3.474   0.499  -0.128  0.00  0.00    -0.270 OA
ATOM     18  N   UNL     1      -3.167   2.591  -0.809  0.00  0.00    -0.325 N 
ATOM     19  H   UNL     1      -2.763   3.460  -0.653  0.00  0.00    +0.145 HD
ATOM     20  H   UNL     1      -3.713   2.446  -1.597  0.00  0.00    +0.145 HD
ENDBRANCH  14  16
ENDBRANCH   5  13
ENDBRANCH   4   6
ENDBRANCH   3   4
ENDBRANCH   2   3
ENDBRANCH   1   2
BRANCH   1  21
ATOM     21  C   UNL     1      -8.975   4.865   7.805  0.00  0.00    +0.000 C 
BRANCH  21  22
ATOM     22  C   UNL     1      -9.097   5.323   9.259  0.00  0.00    +0.009 C 
BRANCH  22  23
ATOM     23  C   UNL     1     -10.559   5.650   9.570  0.00  0.00    +0.096 C 
BRANCH  23  24
ATOM     24  C   UNL     1     -10.680   6.101  11.003  0.00  0.00    +0.218 C 
ATOM     25  O   UNL     1      -9.693   6.155  11.707  0.00  0.00    -0.275 OA
ATOM     26  N   UNL     1     -11.884   6.443  11.503  0.00  0.00    -0.279 N 
ATOM     27  H   UNL     1     -12.672   6.400  10.940  0.00  0.00    +0.155 HD
BRANCH  26  28
ATOM     28  C   UNL     1     -11.995   6.858  12.821  0.00  0.00    +0.084 A 
ATOM     29  C   UNL     1     -13.137   7.248  13.510  0.00  0.00    +0.068 A 
ATOM     30  C   UNL     1     -12.962   7.636  14.890  0.00  0.00    -0.027 A 
ATOM     31  C   UNL     1     -11.713   7.586  15.388  0.00  0.00    -0.008 A 
ATOM     32  S   UNL     1     -10.745   7.009  14.010  0.00  0.00    -0.078 S 
ATOM     33  C   UNL     1     -11.248   7.931  16.779  0.00  0.00    +0.052 C 
ATOM     34  C   UNL     1     -14.129   8.077  15.736  0.00  0.00    +0.045 C 
BRANCH  29  35
ATOM     35  C   UNL     1     -14.454   7.266  12.868  0.00  0.00    +0.244 C 
ATOM     36  O   UNL     1     -15.161   6.275  12.901  0.00  0.00    -0.270 OA
ATOM     37  N   UNL     1     -14.883   8.378  12.239  0.00  0.00    -0.325 N 
ATOM     38  H   UNL     1     -14.320   9.168  12.213  0.00  0.00    +0.145 HD
ATOM     39  H   UNL     1     -15.755   8.390  11.814  0.00  0.00    +0.145 HD
ENDBRANCH  29  35
ENDBRANCH  26  28
ENDBRANCH  23  24
ENDBRANCH  22  23
ENDBRANCH  21  22
ENDBRANCH   1  21
TORSDOF 12
