REMARK  Name = ZINC49491135
REMARK  2 active torsions:
REMARK  status: ('A' for Active; 'I' for Inactive)
REMARK    1  A    between atoms: C_5  and  C_6
REMARK    2  A    between atoms: N_8  and  C_9
REMARK                            x       y       z     vdW  Elec       q    Type
REMARK                         _______ _______ _______ _____ _____    ______ ____
ROOT
ATOM      1  C   UNL     1      -1.928  -3.207   0.094  0.00  0.00    +0.034 A 
ATOM      2  C   UNL     1      -1.605  -4.559   0.184  0.00  0.00    +0.028 A 
ATOM      3  C   UNL     1      -2.592  -5.510   0.278  0.00  0.00    -0.024 A 
ATOM      4  C   UNL     1      -3.910  -5.053   0.277  0.00  0.00    +0.043 A 
ATOM      5  C   UNL     1      -4.239  -3.708   0.189  0.00  0.00    -0.015 A 
ATOM      6  C   UNL     1      -3.251  -2.752   0.101  0.00  0.00    +0.029 A 
ATOM      7  C   UNL     1      -5.736  -3.663   0.226  0.00  0.00    +0.133 C 
ATOM      8  C   UNL     1      -6.155  -5.122   0.340  0.00  0.00    +0.224 C 
ATOM      9  O   UNL     1      -7.294  -5.537   0.400  0.00  0.00    -0.275 OA
ATOM     10  N   UNL     1      -5.040  -5.866   0.360  0.00  0.00    -0.271 N 
ATOM     11  C   UNL     1      -4.895  -7.330   0.453  0.00  0.00    +0.114 C 
ATOM     12  C   UNL     1      -3.579  -7.729  -0.224  0.00  0.00    +0.024 C 
ATOM     13  C   UNL     1      -2.380  -6.992   0.383  0.00  0.00    +0.038 C 
ENDROOT
BRANCH   1  16
ATOM     14  C   UNL     1      -1.014  -1.067   0.594  0.00  0.00    +0.255 C 
ATOM     15  O   UNL     1      -2.057  -0.764   1.144  0.00  0.00    -0.269 OA
ATOM     16  N   UNL     1      -0.892  -2.270  -0.002  0.00  0.00    -0.281 N 
ATOM     17  H   UNL     1      -0.086  -2.487  -0.496  0.00  0.00    +0.155 HD
BRANCH  14  22
ATOM     18  C   UNL     1       0.187   1.147   1.125  0.00  0.00    +0.022 A 
ATOM     19  C   UNL     1       1.383   1.799   0.949  0.00  0.00    +0.028 A 
ATOM     20  C   UNL     1       2.380   1.174   0.271  0.00  0.00    +0.079 A 
ATOM     21  S   UNL     1       1.724  -0.315  -0.147  0.00  0.00    -0.072 S 
ATOM     22  C   UNL     1       0.106  -0.125   0.579  0.00  0.00    +0.076 A 
ATOM     23 CL   UNL     1       3.969   1.777  -0.084  0.00  0.00    -0.076 Cl
ENDBRANCH  14  22
ENDBRANCH   1  16
TORSDOF 2
