REMARK  Name = ZINC12382137
REMARK  10 active torsions:
REMARK  status: ('A' for Active; 'I' for Inactive)
REMARK    1  A    between atoms: CD1_1  and  CG_2
REMARK    2  A    between atoms: CG_2  and  CD2_3
REMARK    3  A    between atoms: CG_2  and  CB_4
REMARK    4  A    between atoms: CB_4  and  CA_5
REMARK    5  A    between atoms: CA_5  and  C_7
REMARK    6  A    between atoms: CA_5  and  N_9
REMARK    7  A    between atoms: C_10  and  CA_12
REMARK    8  A    between atoms: CA_12  and  N_21
REMARK    9  A    between atoms: C_13  and  C_14
REMARK   10  A    between atoms: C_22  and  C_24
REMARK                            x       y       z     vdW  Elec       q    Type
REMARK                         _______ _______ _______ _____ _____    ______ ____
ROOT
ATOM      1  CA  UNL     1      -2.596  -0.283   1.319  0.00  0.00    +0.097 C 
ATOM      2  C   UNL     1      -3.652  -0.641   0.552  0.00  0.00    +0.036 C 
ENDROOT
BRANCH   2   3
ATOM      3  C   UNL     1      -3.549  -0.580  -0.914  0.00  0.00    -0.023 A 
ATOM      4  C   UNL     1      -2.865   0.475  -1.527  0.00  0.00    +0.009 A 
ATOM      5  C   UNL     1      -2.769   0.523  -2.902  0.00  0.00    +0.020 A 
ATOM      6  C   UNL     1      -3.357  -0.464  -3.675  0.00  0.00    +0.041 A 
ATOM      7  C   UNL     1      -4.041  -1.509  -3.075  0.00  0.00    +0.020 A 
ATOM      8  C   UNL     1      -4.141  -1.573  -1.702  0.00  0.00    +0.009 A 
ATOM      9 CL   UNL     1      -3.236  -0.392  -5.406  0.00  0.00    -0.084 Cl
ENDBRANCH   2   3
BRANCH   1  11
ATOM     10  N   UNL     1      -0.469  -0.962   0.334  0.00  0.00    -0.297 N 
ATOM     11  C   UNL     1      -1.305   0.032   0.692  0.00  0.00    +0.259 C 
ATOM     12  O   UNL     1      -0.991   1.191   0.496  0.00  0.00    -0.269 OA
ATOM     13  H   UNL     1      -0.746  -1.887   0.428  0.00  0.00    +0.150 HD
BRANCH  10  14
ATOM     14  CA  UNL     1       0.860  -0.646  -0.197  0.00  0.00    +0.187 C 
BRANCH  14  15
ATOM     15  C   UNL     1       1.825  -0.455   0.945  0.00  0.00    +0.376 C 
ATOM     16  O   UNL     1       1.442  -0.570   2.085  0.00  0.00    -0.244 OA
ATOM     17  OXT UNL     1       3.111  -0.161   0.695  0.00  0.00    -0.244 OA
ENDBRANCH  14  15
BRANCH  14  18
ATOM     18  CB  UNL     1       1.341  -1.797  -1.083  0.00  0.00    +0.037 C 
BRANCH  18  20
ATOM     19  CD1 UNL     1       1.032  -2.929  -3.289  0.00  0.00    +0.007 C 
ATOM     20  CG  UNL     1       0.458  -1.884  -2.330  0.00  0.00    -0.015 C 
ATOM     21  CD2 UNL     1      -0.960  -2.289  -1.923  0.00  0.00    +0.007 C 
ENDBRANCH  18  20
ENDBRANCH  14  18
ENDBRANCH  10  14
ENDBRANCH   1  11
BRANCH   1  22
ATOM     22  N   UNL     1      -2.734  -0.214   2.709  0.00  0.00    -0.277 N 
ATOM     23  C   UNL     1      -1.720   0.252   3.464  0.00  0.00    +0.248 C 
ATOM     24  O   UNL     1      -0.722   0.701   2.933  0.00  0.00    -0.270 OA
ATOM     25  H   UNL     1      -3.560  -0.500   3.129  0.00  0.00    +0.155 HD
BRANCH  23  26
ATOM     26  C   UNL     1      -1.819   0.218   4.938  0.00  0.00    +0.037 A 
ATOM     27  C   UNL     1      -2.966  -0.291   5.551  0.00  0.00    +0.014 A 
ATOM     28  C   UNL     1      -3.051  -0.326   6.927  0.00  0.00    +0.016 A 
ATOM     29  C   UNL     1      -2.007   0.153   7.700  0.00  0.00    +0.018 A 
ATOM     30  C   UNL     1      -0.869   0.665   7.098  0.00  0.00    +0.016 A 
ATOM     31  C   UNL     1      -0.770   0.699   5.723  0.00  0.00    +0.014 A 
ATOM     32 BR   UNL     1      -2.134   0.109   9.586  0.00  0.00    -0.050 Br
ENDBRANCH  23  26
ENDBRANCH   1  22
TORSDOF 8
