REMARK  Name = ZINC21274663
REMARK  10 active torsions:
REMARK  status: ('A' for Active; 'I' for Inactive)
REMARK    1  A    between atoms: C_1  and  C_2
REMARK    2  A    between atoms: C_4  and  S_27
REMARK    3  A    between atoms: C_6  and  N_9
REMARK    4  A    between atoms: C_7  and  C_8
REMARK    5  A    between atoms: C_10  and  C_12
REMARK    6  A    between atoms: C_12  and  S_13
REMARK    7  A    between atoms: S_13  and  C_14
REMARK    8  A    between atoms: C_17  and  C_20
REMARK    9  A    between atoms: N_18  and  C_19
REMARK   10  A    between atoms: S_27  and  N_30
REMARK                            x       y       z     vdW  Elec       q    Type
REMARK                         _______ _______ _______ _____ _____    ______ ____
ROOT
ATOM      1  N   UNL     1       0.013  -2.811   2.369  0.00  0.00    -0.285 N 
ATOM      2  C   UNL     1      -0.064  -4.157   2.368  0.00  0.00    +0.227 C 
ATOM      3  O   UNL     1      -0.064  -4.763   1.317  0.00  0.00    -0.275 OA
ATOM      4  H   UNL     1       0.095  -2.330   3.207  0.00  0.00    +0.155 HD
ENDROOT
BRANCH   1  10
ATOM      5  C   UNL     1       1.132   1.216  -0.220  0.00  0.00    +0.044 C 
ATOM      6  C   UNL     1       0.510  -0.153  -0.123  0.00  0.00    -0.044 A 
ATOM      7  C   UNL     1      -0.098  -0.715  -1.230  0.00  0.00    +0.032 A 
ATOM      8  C   UNL     1      -0.669  -1.971  -1.145  0.00  0.00    +0.107 A 
ATOM      9  C   UNL     1      -0.634  -2.669   0.046  0.00  0.00    +0.052 A 
ATOM     10  C   UNL     1      -0.024  -2.107   1.160  0.00  0.00    +0.038 A 
ATOM     11  C   UNL     1       0.554  -0.847   1.070  0.00  0.00    -0.026 A 
ATOM     12  C   UNL     1       1.222  -0.236   2.275  0.00  0.00    +0.046 C 
BRANCH   8  13
ATOM     13  S   UNL     1      -1.444  -2.683  -2.559  0.00  0.00    +0.056 S 
ATOM     14  O   UNL     1      -2.380  -3.635  -2.073  0.00  0.00    -0.153 OA
ATOM     15  O   UNL     1      -1.824  -1.603  -3.401  0.00  0.00    -0.153 OA
BRANCH  13  16
ATOM     16  N   UNL     1      -0.283  -3.535  -3.377  0.00  0.00    -0.204 NA
ATOM     17  H   UNL     1      -0.530  -4.319  -3.892  0.00  0.00    +0.144 HD
ATOM     18  H   UNL     1       0.643  -3.250  -3.340  0.00  0.00    +0.144 HD
ENDBRANCH  13  16
ENDBRANCH   8  13
ENDBRANCH   1  10
BRANCH   2  19
ATOM     19  C   UNL     1      -0.152  -4.907   3.671  0.00  0.00    +0.173 C 
BRANCH  19  20
ATOM     20  S   UNL     1      -0.244  -6.688   3.339  0.00  0.00    -0.077 S 
BRANCH  20  21
ATOM     21  C   UNL     1      -0.341  -7.416   4.940  0.00  0.00    +0.192 A 
ATOM     22  N   UNL     1      -0.348  -6.777   6.088  0.00  0.00    -0.122 NA
ATOM     23  N   UNL     1      -0.429  -7.614   7.060  0.00  0.00    -0.128 NA
ATOM     24  C   UNL     1      -0.477  -8.840   6.592  0.00  0.00    +0.165 A 
ATOM     25  N   UNL     1      -0.427  -8.751   5.220  0.00  0.00    -0.305 N 
ATOM     26  C   UNL     1      -0.458  -9.856   4.259  0.00  0.00    +0.153 C 
BRANCH  24  27
ATOM     27  C   UNL     1      -0.573 -10.082   7.388  0.00  0.00    +0.019 A 
ATOM     28  C   UNL     1      -0.199 -11.304   6.828  0.00  0.00    +0.013 A 
ATOM     29  C   UNL     1      -0.290 -12.459   7.576  0.00  0.00    +0.021 A 
ATOM     30  C   UNL     1      -0.751 -12.408   8.881  0.00  0.00    +0.041 A 
ATOM     31  C   UNL     1      -1.124 -11.198   9.442  0.00  0.00    +0.021 A 
ATOM     32  C   UNL     1      -1.032 -10.035   8.706  0.00  0.00    +0.013 A 
ATOM     33 CL   UNL     1      -0.864 -13.866   9.816  0.00  0.00    -0.084 Cl
ENDBRANCH  24  27
ENDBRANCH  20  21
ENDBRANCH  19  20
ENDBRANCH   2  19
TORSDOF 7
