REMARK  Name = ZINC67562689
REMARK  7 active torsions:
REMARK  status: ('A' for Active; 'I' for Inactive)
REMARK    1  A    between atoms: C_1  and  C_2
REMARK    2  A    between atoms: C_2  and  C_3
REMARK    3  A    between atoms: C_3  and  N_4
REMARK    4  A    between atoms: C_7  and  C_9
REMARK    5  A    between atoms: C_13  and  N_17
REMARK    6  A    between atoms: N_20  and  C_23
REMARK    7  A    between atoms: C_23  and  C_24
REMARK                            x       y       z     vdW  Elec       q    Type
REMARK                         _______ _______ _______ _____ _____    ______ ____
ROOT
ATOM      1  N   UNL     1      -2.713  -5.900   3.052  0.00  0.00    +0.383 N 
ATOM      2  C   UNL     1      -4.031  -5.431   3.501  0.00  0.00    -0.063 C 
ATOM      3  C   UNL     1      -4.759  -6.566   4.223  0.00  0.00    +0.066 C 
ATOM      4  N   UNL     1      -4.911  -7.707   3.308  0.00  0.00    -0.302 NA
ATOM      5  C   UNL     1      -3.601  -8.172   2.831  0.00  0.00    +0.066 C 
ATOM      6  C   UNL     1      -2.883  -7.023   2.120  0.00  0.00    -0.063 C 
ATOM      7  H   UNL     1      -2.175  -6.204   3.850  0.00  0.00    -0.081 HD
ENDROOT
BRANCH   1  14
ATOM      8  N   UNL     1       0.830  -2.106   1.094  0.00  0.00    -0.267 N 
ATOM      9  C   UNL     1      -0.100  -2.868   1.706  0.00  0.00    +0.043 A 
ATOM     10  C   UNL     1       0.127  -4.151   1.334  0.00  0.00    +0.006 A 
ATOM     11  C   UNL     1       1.238  -4.114   0.473  0.00  0.00    +0.177 A 
ATOM     12  N   UNL     1       1.601  -2.846   0.374  0.00  0.00    -0.164 NA
ATOM     13  C   UNL     1      -0.690  -5.329   1.789  0.00  0.00    +0.024 C 
ATOM     14  C   UNL     1      -2.008  -4.804   2.374  0.00  0.00    -0.064 C 
ATOM     15  C   UNL     1      -1.712  -3.689   3.381  0.00  0.00    -0.009 C 
ATOM     16  C   UNL     1      -1.206  -2.446   2.638  0.00  0.00    +0.054 C 
BRANCH  11  17
ATOM     17  C   UNL     1       1.872  -5.265  -0.194  0.00  0.00    +0.406 C 
ATOM     18  O   UNL     1       1.431  -6.393  -0.019  0.00  0.00    -0.239 OA
ATOM     19  O   UNL     1       2.840  -5.093  -0.922  0.00  0.00    -0.239 OA
ENDBRANCH  11  17
BRANCH   8  20
ATOM     20  C   UNL     1       0.942  -0.651   1.224  0.00  0.00    +0.143 C 
BRANCH  20  22
ATOM     21  C   UNL     1       0.211   1.544   0.280  0.00  0.00    +0.005 C 
ATOM     22  C   UNL     1       0.094   0.025   0.144  0.00  0.00    +0.020 C 
ENDBRANCH  20  22
ENDBRANCH   8  20
ENDBRANCH   1  14
BRANCH   4  23
ATOM     23  C   UNL     1      -5.657  -8.799   3.948  0.00  0.00    +0.119 C 
BRANCH  23  24
ATOM     24  C   UNL     1      -6.006  -9.840   2.917  0.00  0.00    -0.028 A 
ATOM     25  C   UNL     1      -7.192  -9.745   2.213  0.00  0.00    +0.043 A 
ATOM     26  C   UNL     1      -7.515 -10.702   1.266  0.00  0.00    +0.126 A 
ATOM     27  C   UNL     1      -6.648 -11.753   1.022  0.00  0.00    +0.076 A 
ATOM     28  C   UNL     1      -5.461 -11.848   1.727  0.00  0.00    +0.126 A 
ATOM     29  C   UNL     1      -5.138 -10.887   2.671  0.00  0.00    +0.043 A 
ATOM     30  F   UNL     1      -4.614 -12.874   1.490  0.00  0.00    -0.205 F 
ATOM     31  F   UNL     1      -8.675 -10.609   0.579  0.00  0.00    -0.205 F 
ENDBRANCH  23  24
ENDBRANCH   4  23
TORSDOF 6
