REMARK  Name = ZINC64015171
REMARK  3 active torsions:
REMARK  status: ('A' for Active; 'I' for Inactive)
REMARK    1  A    between atoms: C_5  and  C_7
REMARK    2  A    between atoms: C_22  and  C_24
REMARK    3  A    between atoms: C_24  and  N_25
REMARK                            x       y       z     vdW  Elec       q    Type
REMARK                         _______ _______ _______ _____ _____    ______ ____
ROOT
ATOM      1  C   UNL     1       1.228  -2.186  -0.022  0.00  0.00    +0.135 C 
ATOM      2  C   UNL     1       1.327  -2.695  -1.464  0.00  0.00    +0.131 C 
ATOM      3  C   UNL     1      -0.015  -2.401  -2.122  0.00  0.00    -0.035 C 
ATOM      4  C   UNL     1       0.248  -1.673  -3.201  0.00  0.00    -0.001 A 
ATOM      5  C   UNL     1      -0.623  -1.148  -4.265  0.00  0.00    +0.010 A 
ATOM      6  C   UNL     1      -0.012  -0.416  -5.233  0.00  0.00    +0.001 A 
ATOM      7  C   UNL     1       1.362  -0.156  -5.250  0.00  0.00    +0.002 A 
ATOM      8  C   UNL     1       2.238  -0.602  -4.315  0.00  0.00    +0.026 A 
ATOM      9  C   UNL     1       1.715  -1.388  -3.247  0.00  0.00    +0.043 A 
ATOM     10  N   UNL     1       2.336  -1.962  -2.232  0.00  0.00    -0.375 N 
ATOM     11  C   UNL     1      -1.327  -2.841  -1.520  0.00  0.00    +0.052 C 
ATOM     12  C   UNL     1      -1.317  -2.376  -0.052  0.00  0.00    +0.113 C 
ATOM     13  N   UNL     1      -0.022  -2.704   0.555  0.00  0.00    -0.290 N 
ATOM     14  C   UNL     1       0.023  -3.489   1.651  0.00  0.00    +0.234 C 
ATOM     15  O   UNL     1       1.091  -3.764   2.155  0.00  0.00    -0.274 OA
ATOM     16  H   UNL     1       3.281  -1.910  -2.022  0.00  0.00    +0.160 HD
ENDROOT
BRANCH   1  21
ATOM     17  C   UNL     1       0.160   1.384  -0.628  0.00  0.00    +0.000 A 
ATOM     18  C   UNL     1       1.171   2.087   0.002  0.00  0.00    +0.003 A 
ATOM     19  C   UNL     1       2.201   1.408   0.625  0.00  0.00    +0.039 A 
ATOM     20  C   UNL     1       2.221   0.023   0.618  0.00  0.00    +0.128 A 
ATOM     21  C   UNL     1       1.208  -0.679  -0.013  0.00  0.00    +0.010 A 
ATOM     22  C   UNL     1       0.179   0.002  -0.635  0.00  0.00    +0.008 A 
ATOM     23  F   UNL     1       3.227  -0.642   1.226  0.00  0.00    -0.205 F 
ENDBRANCH   1  21
BRANCH  14  24
ATOM     24  C   UNL     1      -1.253  -4.023   2.248  0.00  0.00    +0.213 C 
BRANCH  24  25
ATOM     25  N   UNL     1      -0.937  -4.842   3.421  0.00  0.00    -0.223 N 
ATOM     26  C   UNL     1      -0.720  -6.134   3.244  0.00  0.00    +0.233 C 
ATOM     27  O   UNL     1      -0.774  -6.656   2.151  0.00  0.00    -0.274 OA
ATOM     28  C   UNL     1      -0.398  -6.921   4.506  0.00  0.00    +0.175 C 
ATOM     29  S   UNL     1      -0.478  -5.565   5.750  0.00  0.00    -0.058 S 
ATOM     30  C   UNL     1      -0.878  -4.238   4.623  0.00  0.00    +0.282 C 
ATOM     31  O   UNL     1      -1.057  -3.063   4.881  0.00  0.00    -0.262 OA
ENDBRANCH  24  25
ENDBRANCH  14  24
TORSDOF 3
