REMARK  Name = ZINC14834026
REMARK  12 active torsions:
REMARK  status: ('A' for Active; 'I' for Inactive)
REMARK    1  A    between atoms: C_1  and  C_2
REMARK    2  A    between atoms: C_2  and  C_3
REMARK    3  A    between atoms: C_3  and  C_5
REMARK    4  A    between atoms: C_3  and  C_6
REMARK    5  A    between atoms: C_9  and  O_12
REMARK    6  A    between atoms: O_12  and  C_13
REMARK    7  A    between atoms: C_13  and  C_14
REMARK    8  A    between atoms: N_16  and  N_17
REMARK    9  A    between atoms: N_17  and  C_18
REMARK   10  A    between atoms: C_18  and  N_20
REMARK   11  A    between atoms: C_21  and  C_23
REMARK   12  A    between atoms: C_24  and  C_25
REMARK                            x       y       z     vdW  Elec       q    Type
REMARK                         _______ _______ _______ _____ _____    ______ ____
ROOT
ATOM      1  N   UNL     1      -6.361   5.395   9.450  0.00  0.00    -0.245 N 
ATOM      2  H   UNL     1      -5.745   5.947   9.957  0.00  0.00    +0.172 HD
ENDROOT
BRANCH   1   5
ATOM      3  C   UNL     1      -4.735   5.106   7.736  0.00  0.00    +0.267 C 
ATOM      4  O   UNL     1      -3.965   5.797   8.369  0.00  0.00    -0.271 OA
ATOM      5  N   UNL     1      -5.969   4.857   8.218  0.00  0.00    -0.232 N 
ATOM      6  H   UNL     1      -6.585   4.304   7.712  0.00  0.00    +0.173 HD
BRANCH   3   7
ATOM      7  C   UNL     1      -4.313   4.527   6.410  0.00  0.00    +0.326 C 
BRANCH   7   8
ATOM      8  O   UNL     1      -2.974   4.931   6.119  0.00  0.00    -0.483 OA
BRANCH   8  12
ATOM      9  C   UNL     1      -1.345   3.596   2.571  0.00  0.00    -0.044 A 
ATOM     10  C   UNL     1      -2.638   3.247   2.911  0.00  0.00    +0.007 A 
ATOM     11  C   UNL     1      -3.184   3.687   4.101  0.00  0.00    +0.046 A 
ATOM     12  C   UNL     1      -2.437   4.491   4.950  0.00  0.00    +0.121 A 
ATOM     13  C   UNL     1      -1.141   4.845   4.604  0.00  0.00    +0.046 A 
ATOM     14  C   UNL     1      -0.598   4.397   3.416  0.00  0.00    +0.007 A 
BRANCH   9  15
ATOM     15  C   UNL     1      -0.750   3.109   1.275  0.00  0.00    +0.016 C 
ATOM     16  C   UNL     1      -1.595   3.614   0.104  0.00  0.00    +0.012 C 
BRANCH  15  18
ATOM     17  C   UNL     1      -0.013   1.086   0.008  0.00  0.00    +0.004 C 
ATOM     18  C   UNL     1      -0.729   1.579   1.267  0.00  0.00    +0.004 C 
ENDBRANCH  15  18
ENDBRANCH   9  15
ENDBRANCH   8  12
ENDBRANCH   7   8
ENDBRANCH   3   7
ENDBRANCH   1   5
BRANCH   1  19
ATOM     19  C   UNL     1      -7.595   5.146   9.933  0.00  0.00    +0.153 C 
ATOM     20  S   UNL     1      -8.074   5.803  11.439  0.00  0.00    -0.017 S 
BRANCH  19  21
ATOM     21  N   UNL     1      -8.451   4.378   9.229  0.00  0.00    -0.263 N 
ATOM     22  C   UNL     1      -9.684   4.129   9.711  0.00  0.00    +0.242 C 
ATOM     23  O   UNL     1     -10.025   4.596  10.782  0.00  0.00    -0.270 OA
ATOM     24  H   UNL     1      -8.179   4.005   8.376  0.00  0.00    +0.157 HD
BRANCH  22  25
ATOM     25  C   UNL     1     -10.613   3.296   8.948  0.00  0.00    +0.068 C 
ATOM     26  C   UNL     1     -11.848   3.046   9.431  0.00  0.00    +0.013 C 
BRANCH  26  27
ATOM     27  C   UNL     1     -12.783   2.209   8.663  0.00  0.00    -0.025 A 
ATOM     28  C   UNL     1     -12.396   1.674   7.429  0.00  0.00    +0.009 A 
ATOM     29  C   UNL     1     -13.276   0.887   6.717  0.00  0.00    +0.020 A 
ATOM     30  C   UNL     1     -14.543   0.632   7.216  0.00  0.00    +0.041 A 
ATOM     31  C   UNL     1     -14.934   1.162   8.435  0.00  0.00    +0.020 A 
ATOM     32  C   UNL     1     -14.064   1.948   9.160  0.00  0.00    +0.009 A 
ATOM     33 CL   UNL     1     -15.646  -0.354   6.309  0.00  0.00    -0.084 Cl
ENDBRANCH  26  27
ENDBRANCH  22  25
ENDBRANCH  19  21
ENDBRANCH   1  19
TORSDOF 10
