REMARK  Name = ZINC32093969
REMARK  2 active torsions:
REMARK  status: ('A' for Active; 'I' for Inactive)
REMARK    1  A    between atoms: C_3  and  N_11
REMARK    2  A    between atoms: C_6  and  C_7
REMARK                            x       y       z     vdW  Elec       q    Type
REMARK                         _______ _______ _______ _____ _____    ______ ____
ROOT
ATOM      1  N   UNL     1       3.586   2.125  -0.021  0.00  0.00    -0.218 N 
ATOM      2  C   UNL     1       4.733   1.759   0.586  0.00  0.00    +0.133 A 
ATOM      3  C   UNL     1       5.668   2.727   0.321  0.00  0.00    +0.032 A 
ATOM      4  C   UNL     1       5.063   3.704  -0.455  0.00  0.00    +0.141 A 
ATOM      5  N   UNL     1       3.818   3.350  -0.668  0.00  0.00    -0.173 NA
ATOM      6  C   UNL     1       7.079   2.631   0.830  0.00  0.00    +0.111 C 
ATOM      7  C   UNL     1       7.096   1.818   2.123  0.00  0.00    +0.122 C 
ATOM      8  C   UNL     1       6.213   0.606   2.012  0.00  0.00    +0.220 C 
ATOM      9  O   UNL     1       6.568  -0.429   2.537  0.00  0.00    -0.275 OA
ATOM     10  N   UNL     1       5.039   0.632   1.348  0.00  0.00    -0.270 N 
ATOM     11  C   UNL     1       7.987   2.033  -0.197  0.00  0.00    -0.006 A 
ATOM     12  C   UNL     1       7.983   0.801  -0.814  0.00  0.00    +0.009 A 
ATOM     13  C   UNL     1       8.988   0.556  -1.742  0.00  0.00    +0.039 A 
ATOM     14  C   UNL     1       9.947   1.508  -2.031  0.00  0.00    +0.125 A 
ATOM     15  C   UNL     1       9.957   2.751  -1.413  0.00  0.00    +0.062 A 
ATOM     16  C   UNL     1       8.953   3.008  -0.479  0.00  0.00    +0.041 A 
ATOM     17  N   UNL     1       8.725   4.145   0.276  0.00  0.00    -0.284 N 
ATOM     18  C   UNL     1       7.644   4.013   1.074  0.00  0.00    +0.233 C 
ATOM     19  O   UNL     1       7.209   4.845   1.842  0.00  0.00    -0.274 OA
ATOM     20  F   UNL     1      10.903   1.221  -2.942  0.00  0.00    -0.205 F 
ATOM     21  H   UNL     1       4.422  -0.115   1.399  0.00  0.00    +0.156 HD
ATOM     22  H   UNL     1       9.276   4.942   0.236  0.00  0.00    +0.155 HD
ENDROOT
BRANCH   1  25
ATOM     23  C   UNL     1      -0.017   1.379   0.010  0.00  0.00    +0.014 A 
ATOM     24  C   UNL     1       1.169   2.087   0.002  0.00  0.00    +0.028 A 
ATOM     25  C   UNL     1       2.381   1.409  -0.013  0.00  0.00    +0.067 A 
ATOM     26  C   UNL     1       2.396   0.021  -0.021  0.00  0.00    +0.028 A 
ATOM     27  C   UNL     1       1.207  -0.682  -0.013  0.00  0.00    +0.014 A 
ATOM     28  C   UNL     1       0.002  -0.004   0.002  0.00  0.00    +0.055 A 
BRANCH  28  29
ATOM     29  C   UNL     1      -1.294  -0.774   0.011  0.00  0.00    +0.417 C 
ATOM     30  F   UNL     1      -1.708  -1.005  -1.306  0.00  0.00    -0.166 F 
ATOM     31  F   UNL     1      -1.105  -1.998   0.662  0.00  0.00    -0.166 F 
ATOM     32  F   UNL     1      -2.271  -0.033   0.684  0.00  0.00    -0.166 F 
ENDBRANCH  28  29
ENDBRANCH   1  25
TORSDOF 2
