REMARK  Name = ZINC35692616
REMARK  9 active torsions:
REMARK  status: ('A' for Active; 'I' for Inactive)
REMARK    1  A    between atoms: C_1  and  C_2
REMARK    2  A    between atoms: C_3  and  C_25
REMARK    3  A    between atoms: C_4  and  C_19
REMARK    4  A    between atoms: C_7  and  C_12
REMARK    5  A    between atoms: C_13  and  N_15
REMARK    6  A    between atoms: N_15  and  C_16
REMARK    7  A    between atoms: C_16  and  C_17
REMARK    8  A    between atoms: C_16  and  C_18
REMARK    9  A    between atoms: N_27  and  C_28
REMARK                            x       y       z     vdW  Elec       q    Type
REMARK                         _______ _______ _______ _____ _____    ______ ____
ROOT
ATOM      1  C   UNL     1      -0.723   1.056   2.596  0.00  0.00    +0.066 C 
ATOM      2  C   UNL     1      -0.409  -0.107   1.690  0.00  0.00    +0.051 C 
ATOM      3  C   UNL     1      -1.363  -0.560   0.801  0.00  0.00    +0.061 C 
ATOM      4  C   UNL     1      -1.001  -1.729  -0.087  0.00  0.00    +0.148 C 
ATOM      5  N   UNL     1       0.363  -2.301   0.069  0.00  0.00    -0.267 N 
ATOM      6  C   UNL     1       0.905  -3.361  -0.631  0.00  0.00    +0.048 C 
ATOM      7  C   UNL     1       2.172  -3.725  -0.334  0.00  0.00    +0.072 C 
ATOM      8  S   UNL     1       2.601  -2.560   0.944  0.00  0.00    -0.060 S 
ATOM      9  C   UNL     1       1.158  -1.706   1.008  0.00  0.00    +0.166 C 
ATOM     10  N   UNL     1       0.781  -0.683   1.748  0.00  0.00    -0.230 NA
ENDROOT
BRANCH   4  11
ATOM     11  C   UNL     1      -1.158  -1.289  -1.520  0.00  0.00    -0.022 A 
ATOM     12  C   UNL     1      -2.152  -1.839  -2.307  0.00  0.00    +0.006 A 
ATOM     13  C   UNL     1      -2.296  -1.435  -3.622  0.00  0.00    +0.000 A 
ATOM     14  C   UNL     1      -1.445  -0.481  -4.148  0.00  0.00    +0.000 A 
ATOM     15  C   UNL     1      -0.452   0.070  -3.361  0.00  0.00    +0.000 A 
ATOM     16  C   UNL     1      -0.311  -0.331  -2.046  0.00  0.00    +0.006 A 
ENDBRANCH   4  11
BRANCH   3  17
ATOM     17  C   UNL     1      -2.627   0.043   0.725  0.00  0.00    +0.248 C 
ATOM     18  O   UNL     1      -2.858   1.057   1.363  0.00  0.00    -0.270 OA
ATOM     19  N   UNL     1      -3.586  -0.496  -0.053  0.00  0.00    -0.282 N 
ATOM     20  H   UNL     1      -3.440  -1.357  -0.475  0.00  0.00    +0.155 HD
BRANCH  19  21
ATOM     21  C   UNL     1      -4.791   0.184  -0.252  0.00  0.00    +0.034 A 
ATOM     22  C   UNL     1      -4.805   1.572  -0.311  0.00  0.00    +0.023 A 
ATOM     23  C   UNL     1      -5.997   2.242  -0.508  0.00  0.00    +0.002 A 
ATOM     24  C   UNL     1      -7.176   1.532  -0.645  0.00  0.00    +0.000 A 
ATOM     25  C   UNL     1      -7.165   0.150  -0.586  0.00  0.00    +0.002 A 
ATOM     26  C   UNL     1      -5.976  -0.525  -0.395  0.00  0.00    +0.023 A 
ENDBRANCH  19  21
ENDBRANCH   3  17
BRANCH   6  27
ATOM     27  C   UNL     1       0.132  -4.068  -1.662  0.00  0.00    +0.091 C 
ATOM     28  C   UNL     1       0.636  -5.174  -2.242  0.00  0.00    +0.239 C 
ATOM     29  O   UNL     1       1.901  -5.570  -1.960  0.00  0.00    -0.271 OA
BRANCH  28  30
ATOM     30  N   UNL     1      -0.138  -5.906  -3.126  0.00  0.00    -0.309 N 
ATOM     31  H   UNL     1      -1.017  -5.585  -3.382  0.00  0.00    +0.149 HD
BRANCH  30  32
ATOM     32  C   UNL     1       0.370  -7.166  -3.674  0.00  0.00    +0.067 C 
ATOM     33  C   UNL     1      -0.804  -8.029  -4.141  0.00  0.00    +0.027 C 
ATOM     34  C   UNL     1       1.290  -6.872  -4.861  0.00  0.00    +0.027 C 
ENDBRANCH  30  32
ENDBRANCH  28  30
ENDBRANCH   6  27
TORSDOF 6
