REMARK  Name = ZINC13042471
REMARK  9 active torsions:
REMARK  status: ('A' for Active; 'I' for Inactive)
REMARK    1  A    between atoms: C_1  and  C_2
REMARK    2  A    between atoms: N_4  and  C_5
REMARK    3  A    between atoms: C_8  and  S_13
REMARK    4  A    between atoms: C_10  and  O_11
REMARK    5  A    between atoms: O_11  and  C_12
REMARK    6  A    between atoms: S_13  and  N_16
REMARK    7  A    between atoms: N_16  and  C_17
REMARK    8  A    between atoms: C_21  and  S_23
REMARK    9  A    between atoms: S_23  and  N_26
REMARK                            x       y       z     vdW  Elec       q    Type
REMARK                         _______ _______ _______ _____ _____    ______ ____
ROOT
ATOM      1  N   UNL     1      -0.607  -7.215   1.114  0.00  0.00    -0.216 N 
ATOM      2  H   UNL     1       0.220  -7.674   1.328  0.00  0.00    +0.174 HD
ENDROOT
BRANCH   1   3
ATOM      3  C   UNL     1      -1.545  -6.963   2.118  0.00  0.00    +0.050 A 
ATOM      4  C   UNL     1      -2.151  -5.716   2.207  0.00  0.00    +0.024 A 
ATOM      5  C   UNL     1      -3.079  -5.470   3.200  0.00  0.00    +0.004 A 
ATOM      6  C   UNL     1      -3.405  -6.464   4.105  0.00  0.00    +0.029 A 
ATOM      7  C   UNL     1      -2.803  -7.706   4.020  0.00  0.00    +0.114 A 
ATOM      8  C   UNL     1      -1.879  -7.960   3.025  0.00  0.00    +0.053 A 
BRANCH   7   9
ATOM      9  S   UNL     1      -3.221  -8.968   5.176  0.00  0.00    +0.100 S 
ATOM     10  O   UNL     1      -2.118  -9.863   5.216  0.00  0.00    -0.146 OA
ATOM     11  O   UNL     1      -3.709  -8.309   6.337  0.00  0.00    -0.146 OA
BRANCH   9  12
ATOM     12  N   UNL     1      -4.495  -9.813   4.540  0.00  0.00    -0.118 NA
ATOM     13  C   UNL     1      -5.003 -10.806   5.194  0.00  0.00    +0.117 C 
ATOM     14  C   UNL     1      -4.435 -11.196   6.557  0.00  0.00    +0.073 C 
ATOM     15  C   UNL     1      -5.476 -10.842   7.596  0.00  0.00    +0.008 C 
ATOM     16  C   UNL     1      -6.486 -11.962   7.854  0.00  0.00    +0.002 C 
ATOM     17  C   UNL     1      -6.969 -12.641   6.572  0.00  0.00    +0.019 C 
ATOM     18  C   UNL     1      -7.268 -11.664   5.456  0.00  0.00    +0.102 C 
ATOM     19  N   UNL     1      -6.018 -11.480   4.689  0.00  0.00    -0.331 N 
ATOM     20  H   UNL     1      -5.943 -11.864   3.801  0.00  0.00    +0.147 HD
ENDBRANCH   9  12
ENDBRANCH   7   9
ENDBRANCH   1   3
BRANCH   1  21
ATOM     21  S   UNL     1      -0.907  -6.729  -0.440  0.00  0.00    +0.072 S 
ATOM     22  O   UNL     1       0.176  -7.203  -1.230  0.00  0.00    -0.150 OA
ATOM     23  O   UNL     1      -1.258  -5.354  -0.376  0.00  0.00    -0.150 OA
BRANCH  21  27
ATOM     24  C   UNL     1      -4.604  -8.940  -1.847  0.00  0.00    +0.076 A 
ATOM     25  C   UNL     1      -4.715  -7.662  -1.317  0.00  0.00    +0.029 A 
ATOM     26  C   UNL     1      -3.586  -6.992  -0.889  0.00  0.00    +0.031 A 
ATOM     27  C   UNL     1      -2.343  -7.591  -0.987  0.00  0.00    +0.112 A 
ATOM     28  C   UNL     1      -2.225  -8.863  -1.514  0.00  0.00    +0.076 A 
ATOM     29  C   UNL     1      -3.353  -9.545  -1.940  0.00  0.00    +0.143 A 
BRANCH  24  33
ATOM     30  C   UNL     1      -7.970  -9.676  -3.370  0.00  0.00    +0.109 C 
ATOM     31  C   UNL     1      -6.782  -8.936  -2.811  0.00  0.00    +0.214 C 
ATOM     32  O   UNL     1      -6.755  -7.724  -2.836  0.00  0.00    -0.276 OA
ATOM     33  N   UNL     1      -5.749  -9.622  -2.282  0.00  0.00    -0.283 N 
ATOM     34  H   UNL     1      -5.798 -10.587  -2.202  0.00  0.00    +0.155 HD
ENDBRANCH  24  33
BRANCH  29  35
ATOM     35  O   UNL     1      -3.239 -10.799  -2.454  0.00  0.00    -0.493 OA
ATOM     36  C   UNL     1      -1.925 -11.356  -2.519  0.00  0.00    +0.277 C 
ENDBRANCH  29  35
ENDBRANCH  21  27
ENDBRANCH   1  21
TORSDOF 7
