REMARK  Name = ZINC15321364
REMARK  11 active torsions:
REMARK  status: ('A' for Active; 'I' for Inactive)
REMARK    1  A    between atoms: C_1  and  C_2
REMARK    2  A    between atoms: C_2  and  C_3
REMARK    3  A    between atoms: C_3  and  N_69
REMARK    4  A    between atoms: C_6  and  C_9
REMARK    5  A    between atoms: C_9  and  N_10
REMARK    6  A    between atoms: C_11  and  C_25
REMARK    7  A    between atoms: N_15  and  C_18
REMARK    8  A    between atoms: C_25  and  C_26
REMARK    9  A    between atoms: N_28  and  C_29
REMARK   10  A    between atoms: C_32  and  O_35
REMARK   11  A    between atoms: O_35  and  C_36
REMARK                            x       y       z     vdW  Elec       q    Type
REMARK                         _______ _______ _______ _____ _____    ______ ____
ROOT
ATOM      1  N   UNL     1       5.040  -2.411   0.047  0.00  0.00    -0.300 N 
ATOM      2  C   UNL     1       5.749  -1.131  -0.124  0.00  0.00    +0.171 C 
ATOM      3  C   UNL     1       4.639  -0.100  -0.075  0.00  0.00    +0.246 C 
ATOM      4  O   UNL     1       4.753   1.103  -0.176  0.00  0.00    -0.273 OA
ATOM      5  N   UNL     1       3.501  -0.798   0.101  0.00  0.00    -0.220 N 
ATOM      6  C   UNL     1       3.735  -2.113   0.175  0.00  0.00    +0.147 C 
ATOM      7  S   UNL     1       2.509  -3.287   0.403  0.00  0.00    -0.018 S 
ENDROOT
BRANCH   5   8
ATOM      8  C   UNL     1       2.228  -0.217   0.201  0.00  0.00    +0.043 A 
ATOM      9  C   UNL     1       1.274  -0.461  -0.778  0.00  0.00    +0.027 A 
ATOM     10  C   UNL     1       0.021   0.112  -0.679  0.00  0.00    +0.040 A 
ATOM     11  C   UNL     1      -0.284   0.929   0.397  0.00  0.00    +0.124 A 
ATOM     12  C   UNL     1       0.666   1.173   1.374  0.00  0.00    +0.040 A 
ATOM     13  C   UNL     1       1.920   0.602   1.278  0.00  0.00    +0.027 A 
ATOM     14  F   UNL     1      -1.508   1.493   0.490  0.00  0.00    -0.205 F 
ENDBRANCH   5   8
BRANCH   1  15
ATOM     15  C   UNL     1       5.640  -3.747   0.078  0.00  0.00    +0.111 C 
BRANCH  15  18
ATOM     16  C   UNL     1       6.704  -6.126  -2.755  0.00  0.00    -0.079 C 
ATOM     17  C   UNL     1       6.566  -5.597  -1.326  0.00  0.00    -0.014 C 
ATOM     18  C   UNL     1       5.834  -4.252  -1.353  0.00  0.00    +0.003 C 
ATOM     19  C   UNL     1       4.469  -4.435  -2.020  0.00  0.00    -0.014 C 
ATOM     20  C   UNL     1       4.667  -5.000  -3.429  0.00  0.00    -0.079 C 
ATOM     21  N   UNL     1       5.354  -6.305  -3.332  0.00  0.00    +0.380 N 
ATOM     22  H   UNL     1       4.809  -6.924  -2.720  0.00  0.00    -0.082 HD
BRANCH  21  23
ATOM     23  C   UNL     1       5.456  -6.923  -4.671  0.00  0.00    -0.079 C 
BRANCH  23  25
ATOM     24  C   UNL     1       4.140  -7.961  -6.524  0.00  0.00    +0.002 C 
ATOM     25  C   UNL     1       4.051  -7.298  -5.147  0.00  0.00    -0.022 C 
ENDBRANCH  23  25
ENDBRANCH  21  23
ENDBRANCH  15  18
ENDBRANCH   1  15
BRANCH   2  26
ATOM     26  C   UNL     1       6.743  -0.906   1.018  0.00  0.00    +0.128 C 
BRANCH  26  27
ATOM     27  C   UNL     1       7.932  -1.815   0.835  0.00  0.00    +0.219 C 
ATOM     28  O   UNL     1       8.040  -2.475  -0.176  0.00  0.00    -0.275 OA
ATOM     29  N   UNL     1       8.873  -1.894   1.796  0.00  0.00    -0.285 N 
ATOM     30  H   UNL     1       8.751  -1.423   2.635  0.00  0.00    +0.155 HD
BRANCH  29  31
ATOM     31  C   UNL     1      10.030  -2.655   1.583  0.00  0.00    +0.034 A 
ATOM     32  C   UNL     1      10.622  -3.330   2.642  0.00  0.00    +0.027 A 
ATOM     33  C   UNL     1      11.759  -4.085   2.430  0.00  0.00    +0.047 A 
ATOM     34  C   UNL     1      12.316  -4.160   1.161  0.00  0.00    +0.120 A 
ATOM     35  C   UNL     1      11.727  -3.482   0.104  0.00  0.00    +0.047 A 
ATOM     36  C   UNL     1      10.587  -2.732   0.313  0.00  0.00    +0.027 A 
BRANCH  34  37
ATOM     37  O   UNL     1      13.438  -4.899   0.954  0.00  0.00    -0.495 OA
ATOM     38  C   UNL     1      13.991  -5.571   2.088  0.00  0.00    +0.277 C 
ENDBRANCH  34  37
ENDBRANCH  29  31
ENDBRANCH  26  27
ENDBRANCH   2  26
TORSDOF 9
