REMARK  Name = ZINC38577205
REMARK  2 active torsions:
REMARK  status: ('A' for Active; 'I' for Inactive)
REMARK    1  A    between atoms: C_1  and  C_2
REMARK    2  A    between atoms: C_4  and  C_25
REMARK                            x       y       z     vdW  Elec       q    Type
REMARK                         _______ _______ _______ _____ _____    ______ ____
ROOT
ATOM      1  C   UNL     1      -0.030   1.472  -0.227  0.00  0.00    +0.062 C 
ATOM      2  C   UNL     1      -0.029  -0.035  -0.237  0.00  0.00    +0.023 C 
ATOM      3  C   UNL     1      -1.109  -0.777  -0.036  0.00  0.00    +0.005 C 
ATOM      4  C   UNL     1      -2.473  -0.248   0.236  0.00  0.00    +0.109 C 
ATOM      5  S   UNL     1      -3.033  -0.611   1.910  0.00  0.00    -0.139 S 
ATOM      6  C   UNL     1      -3.260  -2.396   1.977  0.00  0.00    +0.165 C 
ATOM      7  C   UNL     1      -1.977  -3.128   1.804  0.00  0.00    +0.225 C 
ATOM      8  O   UNL     1      -1.862  -4.060   2.572  0.00  0.00    -0.275 OA
ATOM      9  N   UNL     1      -0.967  -2.999   1.030  0.00  0.00    -0.291 N 
ATOM     10  C   UNL     1      -0.676  -2.214  -0.131  0.00  0.00    +0.210 C 
ATOM     11  N   UNL     1       0.770  -2.167  -0.399  0.00  0.00    -0.213 N 
ATOM     12  N   UNL     1       1.094  -0.804  -0.464  0.00  0.00    -0.265 N 
ATOM     13  C   UNL     1       1.606  -3.213  -0.555  0.00  0.00    +0.150 C 
ATOM     14  N   UNL     1       1.169  -4.457  -0.480  0.00  0.00    -0.221 NA
ATOM     15  C   UNL     1       1.957  -5.525  -0.562  0.00  0.00    +0.225 C 
ATOM     16  N   UNL     1       3.273  -5.451  -0.406  0.00  0.00    -0.218 NA
ATOM     17  C   UNL     1       3.773  -4.232  -0.231  0.00  0.00    +0.164 C 
ATOM     18  N   UNL     1       4.785  -3.749   0.425  0.00  0.00    -0.219 NA
ATOM     19  C   UNL     1       4.670  -2.426   0.594  0.00  0.00    +0.218 C 
ATOM     20  N   UNL     1       3.674  -1.909  -0.070  0.00  0.00    -0.253 NA
ATOM     21  C   UNL     1       3.072  -3.008  -0.827  0.00  0.00    +0.239 C 
ATOM     22  H   UNL     1      -0.224  -3.565   1.292  0.00  0.00    +0.151 HD
ATOM     23  H   UNL     1       1.980  -0.453  -0.640  0.00  0.00    +0.170 HD
ENDROOT
BRANCH   4  24
ATOM     24  C   UNL     1      -2.463   1.246   0.041  0.00  0.00    -0.016 A 
ATOM     25  C   UNL     1      -2.287   2.084   1.126  0.00  0.00    +0.006 A 
ATOM     26  C   UNL     1      -2.277   3.455   0.947  0.00  0.00    +0.000 A 
ATOM     27  C   UNL     1      -2.445   3.989  -0.317  0.00  0.00    +0.001 A 
ATOM     28  C   UNL     1      -2.622   3.152  -1.403  0.00  0.00    +0.015 A 
ATOM     29  C   UNL     1      -2.626   1.780  -1.225  0.00  0.00    +0.022 A 
ATOM     30 BR   UNL     1      -2.860   0.634  -2.711  0.00  0.00    -0.050 Br
ENDBRANCH   4  24
TORSDOF 1
