REMARK  Name = ZINC64622776
REMARK  6 active torsions:
REMARK  status: ('A' for Active; 'I' for Inactive)
REMARK    1  A    between atoms: C_3  and  C_6
REMARK    2  A    between atoms: N_15  and  C_16
REMARK    3  A    between atoms: C_16  and  C_17
REMARK    4  A    between atoms: N_19  and  C_20
REMARK    5  A    between atoms: C_20  and  C_21
REMARK    6  A    between atoms: C_21  and  C_22
REMARK                            x       y       z     vdW  Elec       q    Type
REMARK                         _______ _______ _______ _____ _____    ______ ____
ROOT
ATOM      1  C   UNL     1       3.761   1.845  -0.024  0.00  0.00    +0.115 C 
ATOM      2  C   UNL     1       4.384   1.719   1.375  0.00  0.00    +0.064 C 
ATOM      3  C   UNL     1       5.562   0.790   1.184  0.00  0.00    -0.023 A 
ATOM      4  C   UNL     1       6.494   0.311   2.085  0.00  0.00    +0.025 A 
ATOM      5  C   UNL     1       7.496  -0.543   1.660  0.00  0.00    +0.041 A 
ATOM      6  C   UNL     1       7.563  -0.917   0.329  0.00  0.00    +0.022 A 
ATOM      7  C   UNL     1       6.635  -0.441  -0.572  0.00  0.00    +0.025 A 
ATOM      8  C   UNL     1       5.621   0.422  -0.151  0.00  0.00    +0.034 A 
ATOM      9  N   UNL     1       4.594   1.011  -0.895  0.00  0.00    -0.313 N 
ATOM     10 CL   UNL     1       8.666  -1.144   2.793  0.00  0.00    -0.084 Cl
ENDROOT
BRANCH   1  13
ATOM     11  C   UNL     1      -0.016   1.351   0.009  0.00  0.00    +0.008 A 
ATOM     12  C   UNL     1       1.183   2.038   0.002  0.00  0.00    +0.013 A 
ATOM     13  C   UNL     1       2.343   1.336  -0.013  0.00  0.00    +0.010 A 
ATOM     14  S   UNL     1       1.754  -0.349  -0.017  0.00  0.00    -0.100 S 
ATOM     15  C   UNL     1       0.002  -0.004   0.002  0.00  0.00    +0.045 A 
ENDBRANCH   1  13
BRANCH   9  16
ATOM     16  C   UNL     1       4.380   0.823  -2.332  0.00  0.00    +0.201 C 
BRANCH  16  17
ATOM     17  C   UNL     1       5.143   1.875  -3.095  0.00  0.00    +0.230 C 
ATOM     18  O   UNL     1       5.800   2.701  -2.498  0.00  0.00    -0.274 OA
ATOM     19  N   UNL     1       5.094   1.899  -4.442  0.00  0.00    -0.314 N 
ATOM     20  H   UNL     1       4.569   1.238  -4.920  0.00  0.00    +0.149 HD
BRANCH  19  21
ATOM     21  C   UNL     1       5.835   2.921  -5.184  0.00  0.00    +0.110 C 
BRANCH  21  22
ATOM     22  C   UNL     1       5.612   2.725  -6.685  0.00  0.00    +0.073 C 
BRANCH  22  23
ATOM     23  C   UNL     1       6.375   3.777  -7.448  0.00  0.00    +0.035 A 
ATOM     24  H   UNL     1       8.810   5.114  -8.867  0.00  0.00    +0.166 HD
ATOM     25  C   UNL     1       7.670   3.710  -7.809  0.00  0.00    +0.105 A 
ATOM     26  N   UNL     1       7.955   4.868  -8.481  0.00  0.00    -0.352 N 
ATOM     27  C   UNL     1       6.822   5.603  -8.507  0.00  0.00    +0.171 A 
ATOM     28  N   UNL     1       5.880   4.942  -7.892  0.00  0.00    -0.350 N 
ATOM     29  H   UNL     1       4.967   5.247  -7.772  0.00  0.00    +0.166 HD
ENDBRANCH  22  23
ENDBRANCH  21  22
ENDBRANCH  19  21
ENDBRANCH  16  17
ENDBRANCH   9  16
TORSDOF 6
