REMARK  Name = ZINC15958455
REMARK  5 active torsions:
REMARK  status: ('A' for Active; 'I' for Inactive)
REMARK    1  A    between atoms: C_1  and  C_2
REMARK    2  A    between atoms: C_17  and  C_20
REMARK    3  A    between atoms: C_20  and  C_21
REMARK    4  A    between atoms: N_26  and  C_29
REMARK    5  A    between atoms: C_32  and  C_35
REMARK                            x       y       z     vdW  Elec       q    Type
REMARK                         _______ _______ _______ _____ _____    ______ ____
ROOT
ATOM      1  C   UNL     1       0.674   0.988   0.349  0.00  0.00    +0.044 C 
ATOM      2  C   UNL     1       0.681  -0.506   0.149  0.00  0.00    -0.049 A 
ATOM      3  C   UNL     1       0.475  -1.037  -1.112  0.00  0.00    +0.011 A 
ATOM      4  C   UNL     1       0.481  -2.402  -1.295  0.00  0.00    +0.005 A 
ATOM      5  C   UNL     1       0.694  -3.260  -0.221  0.00  0.00    +0.057 A 
ATOM      6  C   UNL     1       0.901  -2.717   1.046  0.00  0.00    +0.063 A 
ATOM      7  C   UNL     1       0.900  -1.348   1.223  0.00  0.00    +0.025 A 
ATOM      8 CL   UNL     1       1.170  -3.765   2.404  0.00  0.00    -0.082 Cl
ATOM      9  N   UNL     1       0.652  -4.590  -0.649  0.00  0.00    -0.282 N 
ATOM     10  C   UNL     1       0.420  -4.690  -1.972  0.00  0.00    +0.243 C 
ATOM     11  O   UNL     1       0.329  -5.714  -2.615  0.00  0.00    -0.273 OA
ATOM     12  C   UNL     1       0.295  -3.286  -2.496  0.00  0.00    +0.136 C 
ATOM     13  C   UNL     1      -1.066  -3.053  -3.162  0.00  0.00    +0.123 C 
ATOM     14  C   UNL     1      -0.792  -3.224  -4.682  0.00  0.00    +0.108 C 
ATOM     15  C   UNL     1       0.714  -3.547  -4.779  0.00  0.00    +0.076 C 
ATOM     16  N   UNL     1       1.306  -3.009  -3.534  0.00  0.00    -0.295 NA
ATOM     17  C   UNL     1      -1.602  -4.448  -5.046  0.00  0.00    +0.232 C 
ATOM     18  O   UNL     1      -1.673  -4.937  -6.153  0.00  0.00    -0.274 OA
ATOM     19  N   UNL     1      -2.226  -4.909  -3.956  0.00  0.00    -0.210 N 
ATOM     20  C   UNL     1      -2.000  -4.194  -2.830  0.00  0.00    +0.233 C 
ATOM     21  O   UNL     1      -2.462  -4.425  -1.734  0.00  0.00    -0.274 OA
ATOM     22  H   UNL     1       0.777  -5.351  -0.061  0.00  0.00    +0.155 HD
ATOM     23  H   UNL     1       1.471  -2.017  -3.623  0.00  0.00    +0.124 HD
ENDROOT
BRANCH  19  24
ATOM     24  C   UNL     1      -3.054  -6.035  -3.978  0.00  0.00    +0.044 A 
ATOM     25  C   UNL     1      -4.421  -5.896  -3.765  0.00  0.00    +0.025 A 
ATOM     26  C   UNL     1      -5.239  -7.003  -3.787  0.00  0.00    +0.015 A 
ATOM     27  C   UNL     1      -4.694  -8.268  -4.022  0.00  0.00    +0.037 A 
ATOM     28  C   UNL     1      -3.320  -8.404  -4.236  0.00  0.00    +0.015 A 
ATOM     29  C   UNL     1      -2.509  -7.292  -4.218  0.00  0.00    +0.025 A 
BRANCH  27  30
ATOM     30  C   UNL     1      -5.568  -9.458  -4.045  0.00  0.00    +0.242 C 
ATOM     31  O   UNL     1      -6.764  -9.338  -3.858  0.00  0.00    -0.270 OA
ATOM     32  N   UNL     1      -5.041 -10.677  -4.273  0.00  0.00    -0.325 N 
ATOM     33  H   UNL     1      -4.087 -10.773  -4.421  0.00  0.00    +0.145 HD
ATOM     34  H   UNL     1      -5.615 -11.459  -4.288  0.00  0.00    +0.145 HD
ENDBRANCH  27  30
ENDBRANCH  19  24
BRANCH  15  35
ATOM     35  C   UNL     1       1.324  -2.878  -6.013  0.00  0.00    +0.115 C 
BRANCH  35  36
ATOM     36  C   UNL     1       2.762  -3.305  -6.157  0.00  0.00    +0.212 C 
ATOM     37  O   UNL     1       3.251  -4.069  -5.351  0.00  0.00    -0.276 OA
ATOM     38  N   UNL     1       3.505  -2.838  -7.179  0.00  0.00    -0.329 N 
ATOM     39  H   UNL     1       3.114  -2.227  -7.823  0.00  0.00    +0.145 HD
ATOM     40  H   UNL     1       4.431  -3.113  -7.272  0.00  0.00    +0.145 HD
ENDBRANCH  35  36
ENDBRANCH  15  35
TORSDOF 4
