REMARK  Name = ZINC36542181
REMARK  18 active torsions:
REMARK  status: ('A' for Active; 'I' for Inactive)
REMARK    1  A    between atoms: C_1  and  C_2
REMARK    2  A    between atoms: C_2  and  C_3
REMARK    3  A    between atoms: C_3  and  C_4
REMARK    4  A    between atoms: C_4  and  C_5
REMARK    5  A    between atoms: C_5  and  C_6
REMARK    6  A    between atoms: C_7  and  C_8
REMARK    7  A    between atoms: N_10  and  C_11
REMARK    8  A    between atoms: N_10  and  C_18
REMARK    9  A    between atoms: C_18  and  C_20
REMARK   10  A    between atoms: C_18  and  C_25
REMARK   11  A    between atoms: C_20  and  C_21
REMARK   12  A    between atoms: C_20  and  C_23
REMARK   13  A    between atoms: C_21  and  C_22
REMARK   14  A    between atoms: C_23  and  C_24
REMARK   15  A    between atoms: N_27  and  C_28
REMARK   16  A    between atoms: C_28  and  C_29
REMARK   17  A    between atoms: C_29  and  C_30
REMARK   18  A    between atoms: C_30  and  C_31
REMARK                            x       y       z     vdW  Elec       q    Type
REMARK                         _______ _______ _______ _____ _____    ______ ____
ROOT
ATOM      1  C   UNL     1      -4.729  -3.985   2.235  0.00  0.00    +0.244 C 
ATOM      2  O   UNL     1      -5.070  -2.856   1.937  0.00  0.00    -0.270 OA
ATOM      3  N   UNL     1      -4.646  -4.343   3.532  0.00  0.00    -0.254 N 
ENDROOT
BRANCH   3   4
ATOM      4  C   UNL     1      -4.255  -5.642   3.875  0.00  0.00    +0.056 A 
ATOM      5  C   UNL     1      -3.072  -5.851   4.571  0.00  0.00    +0.025 A 
ATOM      6  C   UNL     1      -2.688  -7.134   4.908  0.00  0.00    +0.002 A 
ATOM      7  C   UNL     1      -3.481  -8.211   4.554  0.00  0.00    +0.002 A 
ATOM      8  C   UNL     1      -4.660  -8.007   3.861  0.00  0.00    +0.022 A 
ATOM      9  C   UNL     1      -5.053  -6.725   3.526  0.00  0.00    +0.062 A 
ATOM     10 CL   UNL     1      -6.537  -6.468   2.663  0.00  0.00    -0.082 Cl
ENDBRANCH   3   4
BRANCH   1  12
ATOM     11  C   UNL     1      -4.312  -4.562  -0.084  0.00  0.00    -0.022 C 
ATOM     12  C   UNL     1      -4.409  -4.959   1.181  0.00  0.00    +0.063 C 
BRANCH  11  13
ATOM     13  C   UNL     1      -4.032  -3.115  -0.401  0.00  0.00    +0.027 C 
BRANCH  13  14
ATOM     14  C   UNL     1      -2.925  -3.029  -1.454  0.00  0.00    +0.004 C 
BRANCH  14  15
ATOM     15  C   UNL     1      -2.641  -1.560  -1.775  0.00  0.00    +0.000 C 
BRANCH  15  17
ATOM     16  C   UNL     1      -1.250  -0.004  -3.149  0.00  0.00    +0.004 C 
ATOM     17  C   UNL     1      -1.535  -1.473  -2.828  0.00  0.00    -0.003 C 
ENDBRANCH  15  17
ENDBRANCH  14  15
ENDBRANCH  13  14
ENDBRANCH  11  13
ENDBRANCH   1  12
BRANCH   3  18
ATOM     18  C   UNL     1      -4.966  -3.373   4.582  0.00  0.00    +0.170 C 
BRANCH  18  19
ATOM     19  C   UNL     1      -3.713  -3.030   5.346  0.00  0.00    +0.234 C 
ATOM     20  O   UNL     1      -2.629  -3.355   4.911  0.00  0.00    -0.274 OA
ATOM     21  N   UNL     1      -3.798  -2.361   6.514  0.00  0.00    -0.314 N 
ATOM     22  H   UNL     1      -4.658  -2.043   6.829  0.00  0.00    +0.149 HD
BRANCH  21  23
ATOM     23  C   UNL     1      -2.591  -2.116   7.307  0.00  0.00    +0.104 C 
BRANCH  23  24
ATOM     24  C   UNL     1      -2.962  -1.345   8.575  0.00  0.00    +0.018 C 
BRANCH  24  25
ATOM     25  C   UNL     1      -1.701  -1.088   9.403  0.00  0.00    -0.002 C 
ATOM     26  C   UNL     1      -2.072  -0.317  10.671  0.00  0.00    +0.004 C 
ENDBRANCH  24  25
ENDBRANCH  23  24
ENDBRANCH  21  23
ENDBRANCH  18  19
BRANCH  18  27
ATOM     27  C   UNL     1      -5.997  -3.976   5.537  0.00  0.00    +0.018 C 
BRANCH  27  28
ATOM     28  C   UNL     1      -7.288  -4.274   4.772  0.00  0.00    +0.002 C 
ATOM     29  C   UNL     1      -7.858  -2.972   4.206  0.00  0.00    +0.004 C 
ENDBRANCH  27  28
BRANCH  27  30
ATOM     30  C   UNL     1      -5.445  -5.273   6.131  0.00  0.00    +0.002 C 
ATOM     31  C   UNL     1      -4.313  -4.946   7.107  0.00  0.00    +0.004 C 
ENDBRANCH  27  30
ENDBRANCH  18  27
ENDBRANCH   3  18
TORSDOF 14
