REMARK  Name = ZINC46721125
REMARK  10 active torsions:
REMARK  status: ('A' for Active; 'I' for Inactive)
REMARK    1  A    between atoms: C_1  and  C_2
REMARK    2  A    between atoms: C_5  and  C_27
REMARK    3  A    between atoms: C_6  and  N_8
REMARK    4  A    between atoms: C_9  and  C_11
REMARK    5  A    between atoms: C_11  and  C_13
REMARK    6  A    between atoms: C_11  and  N_14
REMARK    7  A    between atoms: N_18  and  C_21
REMARK    8  A    between atoms: C_21  and  C_22
REMARK    9  A    between atoms: N_24  and  C_25
REMARK   10  A    between atoms: N_24  and  C_26
REMARK                            x       y       z     vdW  Elec       q    Type
REMARK                         _______ _______ _______ _____ _____    ______ ____
ROOT
ATOM      1  C   UNL     1       0.280  -2.900   4.854  0.00  0.00    +0.016 C 
ATOM      2  C   UNL     1       1.611  -3.619   4.625  0.00  0.00    -0.004 C 
ENDROOT
BRANCH   1   3
ATOM      3  N   UNL     1       0.480  -1.787   5.791  0.00  0.00    +0.388 N 
ATOM      4  C   UNL     1       1.024  -2.322   7.058  0.00  0.00    -0.076 C 
ATOM      5  C   UNL     1       1.711  -1.204   7.801  0.00  0.00    -0.003 C 
ATOM      6  C   UNL     1       0.770  -0.516   8.806  0.00  0.00    +0.083 C 
ATOM      7  N   UNL     1      -0.591  -0.319   8.255  0.00  0.00    -0.296 NA
ATOM      8  C   UNL     1      -0.600   0.115   6.877  0.00  0.00    +0.066 C 
ATOM      9  C   UNL     1      -0.736  -1.120   5.966  0.00  0.00    -0.062 C 
ATOM     10  H   UNL     1       1.151  -1.145   5.396  0.00  0.00    -0.081 HD
BRANCH   7  11
ATOM     11  C   UNL     1      -1.373   0.593   9.100  0.00  0.00    +0.180 C 
BRANCH  11  12
ATOM     12  C   UNL     1      -1.618  -0.050  10.441  0.00  0.00    +0.229 C 
ATOM     13  O   UNL     1      -1.184  -1.159  10.670  0.00  0.00    -0.274 OA
ATOM     14  N   UNL     1      -2.320   0.607  11.385  0.00  0.00    -0.307 N 
ATOM     15  C   UNL     1      -2.558  -0.018  12.689  0.00  0.00    +0.131 C 
ATOM     16  C   UNL     1      -2.844   1.947  11.109  0.00  0.00    +0.131 C 
ENDBRANCH  11  12
ENDBRANCH   7  11
ENDBRANCH   1   3
BRANCH   1  18
ATOM     17  N   UNL     1      -1.037  -3.127   2.772  0.00  0.00    -0.287 N 
ATOM     18  C   UNL     1      -0.234  -2.366   3.542  0.00  0.00    +0.203 C 
ATOM     19  O   UNL     1       0.075  -1.250   3.178  0.00  0.00    -0.277 OA
ATOM     20  H   UNL     1      -1.339  -3.991   3.093  0.00  0.00    +0.155 HD
BRANCH  17  26
ATOM     21  C   UNL     1      -0.325  -0.140  -1.067  0.00  0.00    +0.044 C 
ATOM     22  C   UNL     1      -1.110  -1.222  -0.372  0.00  0.00    -0.049 A 
ATOM     23  C   UNL     1      -2.227  -1.766  -0.981  0.00  0.00    +0.004 A 
ATOM     24  C   UNL     1      -2.949  -2.759  -0.347  0.00  0.00    +0.005 A 
ATOM     25  C   UNL     1      -2.557  -3.213   0.897  0.00  0.00    -0.029 A 
ATOM     26  C   UNL     1      -1.437  -2.670   1.512  0.00  0.00    +0.036 A 
ATOM     27  C   UNL     1      -0.710  -1.675   0.870  0.00  0.00    +0.027 A 
ATOM     28  C   UNL     1      -3.345  -4.296   1.588  0.00  0.00    +0.045 C 
ENDBRANCH  17  26
ENDBRANCH   1  18
TORSDOF 5
