REMARK  Name = ZINC03332055
REMARK  5 active torsions:
REMARK  status: ('A' for Active; 'I' for Inactive)
REMARK    1  A    between atoms: C_3  and  C_29
REMARK    2  A    between atoms: C_5  and  C_22
REMARK    3  A    between atoms: C_11  and  C_13
REMARK    4  A    between atoms: C_17  and  N_19
REMARK    5  A    between atoms: N_31  and  C_32
REMARK                            x       y       z     vdW  Elec       q    Type
REMARK                         _______ _______ _______ _____ _____    ______ ____
ROOT
ATOM      1  C   UNL     1       0.006   1.319   0.014  0.00  0.00    +0.032 C 
ATOM      2  C   UNL     1       0.015  -0.013   0.006  0.00  0.00    +0.026 C 
ATOM      3  C   UNL     1      -1.283  -0.789   0.004  0.00  0.00    +0.148 C 
ATOM      4  C   UNL     1      -1.249  -1.808  -1.148  0.00  0.00    +0.147 C 
ATOM      5  N   UNL     1       0.058  -2.466  -1.115  0.00  0.00    -0.212 N 
ATOM      6  C   UNL     1       1.195  -1.900  -0.559  0.00  0.00    +0.215 C 
ATOM      7  N   UNL     1       1.197  -0.700  -0.006  0.00  0.00    -0.330 N 
ATOM      8  N   UNL     1       2.199  -2.768  -0.703  0.00  0.00    -0.198 NA
ATOM      9  C   UNL     1       1.774  -3.855  -1.317  0.00  0.00    +0.146 C 
ATOM     10  N   UNL     1       0.435  -3.719  -1.597  0.00  0.00    -0.245 N 
ATOM     11  H   UNL     1      -0.134  -4.366  -2.042  0.00  0.00    +0.172 HD
ATOM     12  H   UNL     1       2.005  -0.323   0.378  0.00  0.00    +0.168 HD
ENDROOT
BRANCH   4  13
ATOM     13  C   UNL     1      -1.431  -1.097  -2.465  0.00  0.00    +0.011 A 
ATOM     14  C   UNL     1      -0.335  -0.819  -3.258  0.00  0.00    +0.008 A 
ATOM     15  C   UNL     1      -0.502  -0.167  -4.466  0.00  0.00    +0.000 A 
ATOM     16  C   UNL     1      -1.767   0.208  -4.881  0.00  0.00    +0.003 A 
ATOM     17  C   UNL     1      -2.865  -0.069  -4.089  0.00  0.00    +0.039 A 
ATOM     18  C   UNL     1      -2.699  -0.727  -2.882  0.00  0.00    +0.128 A 
ATOM     19  F   UNL     1      -3.772  -1.003  -2.109  0.00  0.00    -0.205 F 
ENDBRANCH   4  13
BRANCH   9  20
ATOM     20  C   UNL     1       2.602  -5.031  -1.648  0.00  0.00    +0.018 A 
ATOM     21  C   UNL     1       2.037  -6.125  -2.308  0.00  0.00    +0.011 A 
ATOM     22  C   UNL     1       2.817  -7.220  -2.615  0.00  0.00    +0.003 A 
ATOM     23  C   UNL     1       4.157  -7.236  -2.272  0.00  0.00    +0.033 A 
ATOM     24  C   UNL     1       4.724  -6.157  -1.618  0.00  0.00    +0.127 A 
ATOM     25  C   UNL     1       3.957  -5.053  -1.310  0.00  0.00    +0.044 A 
BRANCH  24  26
ATOM     26  N   UNL     1       6.159  -6.184  -1.255  0.00  0.00    +0.056 N 
ATOM     27  O   UNL     1       6.834  -7.149  -1.529  0.00  0.00    -0.126 OA
ATOM     28  O   UNL     1       6.656  -5.241  -0.684  0.00  0.00    -0.126 OA
ENDBRANCH  24  26
ENDBRANCH   9  20
BRANCH   3  29
ATOM     29  C   UNL     1      -1.442  -1.513   1.317  0.00  0.00    +0.228 C 
ATOM     30  O   UNL     1      -1.532  -2.722   1.336  0.00  0.00    -0.275 OA
ATOM     31  N   UNL     1      -1.483  -0.816   2.470  0.00  0.00    -0.285 N 
ATOM     32  H   UNL     1      -1.344   0.144   2.461  0.00  0.00    +0.155 HD
BRANCH  31  33
ATOM     33  C   UNL     1      -1.726  -1.477   3.679  0.00  0.00    +0.033 A 
ATOM     34  C   UNL     1      -2.467  -0.855   4.675  0.00  0.00    +0.023 A 
ATOM     35  C   UNL     1      -2.706  -1.510   5.867  0.00  0.00    +0.002 A 
ATOM     36  C   UNL     1      -2.208  -2.784   6.069  0.00  0.00    +0.000 A 
ATOM     37  C   UNL     1      -1.470  -3.406   5.079  0.00  0.00    +0.002 A 
ATOM     38  C   UNL     1      -1.233  -2.759   3.882  0.00  0.00    +0.023 A 
ENDBRANCH  31  33
ENDBRANCH   3  29
TORSDOF 5
