REMARK  Name = ZINC12326986
REMARK  2 active torsions:
REMARK  status: ('A' for Active; 'I' for Inactive)
REMARK    1  A    between atoms: C_1  and  N_2
REMARK    2  A    between atoms: C_13  and  C_15
REMARK                            x       y       z     vdW  Elec       q    Type
REMARK                         _______ _______ _______ _____ _____    ______ ____
ROOT
ATOM      1  C   UNL     1      -2.516   5.571  -0.390  0.00  0.00    +0.172 C 
ATOM      2  N   UNL     1      -2.229   4.149  -0.185  0.00  0.00    -0.271 N 
ATOM      3  C   UNL     1      -1.023   3.569  -0.283  0.00  0.00    +0.048 A 
ATOM      4  C   UNL     1      -1.198   2.236   0.007  0.00  0.00    +0.042 A 
ATOM      5  C   UNL     1      -2.544   2.010   0.259  0.00  0.00    +0.144 A 
ATOM      6  N   UNL     1      -3.168   3.160   0.146  0.00  0.00    -0.179 NA
ATOM      7  C   UNL     1      -0.016   1.320   0.009  0.00  0.00    +0.087 A 
ATOM      8  C   UNL     1       1.213   1.948   0.001  0.00  0.00    +0.019 A 
ATOM      9  S   UNL     1       2.330   0.578  -0.035  0.00  0.00    -0.056 S 
ATOM     10  C   UNL     1       1.133  -0.684  -0.024  0.00  0.00    +0.165 A 
ATOM     11  N   UNL     1       0.002  -0.004   0.002  0.00  0.00    -0.224 NA
ATOM     12  N   UNL     1       1.320  -2.060  -0.039  0.00  0.00    -0.261 N 
ATOM     13  C   UNL     1       0.254  -2.885  -0.027  0.00  0.00    +0.250 C 
ATOM     14  O   UNL     1      -0.872  -2.424  -0.003  0.00  0.00    -0.270 OA
ATOM     15  C   UNL     1       1.455   3.414   0.029  0.00  0.00    +0.051 C 
ATOM     16  C   UNL     1       0.306   4.180  -0.636  0.00  0.00    +0.061 C 
ATOM     17  H   UNL     1       2.217  -2.427  -0.058  0.00  0.00    +0.157 HD
ENDROOT
BRANCH  13  18
ATOM     18  C   UNL     1       0.452  -4.343  -0.043  0.00  0.00    +0.047 A 
ATOM     19  C   UNL     1       1.717  -4.888  -0.076  0.00  0.00    +0.058 A 
ATOM     20  S   UNL     1       1.413  -6.594  -0.079  0.00  0.00    -0.101 S 
ATOM     21  C   UNL     1      -0.357  -6.566  -0.047  0.00  0.00    -0.006 A 
ATOM     22  C   UNL     1      -0.678  -5.252  -0.031  0.00  0.00    -0.025 A 
ATOM     23  C   UNL     1      -2.133  -4.801  -0.002  0.00  0.00    +0.037 C 
ATOM     24  C   UNL     1      -3.018  -5.964  -0.453  0.00  0.00    +0.005 C 
ATOM     25  C   UNL     1      -2.692  -7.216   0.368  0.00  0.00    +0.005 C 
ATOM     26  C   UNL     1      -1.303  -7.727  -0.039  0.00  0.00    +0.043 C 
ENDBRANCH  13  18
TORSDOF 1
