REMARK  Name = ZINC08975556
REMARK  2 active torsions:
REMARK  status: ('A' for Active; 'I' for Inactive)
REMARK    1  A    between atoms: C_1  and  S_2
REMARK    2  A    between atoms: S_2  and  C_5
REMARK                            x       y       z     vdW  Elec       q    Type
REMARK                         _______ _______ _______ _____ _____    ______ ____
ROOT
ATOM      1  C   UNL     1       2.402  -0.004  -0.021  0.00  0.00    +0.114 A 
ATOM      2  C   UNL     1       2.374   1.367  -0.012  0.00  0.00    +0.029 A 
ATOM      3  C   UNL     1       1.177   2.067   0.002  0.00  0.00    +0.003 A 
ATOM      4  C   UNL     1      -0.017   1.368   0.010  0.00  0.00    +0.017 A 
ATOM      5  C   UNL     1       0.002  -0.004   0.002  0.00  0.00    +0.043 A 
ATOM      6  C   UNL     1       1.202  -0.751  -0.013  0.00  0.00    +0.105 A 
ATOM      7  N   UNL     1       1.056  -2.094  -0.019  0.00  0.00    -0.223 NA
ATOM      8  C   UNL     1      -0.122  -2.675  -0.011  0.00  0.00    +0.162 A 
ATOM      9  S   UNL     1      -1.236  -1.278   0.007  0.00  0.00    -0.052 S 
ATOM     10  N   UNL     1      -0.423  -4.022  -0.015  0.00  0.00    -0.307 N 
ATOM     11  C   UNL     1       0.196  -4.697  -1.164  0.00  0.00    +0.126 C 
ATOM     12  C   UNL     1      -0.094  -6.198  -1.088  0.00  0.00    +0.126 C 
ATOM     13  N   UNL     1      -1.548  -6.413  -1.075  0.00  0.00    -0.307 N 
ATOM     14  C   UNL     1      -2.167  -5.738   0.074  0.00  0.00    +0.126 C 
ATOM     15  C   UNL     1      -1.877  -4.237  -0.002  0.00  0.00    +0.126 C 
ATOM     16  C   UNL     1      -1.849  -7.760  -1.079  0.00  0.00    +0.162 A 
ATOM     17  N   UNL     1      -1.481  -8.684  -1.937  0.00  0.00    -0.225 NA
ATOM     18  C   UNL     1      -1.853  -9.977  -1.814  0.00  0.00    +0.080 A 
ATOM     19  C   UNL     1      -1.529 -11.062  -2.660  0.00  0.00    +0.030 A 
ATOM     20  C   UNL     1      -1.993 -12.324  -2.392  0.00  0.00    +0.022 A 
ATOM     21  C   UNL     1      -2.793 -12.582  -1.286  0.00  0.00    +0.042 A 
ATOM     22  C   UNL     1      -3.129 -11.542  -0.437  0.00  0.00    +0.037 A 
ATOM     23  C   UNL     1      -2.669 -10.277  -0.700  0.00  0.00    +0.042 A 
ATOM     24  S   UNL     1      -2.832  -8.692   0.087  0.00  0.00    -0.052 S 
ATOM     25 CL   UNL     1      -3.364 -14.191  -0.973  0.00  0.00    -0.084 Cl
ENDROOT
BRANCH   1  27
ATOM     26  C   UNL     1       4.022  -1.726   1.544  0.00  0.00    +0.200 C 
ATOM     27  S   UNL     1       3.951  -0.844  -0.039  0.00  0.00    -0.004 S 
ATOM     28  O   UNL     1       3.848  -1.770  -1.111  0.00  0.00    -0.170 OA
ATOM     29  O   UNL     1       4.924   0.191  -0.067  0.00  0.00    -0.170 OA
ENDBRANCH   1  27
TORSDOF 1
