REMARK  Name = ZINC13397698
REMARK  2 active torsions:
REMARK  status: ('A' for Active; 'I' for Inactive)
REMARK    1  A    between atoms: C_3  and  N_9
REMARK    2  A    between atoms: C_25  and  C_28
REMARK                            x       y       z     vdW  Elec       q    Type
REMARK                         _______ _______ _______ _____ _____    ______ ____
ROOT
ATOM      1  N   UNL     1      -1.649   4.110  -2.942  0.00  0.00    -0.268 N 
ATOM      2  C   UNL     1      -1.720   4.116  -1.597  0.00  0.00    +0.309 C 
ATOM      3  O   UNL     1      -2.138   5.098  -1.014  0.00  0.00    -0.252 OA
ATOM      4  N   UNL     1      -1.327   3.033  -0.896  0.00  0.00    -0.255 N 
ATOM      5  C   UNL     1      -0.762   1.778  -1.440  0.00  0.00    +0.140 C 
ATOM      6  C   UNL     1      -0.018   1.181  -0.219  0.00  0.00    +0.181 C 
ATOM      7  O   UNL     1      -0.878   1.548   0.884  0.00  0.00    -0.354 OA
ATOM      8  C   UNL     1      -1.373   2.860   0.563  0.00  0.00    +0.142 C 
ATOM      9  C   UNL     1      -2.814   3.003   1.054  0.00  0.00    +0.074 C 
ATOM     10  C   UNL     1      -3.308   4.423   0.763  0.00  0.00    +0.111 C 
ATOM     11  N   UNL     1      -2.435   5.393   1.437  0.00  0.00    -0.314 N 
ATOM     12  C   UNL     1      -1.057   5.306   0.938  0.00  0.00    +0.111 C 
ATOM     13  C   UNL     1      -0.492   3.915   1.235  0.00  0.00    +0.074 C 
ATOM     14  C   UNL     1      -2.933   6.685   1.307  0.00  0.00    +0.140 A 
ATOM     15  C   UNL     1      -3.802   7.190   2.270  0.00  0.00    +0.081 A 
ATOM     16  C   UNL     1      -4.285   8.479   2.131  0.00  0.00    +0.037 A 
ATOM     17  C   UNL     1      -3.889   9.219   1.024  0.00  0.00    +0.074 A 
ATOM     18  C   UNL     1      -3.028   8.653   0.105  0.00  0.00    +0.125 A 
ATOM     19  N   UNL     1      -2.579   7.422   0.266  0.00  0.00    -0.238 NA
ATOM     20 CL   UNL     1      -4.270   6.218   3.631  0.00  0.00    -0.080 Cl
ATOM     21  H   UNL     1      -1.340   3.197  -3.473  0.00  0.00    +0.156 HD
ENDROOT
BRANCH   1  24
ATOM     22  C   UNL     1      -3.282   7.255  -3.929  0.00  0.00    +0.022 A 
ATOM     23  C   UNL     1      -2.969   6.114  -3.214  0.00  0.00    +0.026 A 
ATOM     24  C   UNL     1      -1.968   5.266  -3.666  0.00  0.00    +0.053 A 
ATOM     25  C   UNL     1      -1.279   5.568  -4.834  0.00  0.00    +0.064 A 
ATOM     26  C   UNL     1      -1.600   6.707  -5.548  0.00  0.00    +0.041 A 
ATOM     27  C   UNL     1      -2.598   7.551  -5.094  0.00  0.00    +0.042 A 
ATOM     28 CL   UNL     1      -2.994   8.985  -5.989  0.00  0.00    -0.083 Cl
ATOM     29 CL   UNL     1      -0.022   4.513  -5.400  0.00  0.00    -0.082 Cl
ENDBRANCH   1  24
BRANCH  17  30
ATOM     30  C   UNL     1      -4.393  10.625   0.828  0.00  0.00    +0.419 C 
ATOM     31  F   UNL     1      -3.855  11.154  -0.350  0.00  0.00    -0.166 F 
ATOM     32  F   UNL     1      -5.789  10.611   0.738  0.00  0.00    -0.166 F 
ATOM     33  F   UNL     1      -4.004  11.416   1.914  0.00  0.00    -0.166 F 
ENDBRANCH  17  30
TORSDOF 2
