REMARK  Name = ZINC58999878
REMARK  5 active torsions:
REMARK  status: ('A' for Active; 'I' for Inactive)
REMARK    1  A    between atoms: C_1  and  C_2
REMARK    2  A    between atoms: C_4  and  N_21
REMARK    3  A    between atoms: C_6  and  C_7
REMARK    4  A    between atoms: N_9  and  C_10
REMARK    5  A    between atoms: C_22  and  C_24
REMARK                            x       y       z     vdW  Elec       q    Type
REMARK                         _______ _______ _______ _____ _____    ______ ____
ROOT
ATOM      1  C   UNL     1      -0.549   1.498   0.057  0.00  0.00    +0.045 C 
ATOM      2  C   UNL     1      -0.318   0.009   0.025  0.00  0.00    -0.029 A 
ATOM      3  C   UNL     1      -0.263  -0.693  -1.150  0.00  0.00    +0.035 A 
ATOM      4  C   UNL     1      -0.049  -2.051  -1.098  0.00  0.00    +0.073 A 
ATOM      5  S   UNL     1       0.080  -2.382   0.544  0.00  0.00    -0.069 S 
ATOM      6  C   UNL     1      -0.141  -0.734   1.185  0.00  0.00    +0.079 A 
ENDROOT
BRANCH   6   7
ATOM      7  C   UNL     1      -0.139  -0.294   2.534  0.00  0.00    +0.255 C 
ATOM      8  O   UNL     1      -0.309   0.884   2.790  0.00  0.00    -0.269 OA
ATOM      9  N   UNL     1       0.052  -1.180   3.531  0.00  0.00    -0.281 N 
ATOM     10  H   UNL     1       0.111  -2.128   3.333  0.00  0.00    +0.155 HD
BRANCH   9  11
ATOM     11  C   UNL     1       0.165  -0.733   4.853  0.00  0.00    +0.037 A 
ATOM     12  C   UNL     1      -0.311  -1.519   5.894  0.00  0.00    +0.027 A 
ATOM     13  C   UNL     1      -0.201  -1.081   7.201  0.00  0.00    +0.051 A 
ATOM     14  C   UNL     1       0.386   0.144   7.470  0.00  0.00    +0.162 A 
ATOM     15  C   UNL     1       0.863   0.932   6.431  0.00  0.00    +0.164 A 
ATOM     16  C   UNL     1       0.758   0.494   5.122  0.00  0.00    +0.072 A 
ATOM     17  O   UNL     1       1.440   2.137   6.709  0.00  0.00    -0.488 OA
ATOM     18  C   UNL     1       0.565   3.148   7.213  0.00  0.00    +0.232 C 
ATOM     19  C   UNL     1       0.391   3.010   8.717  0.00  0.00    +0.082 C 
ATOM     20  C   UNL     1      -0.304   1.715   9.104  0.00  0.00    +0.232 C 
ATOM     21  O   UNL     1       0.499   0.585   8.757  0.00  0.00    -0.488 OA
ENDBRANCH   9  11
ENDBRANCH   6   7
BRANCH   4  22
ATOM     22  N   UNL     1       0.041  -2.943  -2.159  0.00  0.00    -0.276 N 
ATOM     23  C   UNL     1       0.256  -4.252  -1.922  0.00  0.00    +0.250 C 
ATOM     24  O   UNL     1       0.373  -4.652  -0.780  0.00  0.00    -0.270 OA
ATOM     25  H   UNL     1      -0.052  -2.624  -3.070  0.00  0.00    +0.156 HD
BRANCH  23  26
ATOM     26  C   UNL     1       0.351  -5.200  -3.049  0.00  0.00    +0.055 A 
ATOM     27  C   UNL     1       0.224  -4.742  -4.363  0.00  0.00    +0.017 A 
ATOM     28  C   UNL     1       0.313  -5.632  -5.412  0.00  0.00    +0.039 A 
ATOM     29  C   UNL     1       0.529  -6.980  -5.166  0.00  0.00    +0.125 A 
ATOM     30  C   UNL     1       0.657  -7.441  -3.865  0.00  0.00    +0.059 A 
ATOM     31  C   UNL     1       0.575  -6.559  -2.807  0.00  0.00    +0.056 A 
ATOM     32 CL   UNL     1       0.742  -7.136  -1.178  0.00  0.00    -0.083 Cl
ATOM     33  F   UNL     1       0.616  -7.847  -6.198  0.00  0.00    -0.205 F 
ENDBRANCH  23  26
ENDBRANCH   4  22
TORSDOF 4
