REMARK  Name = ZINC40213093
REMARK  12 active torsions:
REMARK  status: ('A' for Active; 'I' for Inactive)
REMARK    1  A    between atoms: C_5  and  C_7
REMARK    2  A    between atoms: N_9  and  C_10
REMARK    3  A    between atoms: C_10  and  C_11
REMARK    4  A    between atoms: C_11  and  C_12
REMARK    5  A    between atoms: C_12  and  C_13
REMARK    6  A    between atoms: C_13  and  C_14
REMARK    7  A    between atoms: C_14  and  C_15
REMARK    8  A    between atoms: N_23  and  C_24
REMARK    9  A    between atoms: C_24  and  C_25
REMARK   10  A    between atoms: C_25  and  C_26
REMARK   11  A    between atoms: C_26  and  O_27
REMARK   12  A    between atoms: O_27  and  C_28
REMARK                            x       y       z     vdW  Elec       q    Type
REMARK                         _______ _______ _______ _____ _____    ______ ____
ROOT
ATOM      1  C   UNL     1      -4.097  -8.982  -0.007  0.00  0.00    +0.111 A 
ATOM      2  N   UNL     1      -4.786  -9.244   1.065  0.00  0.00    -0.232 NA
ATOM      3  C   UNL     1      -6.016  -9.703   0.717  0.00  0.00    +0.089 A 
ATOM      4  C   UNL     1      -7.130 -10.124   1.447  0.00  0.00    +0.030 A 
ATOM      5  C   UNL     1      -8.254 -10.543   0.793  0.00  0.00    +0.002 A 
ATOM      6  C   UNL     1      -8.303 -10.557  -0.593  0.00  0.00    +0.002 A 
ATOM      7  C   UNL     1      -7.215 -10.146  -1.335  0.00  0.00    +0.028 A 
ATOM      8  C   UNL     1      -6.064  -9.716  -0.688  0.00  0.00    +0.069 A 
ATOM      9  N   UNL     1      -4.838  -9.249  -1.116  0.00  0.00    -0.327 N 
ENDROOT
BRANCH   1  10
ATOM     10  C   UNL     1      -2.686  -8.453  -0.018  0.00  0.00    +0.074 C 
BRANCH  10  11
ATOM     11  C   UNL     1      -2.714  -6.923  -0.009  0.00  0.00    +0.008 C 
BRANCH  11  12
ATOM     12  C   UNL     1      -1.282  -6.387  -0.021  0.00  0.00    +0.002 C 
BRANCH  12  13
ATOM     13  C   UNL     1      -1.310  -4.857  -0.011  0.00  0.00    +0.019 C 
BRANCH  13  14
ATOM     14  C   UNL     1       0.123  -4.320  -0.023  0.00  0.00    +0.104 C 
BRANCH  14  17
ATOM     15  C   UNL     1       1.250  -2.160  -0.022  0.00  0.00    +0.247 C 
ATOM     16  O   UNL     1       2.314  -2.748  -0.036  0.00  0.00    -0.270 OA
ATOM     17  N   UNL     1       0.095  -2.855  -0.014  0.00  0.00    -0.311 N 
ATOM     18  H   UNL     1      -0.753  -2.386  -0.003  0.00  0.00    +0.149 HD
BRANCH  15  23
ATOM     19  C   UNL     1      -0.017   1.374   0.010  0.00  0.00    +0.001 A 
ATOM     20  C   UNL     1       1.170   2.087   0.002  0.00  0.00    +0.003 A 
ATOM     21  C   UNL     1       2.383   1.425  -0.013  0.00  0.00    +0.039 A 
ATOM     22  C   UNL     1       2.418   0.042  -0.021  0.00  0.00    +0.135 A 
ATOM     23  C   UNL     1       1.222  -0.683  -0.013  0.00  0.00    +0.072 A 
ATOM     24  C   UNL     1       0.002  -0.004   0.002  0.00  0.00    +0.016 A 
ATOM     25  F   UNL     1       3.603  -0.606  -0.037  0.00  0.00    -0.205 F 
ENDBRANCH  15  23
ENDBRANCH  14  17
ENDBRANCH  13  14
ENDBRANCH  12  13
ENDBRANCH  11  12
ENDBRANCH  10  11
ENDBRANCH   1  10
BRANCH   9  26
ATOM     26  C   UNL     1      -4.412  -9.076  -2.507  0.00  0.00    +0.127 C 
BRANCH  26  27
ATOM     27  C   UNL     1      -3.758 -10.366  -3.004  0.00  0.00    +0.062 C 
BRANCH  27  28
ATOM     28  C   UNL     1      -3.313 -10.185  -4.457  0.00  0.00    +0.231 C 
BRANCH  28  29
ATOM     29  O   UNL     1      -2.702 -11.390  -4.922  0.00  0.00    -0.490 OA
BRANCH  29  30
ATOM     30  C   UNL     1      -2.248 -11.398  -6.203  0.00  0.00    +0.139 A 
ATOM     31  C   UNL     1      -2.383 -10.267  -6.994  0.00  0.00    +0.047 A 
ATOM     32  C   UNL     1      -1.920 -10.277  -8.296  0.00  0.00    +0.004 A 
ATOM     33  C   UNL     1      -1.323 -11.413  -8.811  0.00  0.00    +0.002 A 
ATOM     34  C   UNL     1      -1.188 -12.542  -8.025  0.00  0.00    +0.023 A 
ATOM     35  C   UNL     1      -1.643 -12.536  -6.720  0.00  0.00    +0.083 A 
ATOM     36 CL   UNL     1      -1.466 -13.951  -5.731  0.00  0.00    -0.080 Cl
ENDBRANCH  29  30
ENDBRANCH  28  29
ENDBRANCH  27  28
ENDBRANCH  26  27
ENDBRANCH   9  26
TORSDOF 12
