REMARK  Name = ZINC36557250
REMARK  8 active torsions:
REMARK  status: ('A' for Active; 'I' for Inactive)
REMARK    1  A    between atoms: C_1  and  C_2
REMARK    2  A    between atoms: C_2  and  O_4
REMARK    3  A    between atoms: O_4  and  C_5
REMARK    4  A    between atoms: C_8  and  C_13
REMARK    5  A    between atoms: C_10  and  O_11
REMARK    6  A    between atoms: O_11  and  C_12
REMARK    7  A    between atoms: C_24  and  S_29
REMARK    8  A    between atoms: S_29  and  N_32
REMARK                            x       y       z     vdW  Elec       q    Type
REMARK                         _______ _______ _______ _____ _____    ______ ____
ROOT
ATOM      1  C   UNL     1       0.063  -6.273  -0.561  0.00  0.00    +0.105 C 
ATOM      2  C   UNL     1       1.414  -6.728  -0.037  0.00  0.00    +0.029 C 
ATOM      3  C   UNL     1       2.654  -6.297  -0.831  0.00  0.00    +0.033 C 
ATOM      4  C   UNL     1       3.716  -6.235   0.268  0.00  0.00    -0.030 C 
ATOM      5  C   UNL     1       3.141  -6.009   1.443  0.00  0.00    -0.023 C 
ATOM      6  C   UNL     1       1.663  -5.890   1.252  0.00  0.00    +0.049 C 
ATOM      7  C   UNL     1       0.682  -6.322   2.271  0.00  0.00    -0.018 A 
ATOM      8  C   UNL     1       0.984  -6.373   3.615  0.00  0.00    +0.034 A 
ATOM      9  C   UNL     1       0.027  -6.771   4.530  0.00  0.00    +0.109 A 
ATOM     10  C   UNL     1      -1.240  -7.121   4.098  0.00  0.00    +0.030 A 
ATOM     11  C   UNL     1      -1.550  -7.079   2.754  0.00  0.00    +0.025 A 
ATOM     12  C   UNL     1      -0.594  -6.686   1.825  0.00  0.00    +0.031 A 
ATOM     13  N   UNL     1      -0.923  -6.686   0.461  0.00  0.00    -0.336 N 
ATOM     14  H   UNL     1      -1.811  -6.961   0.183  0.00  0.00    +0.147 HD
ENDROOT
BRANCH   1  18
ATOM     15  C   UNL     1       0.014  -2.021  -1.020  0.00  0.00    +0.173 A 
ATOM     16  C   UNL     1      -0.393  -2.597   0.173  0.00  0.00    +0.050 A 
ATOM     17  C   UNL     1      -0.375  -3.971   0.319  0.00  0.00    +0.009 A 
ATOM     18  C   UNL     1       0.047  -4.775  -0.725  0.00  0.00    -0.023 A 
ATOM     19  C   UNL     1       0.454  -4.207  -1.917  0.00  0.00    +0.055 A 
ATOM     20  C   UNL     1       0.433  -2.830  -2.072  0.00  0.00    +0.163 A 
BRANCH  20  21
ATOM     21  O   UNL     1       0.828  -2.270  -3.247  0.00  0.00    -0.491 OA
ATOM     22  C   UNL     1       1.246  -3.162  -4.282  0.00  0.00    +0.277 C 
ENDBRANCH  20  21
BRANCH  15  23
ATOM     23  O   UNL     1      -0.003  -0.669  -1.165  0.00  0.00    -0.422 OA
BRANCH  23  25
ATOM     24  C   UNL     1      -1.206   1.393  -1.797  0.00  0.00    +0.136 C 
ATOM     25  C   UNL     1      -1.089  -0.108  -1.719  0.00  0.00    +0.309 C 
ATOM     26  O   UNL     1      -1.974  -0.806  -2.156  0.00  0.00    -0.251 OA
ENDBRANCH  23  25
ENDBRANCH  15  23
ENDBRANCH   1  18
BRANCH   9  27
ATOM     27  S   UNL     1       0.422  -6.835   6.246  0.00  0.00    +0.075 S 
ATOM     28  O   UNL     1      -0.480  -7.761   6.836  0.00  0.00    -0.150 OA
ATOM     29  O   UNL     1       1.832  -6.984   6.333  0.00  0.00    -0.150 OA
BRANCH  27  30
ATOM     30  N   UNL     1       0.062  -5.351   6.886  0.00  0.00    -0.202 N 
ATOM     31  C   UNL     1       0.993  -4.222   6.963  0.00  0.00    +0.136 C 
ATOM     32  C   UNL     1       0.197  -3.088   7.630  0.00  0.00    +0.058 C 
ATOM     33  C   UNL     1      -1.169  -3.684   7.888  0.00  0.00    -0.023 A 
ATOM     34  C   UNL     1      -1.174  -4.991   7.426  0.00  0.00    +0.054 A 
ATOM     35  C   UNL     1      -2.340  -5.750   7.551  0.00  0.00    +0.025 A 
ATOM     36  C   UNL     1      -3.468  -5.200   8.121  0.00  0.00    +0.002 A 
ATOM     37  C   UNL     1      -3.454  -3.894   8.574  0.00  0.00    +0.000 A 
ATOM     38  C   UNL     1      -2.301  -3.140   8.463  0.00  0.00    +0.005 A 
ENDBRANCH  27  30
ENDBRANCH   9  27
TORSDOF 6
