REMARK  Name = ZINC12456957
REMARK  7 active torsions:
REMARK  status: ('A' for Active; 'I' for Inactive)
REMARK    1  A    between atoms: C_4  and  C_6
REMARK    2  A    between atoms: C_6  and  N_53
REMARK    3  A    between atoms: C_7  and  C_8
REMARK    4  A    between atoms: C_7  and  N_53
REMARK    5  A    between atoms: C_17  and  O_18
REMARK    6  A    between atoms: O_18  and  C_19
REMARK    7  A    between atoms: C_19  and  C_20
REMARK                            x       y       z     vdW  Elec       q    Type
REMARK                         _______ _______ _______ _____ _____    ______ ____
ROOT
ATOM      1  C   UNL     1       5.997   3.410   0.028  0.00  0.00    -0.002 A 
ATOM      2  C   UNL     1       5.451   2.201  -0.294  0.00  0.00    +0.017 A 
ATOM      3  C   UNL     1       4.054   2.054  -0.201  0.00  0.00    +0.005 A 
ATOM      4  C   UNL     1       3.428   0.837  -0.516  0.00  0.00    +0.059 A 
ATOM      5  C   UNL     1       2.072   0.725  -0.415  0.00  0.00    +0.167 A 
ATOM      6  C   UNL     1       1.293   1.819  -0.001  0.00  0.00    +0.168 A 
ATOM      7  C   UNL     1       1.877   3.013   0.311  0.00  0.00    +0.078 A 
ATOM      8  C   UNL     1       3.271   3.157   0.218  0.00  0.00    +0.079 A 
ATOM      9  N   UNL     1       3.864   4.318   0.521  0.00  0.00    -0.213 NA
ATOM     10  C   UNL     1       5.169   4.461   0.437  0.00  0.00    +0.217 A 
ATOM     11  O   UNL     1      -0.017   1.435   0.010  0.00  0.00    -0.453 OA
ATOM     12  C   UNL     1       0.002  -0.004   0.002  0.00  0.00    +0.466 C 
ATOM     13  O   UNL     1       1.239  -0.330  -0.658  0.00  0.00    -0.453 OA
ENDROOT
BRANCH   1  14
ATOM     14  C   UNL     1       7.488   3.611  -0.057  0.00  0.00    -0.041 C 
BRANCH  14  15
ATOM     15  N   UNL     1       8.068   3.499   1.295  0.00  0.00    +0.386 N 
ATOM     16  H   UNL     1       7.653   4.215   1.902  0.00  0.00    -0.085 HD
ATOM     17  H   UNL     1       7.863   2.567   1.675  0.00  0.00    -0.085 HD
BRANCH  15  18
ATOM     18  C   UNL     1       9.529   3.692   1.242  0.00  0.00    -0.018 C 
BRANCH  18  22
ATOM     19  C   UNL     1      10.998   2.567   4.487  0.00  0.00    +0.118 A 
ATOM     20  C   UNL     1      11.021   3.774   5.106  0.00  0.00    +0.066 A 
ATOM     21  S   UNL     1      10.333   4.813   3.825  0.00  0.00    -0.082 S 
ATOM     22  C   UNL     1      10.094   3.572   2.634  0.00  0.00    +0.061 A 
ATOM     23  N   UNL     1      10.525   2.502   3.260  0.00  0.00    -0.254 NA
ENDBRANCH  18  22
ENDBRANCH  15  18
ENDBRANCH  14  15
ENDBRANCH   1  14
BRANCH  10  24
ATOM     24  O   UNL     1       5.726   5.656   0.754  0.00  0.00    -0.476 OA
BRANCH  24  25
ATOM     25  C   UNL     1       4.838   6.697   1.165  0.00  0.00    +0.234 C 
BRANCH  25  26
ATOM     26  C   UNL     1       5.642   7.960   1.479  0.00  0.00    +0.027 C 
ATOM     27  C   UNL     1       6.548   7.702   2.684  0.00  0.00    +0.007 C 
ATOM     28  C   UNL     1       7.353   8.965   2.997  0.00  0.00    +0.000 C 
ATOM     29  C   UNL     1       6.395  10.114   3.317  0.00  0.00    +0.000 C 
ATOM     30  C   UNL     1       5.489  10.372   2.112  0.00  0.00    +0.000 C 
ATOM     31  C   UNL     1       4.684   9.109   1.798  0.00  0.00    +0.007 C 
ENDBRANCH  25  26
ENDBRANCH  24  25
ENDBRANCH  10  24
TORSDOF 7
