REMARK  Name = ZINC33257581
REMARK  8 active torsions:
REMARK  status: ('A' for Active; 'I' for Inactive)
REMARK    1  A    between atoms: C_1  and  C_2
REMARK    2  A    between atoms: C_7  and  N_8
REMARK    3  A    between atoms: N_11  and  C_12
REMARK    4  A    between atoms: C_16  and  C_18
REMARK    5  A    between atoms: C_20  and  C_23
REMARK    6  A    between atoms: C_26  and  C_33
REMARK    7  A    between atoms: C_27  and  N_29
REMARK    8  A    between atoms: C_30  and  C_32
REMARK                            x       y       z     vdW  Elec       q    Type
REMARK                         _______ _______ _______ _____ _____    ______ ____
ROOT
ATOM      1  C   UNL     1      -2.904   3.239   0.228  0.00  0.00    +0.035 A 
ATOM      2  C   UNL     1      -2.621   1.883   0.120  0.00  0.00    +0.023 A 
ATOM      3  C   UNL     1      -3.645   0.971  -0.048  0.00  0.00    +0.002 A 
ATOM      4  C   UNL     1      -4.955   1.401  -0.109  0.00  0.00    +0.012 A 
ATOM      5  C   UNL     1      -5.249   2.759  -0.002  0.00  0.00    +0.024 A 
ATOM      6  C   UNL     1      -4.218   3.679   0.173  0.00  0.00    +0.035 A 
ENDROOT
BRANCH   1  10
ATOM      7  N   UNL     1      -0.908   6.236  -0.077  0.00  0.00    -0.269 N 
ATOM      8  C   UNL     1      -1.946   5.381  -0.166  0.00  0.00    +0.308 C 
ATOM      9  O   UNL     1      -2.959   5.713  -0.752  0.00  0.00    -0.252 OA
ATOM     10  N   UNL     1      -1.864   4.160   0.399  0.00  0.00    -0.269 N 
ATOM     11  H   UNL     1      -0.031   5.974   0.532  0.00  0.00    +0.156 HD
ATOM     12  H   UNL     1      -0.980   3.888   0.994  0.00  0.00    +0.156 HD
BRANCH   7  19
ATOM     13  C   UNL     1       0.680   8.379   0.913  0.00  0.00    +0.045 C 
ATOM     14  C   UNL     1      -0.187   8.529  -0.310  0.00  0.00    -0.029 A 
ATOM     15  C   UNL     1      -0.227   9.733  -0.986  0.00  0.00    +0.005 A 
ATOM     16  C   UNL     1      -1.022   9.871  -2.109  0.00  0.00    +0.000 A 
ATOM     17  C   UNL     1      -1.779   8.805  -2.559  0.00  0.00    +0.002 A 
ATOM     18  C   UNL     1      -1.740   7.598  -1.890  0.00  0.00    +0.023 A 
ATOM     19  C   UNL     1      -0.947   7.457  -0.759  0.00  0.00    +0.038 A 
ENDBRANCH   7  19
ENDBRANCH   1  10
BRANCH   5  20
ATOM     20  C   UNL     1      -6.657   3.223  -0.068  0.00  0.00    +0.202 A 
ATOM     21  N   UNL     1      -7.748   2.446  -0.228  0.00  0.00    -0.187 NA
ATOM     22  C   UNL     1      -8.775   3.275  -0.228  0.00  0.00    +0.259 A 
ATOM     23  O   UNL     1      -8.278   4.511  -0.070  0.00  0.00    -0.332 OA
ATOM     24  N   UNL     1      -7.070   4.462   0.024  0.00  0.00    -0.056 NA
BRANCH  22  25
ATOM     25  C   UNL     1     -10.201   2.911  -0.374  0.00  0.00    +0.041 A 
ATOM     26  C   UNL     1     -10.569   1.574  -0.537  0.00  0.00    +0.013 A 
ATOM     27  C   UNL     1     -11.901   1.236  -0.667  0.00  0.00    +0.006 A 
ATOM     28  C   UNL     1     -12.873   2.219  -0.648  0.00  0.00    -0.029 A 
ATOM     29  C   UNL     1     -12.516   3.553  -0.492  0.00  0.00    +0.037 A 
ATOM     30  C   UNL     1     -11.181   3.902  -0.355  0.00  0.00    +0.036 A 
ATOM     31  C   UNL     1     -14.325   1.843  -0.797  0.00  0.00    +0.045 C 
BRANCH  29  32
ATOM     32  N   UNL     1     -13.504   4.544  -0.474  0.00  0.00    -0.285 N 
ATOM     33  C   UNL     1     -13.276   5.712   0.160  0.00  0.00    +0.214 C 
ATOM     34  O   UNL     1     -12.188   5.934   0.649  0.00  0.00    -0.276 OA
ATOM     35  C   UNL     1     -14.372   6.741   0.261  0.00  0.00    +0.109 C 
ATOM     36  H   UNL     1     -14.466   4.371  -0.978  0.00  0.00    +0.155 HD
ENDBRANCH  29  32
ENDBRANCH  22  25
ENDBRANCH   5  20
TORSDOF 5
