REMARK  Name = ZINC20527363
REMARK  8 active torsions:
REMARK  status: ('A' for Active; 'I' for Inactive)
REMARK    1  A    between atoms: C_3  and  N_8
REMARK    2  A    between atoms: C_9  and  C_11
REMARK    3  A    between atoms: C_11  and  S_12
REMARK    4  A    between atoms: S_12  and  C_13
REMARK    5  A    between atoms: N_17  and  N_18
REMARK    6  A    between atoms: N_19  and  N_20
REMARK    7  A    between atoms: C_21  and  C_22
REMARK    8  A    between atoms: C_24  and  N_29
REMARK                            x       y       z     vdW  Elec       q    Type
REMARK                         _______ _______ _______ _____ _____    ______ ____
ROOT
ATOM      1  C   UNL     1      -5.137   0.319  -0.178  0.00  0.00    +0.210 A 
ATOM      2  N   UNL     1      -4.904  -0.985   0.069  0.00  0.00    -0.119 NA
ATOM      3  N   UNL     1      -6.021  -1.620   0.126  0.00  0.00    -0.109 NA
ATOM      4  C   UNL     1      -7.037  -0.765  -0.092  0.00  0.00    +0.254 A 
ATOM      5  N   UNL     1      -6.489   0.479  -0.288  0.00  0.00    -0.211 N 
ATOM      6  N   UNL     1      -8.339  -1.071  -0.114  0.00  0.00    -0.204 N 
ATOM      7  H   UNL     1      -9.085  -0.285  -0.304  0.00  0.00    +0.177 HD
ENDROOT
BRANCH   5   8
ATOM      8  N   UNL     1      -7.161   1.641  -0.542  0.00  0.00    -0.294 N 
ATOM      9  H   UNL     1      -8.259   1.639  -0.607  0.00  0.00    +0.163 HD
ATOM     10  H   UNL     1      -6.604   2.579  -0.682  0.00  0.00    +0.163 HD
ENDBRANCH   5   8
BRANCH   6  11
ATOM     11  N   UNL     1      -8.720  -2.287   0.087  0.00  0.00    -0.187 NA
ATOM     12  C   UNL     1     -10.002  -2.587   0.066  0.00  0.00    +0.142 C 
BRANCH  12  13
ATOM     13  C   UNL     1     -10.420  -3.923   0.287  0.00  0.00    +0.043 A 
ATOM     14  C   UNL     1     -11.787  -4.250   0.265  0.00  0.00    +0.046 A 
ATOM     15  C   UNL     1     -12.183  -5.538   0.479  0.00  0.00    +0.127 A 
ATOM     16  C   UNL     1     -11.244  -6.535   0.719  0.00  0.00    +0.036 A 
ATOM     17  C   UNL     1      -9.896  -6.238   0.745  0.00  0.00    +0.054 A 
ATOM     18  C   UNL     1      -9.467  -4.937   0.525  0.00  0.00    +0.188 A 
ATOM     19  O   UNL     1      -8.145  -4.641   0.544  0.00  0.00    -0.287 OA
BRANCH  15  20
ATOM     20  N   UNL     1     -13.623  -5.878   0.455  0.00  0.00    +0.056 N 
ATOM     21  O   UNL     1     -14.517  -4.938   0.228  0.00  0.00    -0.126 OA
ATOM     22  O   UNL     1     -14.011  -7.119   0.661  0.00  0.00    -0.126 OA
ENDBRANCH  15  20
ENDBRANCH  12  13
ENDBRANCH   6  11
BRANCH   1  23
ATOM     23  S   UNL     1      -3.955   1.548  -0.335  0.00  0.00    -0.075 S 
BRANCH  23  24
ATOM     24  C   UNL     1      -2.453   0.575  -0.066  0.00  0.00    +0.173 C 
BRANCH  24  26
ATOM     25  N   UNL     1      -0.011   0.966   0.007  0.00  0.00    -0.285 N 
ATOM     26  C   UNL     1      -1.248   1.475  -0.160  0.00  0.00    +0.227 C 
ATOM     27  O   UNL     1      -1.391   2.658  -0.386  0.00  0.00    -0.275 OA
ATOM     28  H   UNL     1       0.125  -0.119   0.129  0.00  0.00    +0.155 HD
BRANCH  25  31
ATOM     29  C   UNL     1       3.411   2.226  -0.464  0.00  0.00    +0.003 A 
ATOM     30  C   UNL     1       2.318   1.382  -0.478  0.00  0.00    +0.023 A 
ATOM     31  C   UNL     1       1.099   1.817   0.026  0.00  0.00    +0.034 A 
ATOM     32  C   UNL     1       0.987   3.096   0.555  0.00  0.00    +0.038 A 
ATOM     33  C   UNL     1       2.086   3.934   0.572  0.00  0.00    +0.020 A 
ATOM     34  C   UNL     1       3.297   3.499   0.063  0.00  0.00    +0.015 A 
ATOM     35 BR   UNL     1       1.934   5.676   1.292  0.00  0.00    -0.050 Br
ENDBRANCH  25  31
ENDBRANCH  24  26
ENDBRANCH  23  24
ENDBRANCH   1  23
TORSDOF 8
