REMARK  Name = ZINC39672258
REMARK  10 active torsions:
REMARK  status: ('A' for Active; 'I' for Inactive)
REMARK    1  A    between atoms: C_1  and  C_2
REMARK    2  A    between atoms: C_4  and  C_11
REMARK    3  A    between atoms: N_5  and  C_7
REMARK    4  A    between atoms: C_7  and  C_8
REMARK    5  A    between atoms: C_7  and  C_9
REMARK    6  A    between atoms: C_7  and  C_10
REMARK    7  A    between atoms: C_15  and  C_24
REMARK    8  A    between atoms: N_26  and  C_27
REMARK    9  A    between atoms: C_27  and  C_28
REMARK   10  A    between atoms: N_37  and  C_38
REMARK                            x       y       z     vdW  Elec       q    Type
REMARK                         _______ _______ _______ _____ _____    ______ ____
ROOT
ATOM      1  C   UNL     1      -0.749  -4.231  -1.287  0.00  0.00    +0.265 C 
ATOM      2  O   UNL     1      -0.978  -4.033  -2.465  0.00  0.00    -0.268 OA
ATOM      3  N   UNL     1      -0.845  -5.476  -0.781  0.00  0.00    -0.295 N 
ATOM      4  C   UNL     1      -0.737  -5.891   0.637  0.00  0.00    +0.121 C 
ATOM      5  C   UNL     1      -1.812  -6.988   0.806  0.00  0.00    +0.100 C 
ATOM      6  C   UNL     1      -2.034  -7.542  -0.611  0.00  0.00    -0.004 C 
ATOM      7  C   UNL     1      -1.089  -6.740  -1.517  0.00  0.00    +0.115 C 
ATOM      8  C   UNL     1      -3.481  -7.325  -1.043  0.00  0.00    -0.010 C 
ATOM      9  C   UNL     1      -3.690  -7.936  -2.432  0.00  0.00    -0.082 C 
ATOM     10  N   UNL     1      -3.381  -9.370  -2.390  0.00  0.00    +0.379 N 
ATOM     11  C   UNL     1      -1.963  -9.567  -2.064  0.00  0.00    -0.082 C 
ATOM     12  C   UNL     1      -1.680  -9.025  -0.660  0.00  0.00    -0.010 C 
ATOM     13  H   UNL     1      -3.951  -9.815  -1.687  0.00  0.00    -0.086 HD
ATOM     14  H   UNL     1      -3.578  -9.781  -3.290  0.00  0.00    -0.086 HD
ENDROOT
BRANCH   1  18
ATOM     15  C   UNL     1       0.798  -1.419   2.641  0.00  0.00    +0.067 C 
ATOM     16  C   UNL     1       0.306  -1.869   1.289  0.00  0.00    +0.061 A 
ATOM     17  C   UNL     1       0.071  -3.189   0.897  0.00  0.00    +0.057 A 
ATOM     18  C   UNL     1      -0.367  -3.109  -0.413  0.00  0.00    +0.124 A 
ATOM     19  N   UNL     1      -0.373  -1.781  -0.734  0.00  0.00    -0.254 N 
ATOM     20  N   UNL     1       0.017  -1.092   0.277  0.00  0.00    -0.175 NA
BRANCH  19  21
ATOM     21  C   UNL     1      -0.771  -1.228  -2.031  0.00  0.00    +0.056 C 
ATOM     22  C   UNL     1      -2.179  -1.710  -2.382  0.00  0.00    +0.036 C 
ATOM     23  C   UNL     1      -0.758   0.300  -1.959  0.00  0.00    +0.036 C 
ATOM     24  C   UNL     1       0.211  -1.696  -3.107  0.00  0.00    +0.036 C 
ENDBRANCH  19  21
ENDBRANCH   1  18
BRANCH   5  25
ATOM     25  C   UNL     1      -1.315  -8.074   1.725  0.00  0.00    +0.218 C 
ATOM     26  O   UNL     1      -0.125  -8.286   1.825  0.00  0.00    -0.275 OA
ATOM     27  N   UNL     1      -2.192  -8.808   2.437  0.00  0.00    -0.311 N 
ATOM     28  H   UNL     1      -3.146  -8.692   2.301  0.00  0.00    +0.149 HD
BRANCH  27  29
ATOM     29  C   UNL     1      -1.706  -9.783   3.417  0.00  0.00    +0.139 C 
BRANCH  29  30
ATOM     30  C   UNL     1      -2.880 -10.466   4.071  0.00  0.00    -0.030 A 
ATOM     31  C   UNL     1      -3.439  -9.930   5.217  0.00  0.00    +0.007 A 
ATOM     32  C   UNL     1      -4.513 -10.556   5.816  0.00  0.00    +0.024 A 
ATOM     33  C   UNL     1      -5.032 -11.725   5.268  0.00  0.00    +0.033 A 
ATOM     34  C   UNL     1      -4.473 -12.259   4.118  0.00  0.00    -0.026 A 
ATOM     35  C   UNL     1      -3.398 -11.622   3.521  0.00  0.00    +0.010 A 
ATOM     36  C   UNL     1      -5.016 -13.516   3.490  0.00  0.00    +0.038 C 
ATOM     37  C   UNL     1      -5.822 -14.319   4.511  0.00  0.00    +0.024 C 
ATOM     38  C   UNL     1      -6.853 -13.392   5.168  0.00  0.00    +0.105 C 
ATOM     39  N   UNL     1      -6.118 -12.347   5.894  0.00  0.00    -0.333 N 
ATOM     40  C   UNL     1      -6.516 -11.962   7.250  0.00  0.00    +0.129 C 
ENDBRANCH  29  30
ENDBRANCH  27  29
ENDBRANCH   5  25
TORSDOF 5
