REMARK  Name = ZINC32426434
REMARK  4 active torsions:
REMARK  status: ('A' for Active; 'I' for Inactive)
REMARK    1  A    between atoms: C_1  and  N_2
REMARK    2  A    between atoms: C_7  and  C_9
REMARK    3  A    between atoms: N_11  and  C_12
REMARK    4  A    between atoms: N_28  and  C_31
REMARK                            x       y       z     vdW  Elec       q    Type
REMARK                         _______ _______ _______ _____ _____    ______ ____
ROOT
ATOM      1  C   UNL     1      -1.435   5.730  -0.680  0.00  0.00    +0.267 C 
ATOM      2  O   UNL     1      -1.563   6.751  -1.325  0.00  0.00    -0.268 OA
ATOM      3  N   UNL     1      -2.464   5.262   0.053  0.00  0.00    -0.280 N 
ATOM      4  H   UNL     1      -2.377   4.293   0.567  0.00  0.00    +0.155 HD
ENDROOT
BRANCH   1  11
ATOM      5  C   UNL     1       0.104   1.551   1.552  0.00  0.00    +0.155 C 
ATOM      6  N   UNL     1       1.239   2.037   0.764  0.00  0.00    -0.281 N 
ATOM      7  C   UNL     1       1.110   3.199   0.023  0.00  0.00    +0.150 A 
ATOM      8  C   UNL     1       2.217   3.644  -0.726  0.00  0.00    +0.082 A 
ATOM      9  C   UNL     1       2.116   4.810  -1.481  0.00  0.00    +0.019 A 
ATOM     10  C   UNL     1       0.912   5.497  -1.458  0.00  0.00    +0.034 A 
ATOM     11  C   UNL     1      -0.145   4.998  -0.700  0.00  0.00    +0.128 A 
ATOM     12  N   UNL     1      -0.018   3.883   0.009  0.00  0.00    -0.224 NA
ATOM     13  C   UNL     1       3.459   2.851  -0.683  0.00  0.00    +0.266 A 
ATOM     14  O   UNL     1       4.442   3.193  -1.312  0.00  0.00    -0.267 OA
ATOM     15  N   UNL     1       3.475   1.731   0.074  0.00  0.00    -0.263 N 
ATOM     16  C   UNL     1       2.393   1.349   0.770  0.00  0.00    +0.333 A 
ATOM     17  O   UNL     1       2.460   0.334   1.435  0.00  0.00    -0.246 OA
ATOM     18  C   UNL     1       4.694   0.921   0.135  0.00  0.00    +0.157 C 
ENDBRANCH   1  11
BRANCH   3  19
ATOM     19  C   UNL     1      -3.643   6.008   0.161  0.00  0.00    +0.037 A 
ATOM     20  C   UNL     1      -4.867   5.361   0.269  0.00  0.00    +0.027 A 
ATOM     21  C   UNL     1      -6.032   6.096   0.376  0.00  0.00    +0.051 A 
ATOM     22  C   UNL     1      -5.982   7.481   0.377  0.00  0.00    +0.167 A 
ATOM     23  C   UNL     1      -4.756   8.133   0.267  0.00  0.00    +0.169 A 
ATOM     24  C   UNL     1      -3.589   7.395   0.165  0.00  0.00    +0.073 A 
ATOM     25  O   UNL     1      -4.973   9.481   0.294  0.00  0.00    -0.447 OA
ATOM     26  C   UNL     1      -6.374   9.649   0.030  0.00  0.00    +0.254 C 
ATOM     27  O   UNL     1      -6.970   8.421   0.471  0.00  0.00    -0.448 OA
ATOM     28  C   UNL     1      -6.925  10.824   0.830  0.00  0.00    +0.093 C 
ATOM     29  C   UNL     1      -8.425  10.970   0.559  0.00  0.00    +0.008 C 
ATOM     30  C   UNL     1      -8.651  11.201  -0.936  0.00  0.00    +0.000 C 
ATOM     31  C   UNL     1      -8.114  10.005  -1.725  0.00  0.00    +0.008 C 
ATOM     32  C   UNL     1      -6.614   9.853  -1.462  0.00  0.00    +0.093 C 
ENDBRANCH   3  19
TORSDOF 2
