REMARK  Name = ZINC15670984
REMARK  6 active torsions:
REMARK  status: ('A' for Active; 'I' for Inactive)
REMARK    1  A    between atoms: C_1  and  C_2
REMARK    2  A    between atoms: C_2  and  O_3
REMARK    3  A    between atoms: O_3  and  C_4
REMARK    4  A    between atoms: C_7  and  N_10
REMARK    5  A    between atoms: C_11  and  C_13
REMARK    6  A    between atoms: C_14  and  N_30
REMARK                            x       y       z     vdW  Elec       q    Type
REMARK                         _______ _______ _______ _____ _____    ______ ____
ROOT
ATOM      1  C   UNL     1      -1.298   3.060  -0.068  0.00  0.00    +0.097 A 
ATOM      2  C   UNL     1      -1.280   1.718  -0.381  0.00  0.00    +0.054 A 
ATOM      3  C   UNL     1      -2.546   1.004  -0.428  0.00  0.00    +0.031 A 
ATOM      4  C   UNL     1      -2.772  -0.371  -0.723  0.00  0.00    -0.030 A 
ATOM      5  C   UNL     1      -4.037  -0.854  -0.711  0.00  0.00    -0.005 A 
ATOM      6  C   UNL     1      -5.110   0.004  -0.418  0.00  0.00    +0.103 A 
ATOM      7  C   UNL     1      -3.686   1.785  -0.145  0.00  0.00    +0.089 A 
ATOM      8  S   UNL     1      -3.031   3.406   0.164  0.00  0.00    -0.064 S 
ATOM      9  N   UNL     1      -6.404  -0.496  -0.411  0.00  0.00    -0.316 N 
ATOM     10  C   UNL     1      -6.568  -1.537   0.635  0.00  0.00    +0.106 C 
ATOM     11  C   UNL     1      -8.101  -1.582   0.853  0.00  0.00    +0.020 C 
ATOM     12  C   UNL     1      -8.513  -0.097   0.724  0.00  0.00    +0.020 C 
ATOM     13  C   UNL     1      -7.380   0.566  -0.081  0.00  0.00    +0.106 C 
ATOM     14  C   UNL     1      -4.357  -2.298  -1.001  0.00  0.00    +0.039 C 
ATOM     15  C   UNL     1      -3.189  -2.973  -1.716  0.00  0.00    +0.005 C 
ATOM     16  C   UNL     1      -1.909  -2.702  -0.916  0.00  0.00    +0.005 C 
ATOM     17  C   UNL     1      -1.570  -1.217  -1.042  0.00  0.00    +0.036 C 
ATOM     18  N   UNL     1      -4.960   1.325  -0.132  0.00  0.00    -0.337 N 
ATOM     19  H   UNL     1      -5.760   1.933   0.080  0.00  0.00    +0.168 HD
ENDROOT
BRANCH   1  21
ATOM     20  N   UNL     1      -0.415   5.243   0.360  0.00  0.00    -0.281 N 
ATOM     21  C   UNL     1      -0.203   3.951   0.041  0.00  0.00    +0.257 C 
ATOM     22  O   UNL     1       0.930   3.549  -0.153  0.00  0.00    -0.269 OA
ATOM     23  H   UNL     1      -1.309   5.548   0.579  0.00  0.00    +0.155 HD
BRANCH  20  27
ATOM     24  C   UNL     1       2.774   7.928   0.405  0.00  0.00    +0.121 A 
ATOM     25  C   UNL     1       1.521   8.347  -0.018  0.00  0.00    +0.047 A 
ATOM     26  C   UNL     1       0.464   7.458  -0.033  0.00  0.00    +0.027 A 
ATOM     27  C   UNL     1       0.656   6.145   0.375  0.00  0.00    +0.034 A 
ATOM     28  C   UNL     1       1.909   5.728   0.803  0.00  0.00    +0.027 A 
ATOM     29  C   UNL     1       2.966   6.616   0.812  0.00  0.00    +0.047 A 
BRANCH  24  30
ATOM     30  O   UNL     1       3.814   8.804   0.420  0.00  0.00    -0.492 OA
BRANCH  30  32
ATOM     31  C   UNL     1       6.115   9.426   0.815  0.00  0.00    +0.048 C 
ATOM     32  C   UNL     1       5.076   8.305   0.868  0.00  0.00    +0.225 C 
ENDBRANCH  30  32
ENDBRANCH  24  30
ENDBRANCH  20  27
ENDBRANCH   1  21
BRANCH   2  33
ATOM     33  N   UNL     1      -0.084   1.063  -0.640  0.00  0.00    -0.356 N 
ATOM     34  H   UNL     1      -0.070   0.291  -1.228  0.00  0.00    +0.142 HD
ATOM     35  H   UNL     1       0.739   1.379  -0.236  0.00  0.00    +0.142 HD
ENDBRANCH   2  33
TORSDOF 5
