REMARK  Name = ZINC38980572
REMARK  8 active torsions:
REMARK  status: ('A' for Active; 'I' for Inactive)
REMARK    1  A    between atoms: C_1  and  O_2
REMARK    2  A    between atoms: O_2  and  C_3
REMARK    3  A    between atoms: C_8  and  C_9
REMARK    4  A    between atoms: C_13  and  C_15
REMARK    5  A    between atoms: C_18  and  O_22
REMARK    6  A    between atoms: C_20  and  O_21
REMARK    7  A    between atoms: O_22  and  C_23
REMARK    8  A    between atoms: C_23  and  C_24
REMARK                            x       y       z     vdW  Elec       q    Type
REMARK                         _______ _______ _______ _____ _____    ______ ____
ROOT
ATOM      1  C   UNL     1      -0.303  -4.692   1.616  0.00  0.00    +0.022 A 
ATOM      2  C   UNL     1      -0.103  -5.998   1.212  0.00  0.00    +0.013 A 
ATOM      3  C   UNL     1      -0.946  -6.999   1.656  0.00  0.00    +0.046 A 
ATOM      4  C   UNL     1      -1.996  -6.694   2.510  0.00  0.00    +0.124 A 
ATOM      5  C   UNL     1      -2.200  -5.385   2.917  0.00  0.00    +0.091 A 
ATOM      6  C   UNL     1      -1.349  -4.383   2.474  0.00  0.00    +0.126 A 
ENDROOT
BRANCH   1  11
ATOM      7  C   UNL     1      -0.019  -2.831  -0.013  0.00  0.00    +0.011 C 
ATOM      8  C   UNL     1       0.829  -3.039  -1.050  0.00  0.00    +0.139 C 
ATOM      9  N   UNL     1       1.850  -3.818  -0.673  0.00  0.00    -0.185 NA
ATOM     10  N   UNL     1       1.820  -4.181   0.504  0.00  0.00    -0.297 N 
ATOM     11  C   UNL     1       0.618  -3.603   1.129  0.00  0.00    +0.164 C 
ATOM     12  H   UNL     1       2.475  -4.746   0.943  0.00  0.00    +0.183 HD
BRANCH   7  18
ATOM     13  C   UNL     1      -1.199  -0.637   0.010  0.00  0.00    +0.128 A 
ATOM     14  C   UNL     1      -2.373   0.099   0.019  0.00  0.00    +0.046 A 
ATOM     15  C   UNL     1      -3.595  -0.546   0.028  0.00  0.00    +0.004 A 
ATOM     16  C   UNL     1      -3.658  -1.930   0.027  0.00  0.00    +0.001 A 
ATOM     17  C   UNL     1      -2.501  -2.679   0.018  0.00  0.00    +0.012 A 
ATOM     18  C   UNL     1      -1.257  -2.039   0.003  0.00  0.00    +0.024 A 
BRANCH  13  20
ATOM     19  C   UNL     1      -0.017   1.425   0.010  0.00  0.00    +0.277 C 
ATOM     20  O   UNL     1       0.002  -0.004   0.002  0.00  0.00    -0.495 OA
ENDBRANCH  13  20
ENDBRANCH   7  18
ENDBRANCH   1  11
BRANCH   6  21
ATOM     21  O   UNL     1      -1.542  -3.099   2.876  0.00  0.00    -0.506 OA
ATOM     22  H   UNL     1      -2.127  -2.590   2.299  0.00  0.00    +0.292 HD
ENDBRANCH   6  21
BRANCH   4  23
ATOM     23  O   UNL     1      -2.825  -7.678   2.946  0.00  0.00    -0.487 OA
BRANCH  23  24
ATOM     24  C   UNL     1      -2.557  -9.004   2.486  0.00  0.00    +0.264 C 
BRANCH  24  25
ATOM     25  C   UNL     1      -3.571  -9.954   3.070  0.00  0.00    -0.010 A 
ATOM     26  C   UNL     1      -3.325 -10.567   4.284  0.00  0.00    +0.008 A 
ATOM     27  C   UNL     1      -4.255 -11.438   4.819  0.00  0.00    +0.015 A 
ATOM     28  C   UNL     1      -5.433 -11.695   4.141  0.00  0.00    +0.018 A 
ATOM     29  C   UNL     1      -5.679 -11.081   2.926  0.00  0.00    +0.015 A 
ATOM     30  C   UNL     1      -4.750 -10.206   2.393  0.00  0.00    +0.008 A 
ATOM     31 BR   UNL     1      -6.706 -12.886   4.873  0.00  0.00    -0.050 Br
ENDBRANCH  24  25
ENDBRANCH  23  24
ENDBRANCH   4  23
TORSDOF 7
