REMARK  Name = ZINC09138071
REMARK  8 active torsions:
REMARK  status: ('A' for Active; 'I' for Inactive)
REMARK    1  A    between atoms: C_1  and  C_2
REMARK    2  A    between atoms: C_5  and  N_8
REMARK    3  A    between atoms: C_9  and  C_11
REMARK    4  A    between atoms: N_13  and  C_14
REMARK    5  A    between atoms: C_14  and  C_15
REMARK    6  A    between atoms: C_15  and  C_17
REMARK    7  A    between atoms: C_15  and  N_66
REMARK    8  A    between atoms: N_26  and  C_27
REMARK                            x       y       z     vdW  Elec       q    Type
REMARK                         _______ _______ _______ _____ _____    ______ ____
ROOT
ATOM      1  C   UNL     1       4.279  -7.073  -1.388  0.00  0.00    -0.020 C 
ENDROOT
BRANCH   1   2
ATOM      2  C   UNL     1       4.521  -8.510  -1.003  0.00  0.00    -0.059 A 
ATOM      3  C   UNL     1       4.270  -8.932   0.290  0.00  0.00    +0.004 A 
ATOM      4  C   UNL     1       4.489 -10.247   0.639  0.00  0.00    +0.023 A 
ATOM      5  C   UNL     1       4.976 -11.156  -0.301  0.00  0.00    +0.033 A 
ATOM      6  C   UNL     1       5.227 -10.728  -1.593  0.00  0.00    -0.026 A 
ATOM      7  C   UNL     1       4.999  -9.405  -1.938  0.00  0.00    +0.007 A 
ATOM      8  C   UNL     1       5.744 -11.662  -2.659  0.00  0.00    +0.038 C 
ATOM      9  C   UNL     1       6.284 -12.938  -2.008  0.00  0.00    +0.024 C 
ATOM     10  C   UNL     1       5.246 -13.425  -0.989  0.00  0.00    +0.105 C 
ATOM     11  N   UNL     1       5.191 -12.468   0.118  0.00  0.00    -0.333 N 
ATOM     12  C   UNL     1       4.191 -12.873   1.115  0.00  0.00    +0.129 C 
ENDBRANCH   1   2
BRANCH   1  18
ATOM     13  C   UNL     1       6.581  -6.841  -0.678  0.00  0.00    -0.078 C 
ATOM     14  C   UNL     1       7.600  -5.859  -0.094  0.00  0.00    -0.019 C 
ATOM     15  C   UNL     1       7.170  -5.467   1.322  0.00  0.00    -0.004 C 
ATOM     16  C   UNL     1       5.765  -4.859   1.270  0.00  0.00    -0.019 C 
ATOM     17  C   UNL     1       4.800  -5.870   0.647  0.00  0.00    -0.078 C 
ATOM     18  N   UNL     1       5.256  -6.187  -0.723  0.00  0.00    +0.385 N 
ATOM     19  H   UNL     1       5.333  -5.314  -1.259  0.00  0.00    -0.081 HD
ENDBRANCH   1  18
BRANCH   1  20
ATOM     20  C   UNL     1       2.863  -6.666  -0.975  0.00  0.00    +0.094 C 
BRANCH  20  23
ATOM     21  C   UNL     1       1.441  -4.691  -1.093  0.00  0.00    +0.299 C 
ATOM     22  O   UNL     1       0.623  -5.276  -0.413  0.00  0.00    -0.265 OA
ATOM     23  N   UNL     1       2.596  -5.299  -1.429  0.00  0.00    -0.309 N 
ATOM     24  H   UNL     1       3.250  -4.832  -1.972  0.00  0.00    +0.149 HD
BRANCH  21  26
ATOM     25  N   UNL     1       0.013  -2.689  -1.220  0.00  0.00    -0.278 N 
ATOM     26  C   UNL     1       1.168  -3.298  -1.556  0.00  0.00    +0.303 C 
ATOM     27  O   UNL     1       1.986  -2.713  -2.235  0.00  0.00    -0.265 OA
ATOM     28  H   UNL     1      -0.605  -3.125  -0.613  0.00  0.00    +0.155 HD
BRANCH  25  33
ATOM     29  C   UNL     1      -1.229   2.416  -3.353  0.00  0.00    +0.044 C 
ATOM     30  C   UNL     1      -0.899   1.060  -2.786  0.00  0.00    -0.050 A 
ATOM     31  C   UNL     1      -0.208   0.141  -3.554  0.00  0.00    +0.005 A 
ATOM     32  C   UNL     1       0.097  -1.104  -3.038  0.00  0.00    +0.023 A 
ATOM     33  C   UNL     1      -0.292  -1.431  -1.745  0.00  0.00    +0.034 A 
ATOM     34  C   UNL     1      -0.987  -0.506  -0.976  0.00  0.00    +0.023 A 
ATOM     35  C   UNL     1      -1.288   0.736  -1.499  0.00  0.00    +0.005 A 
ENDBRANCH  25  33
ENDBRANCH  21  26
ENDBRANCH  20  23
ENDBRANCH   1  20
TORSDOF 6
