REMARK  Name = ZINC15723961
REMARK  8 active torsions:
REMARK  status: ('A' for Active; 'I' for Inactive)
REMARK    1  A    between atoms: C_1  and  C_2
REMARK    2  A    between atoms: N_4  and  C_19
REMARK    3  A    between atoms: C_8  and  C_9
REMARK    4  A    between atoms: C_11  and  O_17
REMARK    5  A    between atoms: C_12  and  O_16
REMARK    6  A    between atoms: O_17  and  C_18
REMARK    7  A    between atoms: C_22  and  S_25
REMARK    8  A    between atoms: S_25  and  N_28
REMARK                            x       y       z     vdW  Elec       q    Type
REMARK                         _______ _______ _______ _____ _____    ______ ____
ROOT
ATOM      1  C   UNL     1       5.492  -2.399   4.100  0.00  0.00    +0.068 C 
ATOM      2  C   UNL     1       4.593  -1.809   5.157  0.00  0.00    +0.069 C 
ATOM      3  N   UNL     1       4.791  -1.847   6.439  0.00  0.00    -0.177 NA
ATOM      4  N   UNL     1       3.762  -1.210   7.132  0.00  0.00    -0.156 N 
ATOM      5  C   UNL     1       2.849  -0.726   6.265  0.00  0.00    +0.272 C 
ATOM      6  O   UNL     1       1.829  -0.117   6.538  0.00  0.00    -0.268 OA
ATOM      7  C   UNL     1       3.337  -1.082   4.922  0.00  0.00    +0.062 C 
ATOM      8  C   UNL     1       2.740  -0.801   3.705  0.00  0.00    +0.023 C 
ENDROOT
BRANCH   8   9
ATOM      9  C   UNL     1       1.578   0.086   3.649  0.00  0.00    -0.020 A 
ATOM     10  C   UNL     1       0.530  -0.183   2.755  0.00  0.00    +0.057 A 
ATOM     11  C   UNL     1      -0.560   0.660   2.703  0.00  0.00    +0.163 A 
ATOM     12  C   UNL     1      -0.625   1.771   3.546  0.00  0.00    +0.172 A 
ATOM     13  C   UNL     1       0.409   2.037   4.436  0.00  0.00    +0.059 A 
ATOM     14  C   UNL     1       1.505   1.205   4.492  0.00  0.00    +0.026 A 
ATOM     15  I   UNL     1       0.300   3.707   5.695  0.00  0.00    -0.040 I 
BRANCH  12  16
ATOM     16  O   UNL     1      -1.702   2.596   3.495  0.00  0.00    -0.503 OA
ATOM     17  H   UNL     1      -2.418   2.345   4.095  0.00  0.00    +0.292 HD
ENDBRANCH  12  16
BRANCH  11  18
ATOM     18  O   UNL     1      -1.575   0.406   1.835  0.00  0.00    -0.491 OA
ATOM     19  C   UNL     1      -1.443  -0.749   1.002  0.00  0.00    +0.277 C 
ENDBRANCH  11  18
ENDBRANCH   8   9
BRANCH   4  20
ATOM     20  C   UNL     1       3.687  -1.091   8.525  0.00  0.00    +0.060 A 
ATOM     21  C   UNL     1       2.615  -0.429   9.110  0.00  0.00    +0.027 A 
ATOM     22  C   UNL     1       2.542  -0.318  10.485  0.00  0.00    +0.030 A 
ATOM     23  C   UNL     1       3.539  -0.856  11.278  0.00  0.00    +0.105 A 
ATOM     24  C   UNL     1       4.610  -1.511  10.698  0.00  0.00    +0.030 A 
ATOM     25  C   UNL     1       4.686  -1.630   9.324  0.00  0.00    +0.027 A 
BRANCH  23  26
ATOM     26  S   UNL     1       3.445  -0.706  13.031  0.00  0.00    +0.056 S 
ATOM     27  O   UNL     1       2.071  -0.527  13.350  0.00  0.00    -0.153 OA
ATOM     28  O   UNL     1       4.220  -1.767  13.572  0.00  0.00    -0.153 OA
BRANCH  26  29
ATOM     29  N   UNL     1       4.214   0.701  13.444  0.00  0.00    -0.204 NA
ATOM     30  H   UNL     1       4.607   1.259  12.756  0.00  0.00    +0.144 HD
ATOM     31  H   UNL     1       4.272   0.967  14.376  0.00  0.00    +0.144 HD
ENDBRANCH  26  29
ENDBRANCH  23  26
ENDBRANCH   4  20
TORSDOF 6
