REMARK  Name = ZINC12516676
REMARK  9 active torsions:
REMARK  status: ('A' for Active; 'I' for Inactive)
REMARK    1  A    between atoms: C_1  and  C_2
REMARK    2  A    between atoms: C_2  and  C_3
REMARK    3  A    between atoms: C_2  and  C_4
REMARK    4  A    between atoms: C_4  and  C_6
REMARK    5  A    between atoms: C_4  and  N_63
REMARK    6  A    between atoms: C_17  and  C_18
REMARK    7  A    between atoms: C_17  and  N_63
REMARK    8  A    between atoms: N_20  and  C_21
REMARK    9  A    between atoms: C_24  and  N_27
REMARK                            x       y       z     vdW  Elec       q    Type
REMARK                         _______ _______ _______ _____ _____    ______ ____
ROOT
ATOM      1  N   UNL     1      -3.213   1.308   2.412  0.00  0.00    +0.389 N 
ATOM      2  H   UNL     1      -4.226   1.179   2.303  0.00  0.00    -0.084 HD
ATOM      3  H   UNL     1      -3.008   2.304   2.553  0.00  0.00    -0.084 HD
ENDROOT
BRANCH   1   4
ATOM      4  C   UNL     1      -2.530   0.838   1.192  0.00  0.00    -0.038 C 
BRANCH   4   5
ATOM      5  C   UNL     1      -3.391   1.141  -0.006  0.00  0.00    -0.057 A 
ATOM      6  C   UNL     1      -4.078   2.339  -0.075  0.00  0.00    +0.006 A 
ATOM      7  C   UNL     1      -4.872   2.625  -1.172  0.00  0.00    +0.049 A 
ATOM      8  C   UNL     1      -4.976   1.705  -2.202  0.00  0.00    +0.162 A 
ATOM      9  C   UNL     1      -4.286   0.503  -2.133  0.00  0.00    +0.162 A 
ATOM     10  C   UNL     1      -3.488   0.223  -1.036  0.00  0.00    +0.051 A 
ATOM     11  O   UNL     1      -4.395  -0.396  -3.153  0.00  0.00    -0.488 OA
ATOM     12  C   UNL     1      -3.804  -0.008  -4.395  0.00  0.00    +0.232 C 
ATOM     13  C   UNL     1      -4.762   0.854  -5.201  0.00  0.00    +0.082 C 
ATOM     14  C   UNL     1      -5.061   2.181  -4.520  0.00  0.00    +0.232 C 
ATOM     15  O   UNL     1      -5.756   1.974  -3.289  0.00  0.00    -0.488 OA
ENDBRANCH   4   5
BRANCH   4  17
ATOM     16  C   UNL     1      -0.482   1.075  -0.220  0.00  0.00    +0.006 C 
ATOM     17  C   UNL     1      -1.187   1.557   1.050  0.00  0.00    -0.027 C 
ATOM     18  C   UNL     1      -1.423   3.066   0.961  0.00  0.00    +0.006 C 
ENDBRANCH   4  17
ENDBRANCH   1   4
BRANCH   1  19
ATOM     19  C   UNL     1      -2.749   0.545   3.586  0.00  0.00    +0.016 C 
BRANCH  19  20
ATOM     20  C   UNL     1      -3.463   1.046   4.815  0.00  0.00    +0.200 C 
ATOM     21  O   UNL     1      -4.273   1.944   4.721  0.00  0.00    -0.278 OA
ATOM     22  N   UNL     1      -3.202   0.496   6.017  0.00  0.00    -0.287 N 
ATOM     23  H   UNL     1      -2.611  -0.270   6.082  0.00  0.00    +0.155 HD
BRANCH  22  24
ATOM     24  C   UNL     1      -3.784   1.032   7.174  0.00  0.00    +0.033 A 
ATOM     25  C   UNL     1      -3.075   1.041   8.368  0.00  0.00    +0.025 A 
ATOM     26  C   UNL     1      -3.647   1.573   9.506  0.00  0.00    +0.025 A 
ATOM     27  C   UNL     1      -4.935   2.090   9.460  0.00  0.00    +0.030 A 
ATOM     28  C   UNL     1      -5.646   2.077   8.267  0.00  0.00    +0.025 A 
ATOM     29  C   UNL     1      -5.072   1.549   7.127  0.00  0.00    +0.025 A 
BRANCH  27  30
ATOM     30  N   UNL     1      -5.516   2.625  10.614  0.00  0.00    -0.330 N 
ATOM     31  C   UNL     1      -5.817   4.069  10.438  0.00  0.00    +0.105 C 
ATOM     32  C   UNL     1      -6.883   4.344  11.529  0.00  0.00    +0.020 C 
ATOM     33  C   UNL     1      -7.729   3.050  11.521  0.00  0.00    +0.020 C 
ATOM     34  C   UNL     1      -6.813   1.976  10.905  0.00  0.00    +0.105 C 
ENDBRANCH  27  30
ENDBRANCH  22  24
ENDBRANCH  19  20
ENDBRANCH   1  19
TORSDOF 7
