REMARK  Name = ZINC14470814
REMARK  5 active torsions:
REMARK  status: ('A' for Active; 'I' for Inactive)
REMARK    1  A    between atoms: C_1  and  N_2
REMARK    2  A    between atoms: N_5  and  S_8
REMARK    3  A    between atoms: S_8  and  C_11
REMARK    4  A    between atoms: C_24  and  C_27
REMARK    5  A    between atoms: C_31  and  N_33
REMARK                            x       y       z     vdW  Elec       q    Type
REMARK                         _______ _______ _______ _____ _____    ______ ____
ROOT
ATOM      1  C   UNL     1       3.695  -3.296   0.309  0.00  0.00    +0.106 A 
ATOM      2  C   UNL     1       4.135  -3.013  -0.972  0.00  0.00    +0.030 A 
ATOM      3  C   UNL     1       5.359  -2.406  -1.166  0.00  0.00    +0.025 A 
ATOM      4  C   UNL     1       6.157  -2.072  -0.078  0.00  0.00    +0.031 A 
ATOM      5  C   UNL     1       5.700  -2.351   1.215  0.00  0.00    -0.018 A 
ATOM      6  C   UNL     1       4.477  -2.959   1.398  0.00  0.00    +0.034 A 
ATOM      7  C   UNL     1       6.562  -1.944   2.346  0.00  0.00    +0.049 C 
ATOM      8  C   UNL     1       6.525  -2.647   3.653  0.00  0.00    -0.023 C 
ATOM      9  C   UNL     1       7.734  -2.590   4.200  0.00  0.00    -0.030 C 
ATOM     10  C   UNL     1       8.697  -1.857   3.264  0.00  0.00    +0.033 C 
ATOM     11  C   UNL     1       8.045  -2.128   1.906  0.00  0.00    +0.029 C 
ATOM     12  C   UNL     1       8.279  -1.087   0.826  0.00  0.00    +0.105 C 
ATOM     13  N   UNL     1       7.404  -1.477  -0.301  0.00  0.00    -0.336 N 
ATOM     14  H   UNL     1       7.700  -1.318  -1.211  0.00  0.00    +0.147 HD
ENDROOT
BRANCH  12  15
ATOM     15  C   UNL     1       7.902   0.282   1.332  0.00  0.00    -0.025 A 
ATOM     16  C   UNL     1       8.843   1.064   1.976  0.00  0.00    +0.007 A 
ATOM     17  C   UNL     1       8.498   2.319   2.439  0.00  0.00    +0.022 A 
ATOM     18  C   UNL     1       7.211   2.793   2.259  0.00  0.00    +0.071 A 
ATOM     19  C   UNL     1       6.270   2.010   1.615  0.00  0.00    +0.145 A 
ATOM     20  C   UNL     1       6.617   0.757   1.147  0.00  0.00    +0.039 A 
ATOM     21 CL   UNL     1       6.776   4.370   2.842  0.00  0.00    -0.081 Cl
BRANCH  19  22
ATOM     22  N   UNL     1       4.892   2.517   1.421  0.00  0.00    +0.058 N 
ATOM     23  O   UNL     1       4.070   1.832   0.858  0.00  0.00    -0.126 OA
ATOM     24  O   UNL     1       4.590   3.615   1.827  0.00  0.00    -0.126 OA
ENDBRANCH  19  22
ENDBRANCH  12  15
BRANCH   1  25
ATOM     25  S   UNL     1       2.135  -4.079   0.552  0.00  0.00    +0.061 S 
ATOM     26  O   UNL     1       2.197  -4.722   1.817  0.00  0.00    -0.153 OA
ATOM     27  O   UNL     1       1.843  -4.784  -0.647  0.00  0.00    -0.153 OA
BRANCH  25  32
ATOM     28  C   UNL     1      -0.146   1.157   0.748  0.00  0.00    +0.105 C 
ATOM     29  N   UNL     1      -0.073  -0.310   0.774  0.00  0.00    -0.303 NA
ATOM     30  C   UNL     1       0.414  -0.836  -0.508  0.00  0.00    +0.101 C 
ATOM     31  C   UNL     1       0.305  -2.365  -0.504  0.00  0.00    +0.125 C 
ATOM     32  N   UNL     1       1.001  -2.880   0.685  0.00  0.00    -0.174 NA
ATOM     33  C   UNL     1       0.663  -2.302   1.994  0.00  0.00    +0.125 C 
ATOM     34  C   UNL     1       0.759  -0.776   1.892  0.00  0.00    +0.101 C 
ENDBRANCH  25  32
ENDBRANCH   1  25
TORSDOF 4
