REMARK  Name = ZINC22740468
REMARK  3 active torsions:
REMARK  status: ('A' for Active; 'I' for Inactive)
REMARK    1  A    between atoms: C_1  and  C_2
REMARK    2  A    between atoms: C_11  and  N_13
REMARK    3  A    between atoms: C_14  and  C_16
REMARK                            x       y       z     vdW  Elec       q    Type
REMARK                         _______ _______ _______ _____ _____    ______ ____
ROOT
ATOM      1  N   UNL     1      -6.464   0.991   0.073  0.00  0.00    -0.281 N 
ATOM      2  C   UNL     1      -7.388   0.146   0.571  0.00  0.00    +0.255 C 
ATOM      3  O   UNL     1      -7.041  -0.900   1.090  0.00  0.00    -0.269 OA
ATOM      4  H   UNL     1      -6.733   1.857  -0.271  0.00  0.00    +0.155 HD
ENDROOT
BRANCH   1  15
ATOM      5  C   UNL     1      -0.019   1.467   0.304  0.00  0.00    +0.109 C 
ATOM      6  C   UNL     1      -0.001  -0.024   0.086  0.00  0.00    +0.217 C 
ATOM      7  O   UNL     1       1.057  -0.615   0.026  0.00  0.00    -0.276 OA
ATOM      8  N   UNL     1      -1.159  -0.701  -0.043  0.00  0.00    -0.271 N 
ATOM      9  C   UNL     1      -1.268  -2.147  -0.253  0.00  0.00    +0.118 C 
ATOM     10  C   UNL     1      -2.777  -2.430  -0.335  0.00  0.00    +0.056 C 
ATOM     11  C   UNL     1      -3.429  -1.077  -0.159  0.00  0.00    -0.023 A 
ATOM     12  C   UNL     1      -2.435  -0.126   0.009  0.00  0.00    +0.040 A 
ATOM     13  C   UNL     1      -2.795   1.210   0.196  0.00  0.00    +0.025 A 
ATOM     14  C   UNL     1      -4.123   1.577   0.217  0.00  0.00    +0.025 A 
ATOM     15  C   UNL     1      -5.114   0.618   0.051  0.00  0.00    +0.034 A 
ATOM     16  C   UNL     1      -4.760  -0.710  -0.144  0.00  0.00    +0.028 A 
ENDBRANCH   1  15
BRANCH   2  17
ATOM     17  C   UNL     1      -8.764   0.474   0.492  0.00  0.00    +0.078 A 
ATOM     18  C   UNL     1      -9.855  -0.246   0.943  0.00  0.00    +0.049 A 
ATOM     19  C   UNL     1     -11.129   0.266   0.760  0.00  0.00    +0.082 A 
ATOM     20  C   UNL     1     -11.223   1.505   0.117  0.00  0.00    +0.128 A 
ATOM     21  S   UNL     1      -9.529   1.927  -0.209  0.00  0.00    -0.063 S 
ATOM     22  N   UNL     1     -12.498   1.853   0.020  0.00  0.00    -0.214 NA
ATOM     23  C   UNL     1     -13.241   0.922   0.558  0.00  0.00    +0.179 A 
ATOM     24  N   UNL     1     -12.473  -0.101   1.043  0.00  0.00    -0.293 N 
ATOM     25  C   UNL     1     -13.132  -1.152   1.638  0.00  0.00    +0.101 A 
ATOM     26  C   UNL     1     -14.462  -1.158   1.731  0.00  0.00    +0.067 A 
ATOM     27  S   UNL     1     -14.892   0.389   0.949  0.00  0.00    -0.058 S 
ENDBRANCH   2  17
TORSDOF 2
