REMARK  Name = ZINC18138320
REMARK  11 active torsions:
REMARK  status: ('A' for Active; 'I' for Inactive)
REMARK    1  A    between atoms: C_6  and  S_7
REMARK    2  A    between atoms: S_7  and  C_8
REMARK    3  A    between atoms: C_8  and  C_9
REMARK    4  A    between atoms: C_9  and  N_10
REMARK    5  A    between atoms: N_10  and  C_11
REMARK    6  A    between atoms: C_11  and  N_13
REMARK    7  A    between atoms: N_13  and  N_14
REMARK    8  A    between atoms: N_14  and  C_15
REMARK    9  A    between atoms: C_18  and  S_24
REMARK   10  A    between atoms: C_20  and  N_21
REMARK   11  A    between atoms: S_24  and  N_27
REMARK                            x       y       z     vdW  Elec       q    Type
REMARK                         _______ _______ _______ _____ _____    ______ ____
ROOT
ATOM      1  N   UNL     1       7.163   6.789  -0.531  0.00  0.00    -0.263 N 
ATOM      2  H   UNL     1       6.923   5.849  -0.539  0.00  0.00    +0.170 HD
ENDROOT
BRANCH   1   3
ATOM      3  C   UNL     1       8.485   7.171  -0.290  0.00  0.00    +0.075 A 
ATOM      4  C   UNL     1       8.854   8.506  -0.391  0.00  0.00    +0.028 A 
ATOM      5  C   UNL     1      10.162   8.880  -0.152  0.00  0.00    +0.030 A 
ATOM      6  C   UNL     1      11.104   7.926   0.188  0.00  0.00    +0.107 A 
ATOM      7  C   UNL     1      10.741   6.596   0.288  0.00  0.00    +0.063 A 
ATOM      8  C   UNL     1       9.433   6.216   0.056  0.00  0.00    +0.150 A 
BRANCH   8   9
ATOM      9  N   UNL     1       9.043   4.793   0.170  0.00  0.00    +0.058 N 
ATOM     10  O   UNL     1       7.957   4.494   0.632  0.00  0.00    -0.126 OA
ATOM     11  O   UNL     1       9.810   3.920  -0.198  0.00  0.00    -0.126 OA
ENDBRANCH   8   9
BRANCH   6  12
ATOM     12  S   UNL     1      12.771   8.407   0.492  0.00  0.00    +0.056 S 
ATOM     13  O   UNL     1      13.575   7.259   0.258  0.00  0.00    -0.153 OA
ATOM     14  O   UNL     1      12.973   9.632  -0.200  0.00  0.00    -0.153 OA
BRANCH  12  15
ATOM     15  N   UNL     1      12.895   8.750   2.107  0.00  0.00    -0.204 NA
ATOM     16  H   UNL     1      12.118   8.664   2.682  0.00  0.00    +0.144 HD
ATOM     17  H   UNL     1      13.744   9.037   2.479  0.00  0.00    +0.144 HD
ENDBRANCH  12  15
ENDBRANCH   6  12
ENDBRANCH   1   3
BRANCH   1  18
ATOM     18  N   UNL     1       6.184   7.764  -0.761  0.00  0.00    -0.248 N 
ATOM     19  H   UNL     1       6.424   8.704  -0.753  0.00  0.00    +0.172 HD
BRANCH  18  20
ATOM     20  C   UNL     1       4.908   7.396  -0.993  0.00  0.00    +0.147 C 
ATOM     21  S   UNL     1       3.711   8.588  -1.274  0.00  0.00    -0.017 S 
BRANCH  20  22
ATOM     22  N   UNL     1       4.575   6.090  -1.004  0.00  0.00    -0.325 N 
ATOM     23  H   UNL     1       5.253   5.415  -0.845  0.00  0.00    +0.148 HD
BRANCH  22  24
ATOM     24  C   UNL     1       3.188   5.691  -1.256  0.00  0.00    +0.114 C 
BRANCH  24  25
ATOM     25  C   UNL     1       3.082   4.165  -1.214  0.00  0.00    +0.093 C 
BRANCH  25  26
ATOM     26  S   UNL     1       1.365   3.670  -1.527  0.00  0.00    -0.124 S 
BRANCH  26  32
ATOM     27  C   UNL     1       0.244   1.176  -1.642  0.00  0.00    +0.016 A 
ATOM     28  C   UNL     1       0.281  -0.203  -1.578  0.00  0.00    +0.021 A 
ATOM     29  C   UNL     1       1.474  -0.854  -1.320  0.00  0.00    +0.041 A 
ATOM     30  C   UNL     1       2.635  -0.126  -1.124  0.00  0.00    +0.021 A 
ATOM     31  C   UNL     1       2.604   1.254  -1.187  0.00  0.00    +0.016 A 
ATOM     32  C   UNL     1       1.407   1.910  -1.446  0.00  0.00    +0.008 A 
ATOM     33 CL   UNL     1       1.516  -2.588  -1.240  0.00  0.00    -0.084 Cl
ENDBRANCH  26  32
ENDBRANCH  25  26
ENDBRANCH  24  25
ENDBRANCH  22  24
ENDBRANCH  20  22
ENDBRANCH  18  20
ENDBRANCH   1  18
TORSDOF 11
