REMARK  Name = ZINC38905251
REMARK  6 active torsions:
REMARK  status: ('A' for Active; 'I' for Inactive)
REMARK    1  A    between atoms: C_1  and  C_2
REMARK    2  A    between atoms: C_5  and  N_9
REMARK    3  A    between atoms: C_10  and  C_12
REMARK    4  A    between atoms: N_17  and  C_19
REMARK    5  A    between atoms: C_19  and  C_20
REMARK    6  A    between atoms: C_22  and  C_25
REMARK                            x       y       z     vdW  Elec       q    Type
REMARK                         _______ _______ _______ _____ _____    ______ ____
ROOT
ATOM      1  C   UNL     1       0.310  -6.351   1.119  0.00  0.00    +0.059 C 
ATOM      2  C   UNL     1       1.565  -6.744   0.334  0.00  0.00    +0.009 C 
ATOM      3  C   UNL     1       1.735  -8.264   0.389  0.00  0.00    -0.018 C 
ATOM      4  C   UNL     1       1.801  -8.713   1.850  0.00  0.00    -0.078 C 
ATOM      5  N   UNL     1       0.562  -8.332   2.539  0.00  0.00    +0.386 N 
ATOM      6  C   UNL     1       0.428  -6.870   2.553  0.00  0.00    -0.065 C 
ATOM      7  H   UNL     1      -0.227  -8.736   2.058  0.00  0.00    -0.081 HD
ENDROOT
BRANCH   1   9
ATOM      8  N   UNL     1       0.059  -4.170  -0.022  0.00  0.00    -0.285 N 
ATOM      9  C   UNL     1       0.176  -4.850   1.136  0.00  0.00    +0.219 C 
ATOM     10  O   UNL     1       0.174  -4.254   2.192  0.00  0.00    -0.275 OA
ATOM     11  H   UNL     1      -0.015  -4.651  -0.861  0.00  0.00    +0.155 HD
BRANCH   8  16
ATOM     12  C   UNL     1       0.009   1.503   0.012  0.00  0.00    +0.045 C 
ATOM     13  C   UNL     1       0.022  -0.004   0.003  0.00  0.00    -0.032 A 
ATOM     14  C   UNL     1       0.778  -0.693   0.934  0.00  0.00    +0.006 A 
ATOM     15  C   UNL     1       0.792  -2.074   0.928  0.00  0.00    +0.023 A 
ATOM     16  C   UNL     1       0.046  -2.771  -0.014  0.00  0.00    +0.035 A 
ATOM     17  C   UNL     1      -0.711  -2.078  -0.948  0.00  0.00    +0.043 A 
ATOM     18  C   UNL     1      -0.726  -0.695  -0.934  0.00  0.00    +0.046 A 
ATOM     19 CL   UNL     1      -1.678   0.174  -2.096  0.00  0.00    -0.083 Cl
ENDBRANCH   8  16
ENDBRANCH   1   9
BRANCH   5  20
ATOM     20  C   UNL     1       0.598  -8.832   3.920  0.00  0.00    +0.022 C 
BRANCH  20  21
ATOM     21  C   UNL     1       0.601 -10.339   3.908  0.00  0.00    +0.211 A 
ATOM     22  N   UNL     1       1.660 -11.097   3.881  0.00  0.00    -0.193 NA
ATOM     23  C   UNL     1       1.298 -12.393   3.879  0.00  0.00    +0.202 A 
ATOM     24  N   UNL     1      -0.010 -12.463   3.905  0.00  0.00    -0.056 NA
ATOM     25  O   UNL     1      -0.483 -11.124   3.930  0.00  0.00    -0.340 OA
BRANCH  23  26
ATOM     26  C   UNL     1       2.226 -13.551   3.851  0.00  0.00    +0.023 A 
ATOM     27  C   UNL     1       3.604 -13.342   3.830  0.00  0.00    +0.013 A 
ATOM     28  C   UNL     1       4.463 -14.422   3.804  0.00  0.00    +0.016 A 
ATOM     29  C   UNL     1       3.958 -15.711   3.799  0.00  0.00    +0.018 A 
ATOM     30  C   UNL     1       2.590 -15.923   3.819  0.00  0.00    +0.016 A 
ATOM     31  C   UNL     1       1.723 -14.850   3.852  0.00  0.00    +0.013 A 
ATOM     32 BR   UNL     1       5.140 -17.186   3.763  0.00  0.00    -0.050 Br
ENDBRANCH  23  26
ENDBRANCH  20  21
ENDBRANCH   5  20
TORSDOF 5
