REMARK  Name = ZINC59891456
REMARK  13 active torsions:
REMARK  status: ('A' for Active; 'I' for Inactive)
REMARK    1  A    between atoms: C_1  and  C_2
REMARK    2  A    between atoms: C_2  and  C_3
REMARK    3  A    between atoms: C_3  and  C_4
REMARK    4  A    between atoms: C_4  and  C_5
REMARK    5  A    between atoms: C_5  and  C_29
REMARK    6  A    between atoms: N_6  and  N_7
REMARK    7  A    between atoms: C_10  and  S_13
REMARK    8  A    between atoms: S_13  and  C_14
REMARK    9  A    between atoms: C_14  and  C_15
REMARK   10  A    between atoms: C_15  and  C_16
REMARK   11  A    between atoms: N_18  and  C_19
REMARK   12  A    between atoms: C_22  and  S_25
REMARK   13  A    between atoms: S_25  and  N_28
REMARK                            x       y       z     vdW  Elec       q    Type
REMARK                         _______ _______ _______ _____ _____    ______ ____
ROOT
ATOM      1  C   UNL     1      -2.093  -6.888   8.490  0.00  0.00    +0.086 C 
ENDROOT
BRANCH   1   2
ATOM      2  S   UNL     1      -2.329  -6.046   6.900  0.00  0.00    -0.084 S 
BRANCH   2   6
ATOM      3  N   UNL     1       1.538  -3.666   4.484  0.00  0.00    -0.205 N 
ATOM      4  C   UNL     1       0.859  -4.390   5.448  0.00  0.00    +0.232 A 
ATOM      5  N   UNL     1      -0.419  -4.708   5.420  0.00  0.00    -0.186 NA
ATOM      6  C   UNL     1      -0.732  -5.411   6.514  0.00  0.00    +0.210 A 
ATOM      7  N   UNL     1       0.343  -5.550   7.252  0.00  0.00    -0.144 NA
ATOM      8  N   UNL     1       1.390  -4.901   6.578  0.00  0.00    -0.245 N 
ATOM      9  H   UNL     1       2.485  -3.485   4.591  0.00  0.00    +0.177 HD
ATOM     10  H   UNL     1       2.313  -4.831   6.869  0.00  0.00    +0.192 HD
BRANCH   3  12
ATOM     11  C   UNL     1       1.486  -2.523   2.463  0.00  0.00    +0.034 C 
ATOM     12  N   UNL     1       0.858  -3.193   3.354  0.00  0.00    -0.189 NA
ATOM     13  C   UNL     1       2.957  -2.242   2.629  0.00  0.00    +0.062 C 
BRANCH  11  14
ATOM     14  C   UNL     1       0.755  -2.015   1.247  0.00  0.00    +0.052 C 
BRANCH  14  15
ATOM     15  C   UNL     1       0.741  -0.485   1.263  0.00  0.00    +0.006 C 
BRANCH  15  17
ATOM     16  C   UNL     1      -0.016   1.561   0.045  0.00  0.00    +0.004 C 
ATOM     17  C   UNL     1      -0.002   0.031   0.029  0.00  0.00    -0.003 C 
ENDBRANCH  15  17
ENDBRANCH  14  15
ENDBRANCH  11  14
ENDBRANCH   3  12
ENDBRANCH   2   6
ENDBRANCH   1   2
BRANCH   1  18
ATOM     18  C   UNL     1      -3.421  -7.494   8.948  0.00  0.00    +0.107 C 
BRANCH  18  19
ATOM     19  C   UNL     1      -3.226  -8.194  10.268  0.00  0.00    +0.218 C 
ATOM     20  O   UNL     1      -2.132  -8.206  10.791  0.00  0.00    -0.275 OA
ATOM     21  N   UNL     1      -4.266  -8.805  10.867  0.00  0.00    -0.285 N 
ATOM     22  H   UNL     1      -5.155  -8.738  10.484  0.00  0.00    +0.155 HD
BRANCH  21  23
ATOM     23  C   UNL     1      -4.066  -9.536  12.043  0.00  0.00    +0.033 A 
ATOM     24  C   UNL     1      -4.801 -10.690  12.280  0.00  0.00    +0.025 A 
ATOM     25  C   UNL     1      -4.601 -11.410  13.441  0.00  0.00    +0.030 A 
ATOM     26  C   UNL     1      -3.668 -10.982  14.369  0.00  0.00    +0.105 A 
ATOM     27  C   UNL     1      -2.935  -9.833  14.137  0.00  0.00    +0.030 A 
ATOM     28  C   UNL     1      -3.126  -9.113  12.974  0.00  0.00    +0.025 A 
BRANCH  26  29
ATOM     29  S   UNL     1      -3.416 -11.902  15.850  0.00  0.00    +0.056 S 
ATOM     30  O   UNL     1      -2.879 -10.997  16.805  0.00  0.00    -0.153 OA
ATOM     31  O   UNL     1      -4.611 -12.635  16.082  0.00  0.00    -0.153 OA
BRANCH  29  32
ATOM     32  N   UNL     1      -2.231 -13.017  15.537  0.00  0.00    -0.204 NA
ATOM     33  H   UNL     1      -1.644 -13.313  16.250  0.00  0.00    +0.144 HD
ATOM     34  H   UNL     1      -2.124 -13.373  14.642  0.00  0.00    +0.144 HD
ENDBRANCH  29  32
ENDBRANCH  26  29
ENDBRANCH  21  23
ENDBRANCH  18  19
ENDBRANCH   1  18
TORSDOF 11
