REMARK  Name = ZINC18222444
REMARK  5 active torsions:
REMARK  status: ('A' for Active; 'I' for Inactive)
REMARK    1  A    between atoms: C_1  and  C_2
REMARK    2  A    between atoms: C_2  and  C_27
REMARK    3  A    between atoms: C_6  and  C_16
REMARK    4  A    between atoms: C_11  and  S_13
REMARK    5  A    between atoms: S_13  and  C_14
REMARK                            x       y       z     vdW  Elec       q    Type
REMARK                         _______ _______ _______ _____ _____    ______ ____
ROOT
ATOM      1  C   UNL     1      -0.019   1.526   0.010  0.00  0.00    +0.011 C 
ATOM      2  C   UNL     1       0.002  -0.004   0.002  0.00  0.00    -0.023 C 
ATOM      3  C   UNL     1       0.742  -0.503  -1.241  0.00  0.00    +0.058 C 
ATOM      4  C   UNL     1       2.168  -0.005  -1.216  0.00  0.00    +0.020 C 
ATOM      5  C   UNL     1       2.816   0.182  -0.046  0.00  0.00    +0.041 C 
ATOM      6  C   UNL     1       4.249   0.663   0.011  0.00  0.00    +0.176 C 
ATOM      7  N   UNL     1       4.650   1.189  -1.288  0.00  0.00    -0.220 N 
ATOM      8  C   UNL     1       3.945   0.982  -2.427  0.00  0.00    +0.219 A 
ATOM      9  N   UNL     1       4.571   1.575  -3.406  0.00  0.00    -0.187 NA
ATOM     10  C   UNL     1       5.675   2.173  -2.935  0.00  0.00    +0.210 A 
ATOM     11  N   UNL     1       5.758   1.960  -1.639  0.00  0.00    -0.141 NA
ATOM     12  N   UNL     1       2.768   0.251  -2.425  0.00  0.00    -0.287 N 
ATOM     13  C   UNL     1       2.173  -0.060   1.181  0.00  0.00    +0.164 C 
ATOM     14  O   UNL     1       2.788   0.104   2.217  0.00  0.00    -0.292 OA
ATOM     15  C   UNL     1       0.742  -0.517   1.242  0.00  0.00    +0.086 C 
ATOM     16  C   UNL     1      -1.431  -0.539  -0.001  0.00  0.00    +0.011 C 
ATOM     17  H   UNL     1       2.379  -0.071  -3.253  0.00  0.00    +0.155 HD
ENDROOT
BRANCH   6  18
ATOM     18  C   UNL     1       5.148  -0.488   0.381  0.00  0.00    -0.013 A 
ATOM     19  C   UNL     1       5.207  -1.607  -0.428  0.00  0.00    +0.044 A 
ATOM     20  C   UNL     1       6.032  -2.666  -0.088  0.00  0.00    +0.126 A 
ATOM     21  C   UNL     1       6.800  -2.603   1.062  0.00  0.00    +0.076 A 
ATOM     22  C   UNL     1       6.741  -1.481   1.871  0.00  0.00    +0.126 A 
ATOM     23  C   UNL     1       5.919  -0.422   1.527  0.00  0.00    +0.044 A 
ATOM     24  F   UNL     1       7.489  -1.418   2.994  0.00  0.00    -0.205 F 
ATOM     25  F   UNL     1       6.088  -3.760  -0.878  0.00  0.00    -0.205 F 
ENDBRANCH   6  18
BRANCH  10  26
ATOM     26  S   UNL     1       6.828   3.095  -3.896  0.00  0.00    -0.088 S 
ATOM     27  C   UNL     1       6.158   3.017  -5.580  0.00  0.00    +0.093 C 
ENDBRANCH  10  26
TORSDOF 2
