REMARK  Name = ZINC35551708
REMARK  10 active torsions:
REMARK  status: ('A' for Active; 'I' for Inactive)
REMARK    1  A    between atoms: C_1  and  C_2
REMARK    2  A    between atoms: C_3  and  C_35
REMARK    3  A    between atoms: C_4  and  N_18
REMARK    4  A    between atoms: C_6  and  C_8
REMARK    5  A    between atoms: C_11  and  C_14
REMARK    6  A    between atoms: N_26  and  C_27
REMARK    7  A    between atoms: C_32  and  O_33
REMARK    8  A    between atoms: O_33  and  C_34
REMARK    9  A    between atoms: C_35  and  C_36
REMARK   10  A    between atoms: C_35  and  C_37
REMARK                            x       y       z     vdW  Elec       q    Type
REMARK                         _______ _______ _______ _____ _____    ______ ____
ROOT
ATOM      1  C   UNL     1      -1.446   1.935  -1.251  0.00  0.00    +0.064 C 
ATOM      2  C   UNL     1      -0.635   0.746  -0.804  0.00  0.00    +0.021 A 
ATOM      3  C   UNL     1      -0.320  -0.261  -1.697  0.00  0.00    +0.014 A 
ATOM      4  C   UNL     1       0.433  -1.345  -1.241  0.00  0.00    +0.129 A 
ATOM      5  N   UNL     1       0.821  -1.372   0.029  0.00  0.00    -0.214 NA
ATOM      6  C   UNL     1       0.498  -0.386   0.854  0.00  0.00    +0.140 A 
ATOM      7  N   UNL     1      -0.212   0.657   0.447  0.00  0.00    -0.343 N 
ATOM      8  H   UNL     1      -0.427   1.364   1.076  0.00  0.00    +0.167 HD
ENDROOT
BRANCH   4   9
ATOM      9  N   UNL     1       0.772  -2.377  -2.102  0.00  0.00    -0.312 N 
ATOM     10  C   UNL     1       2.072  -2.384  -2.787  0.00  0.00    +0.125 C 
ATOM     11  C   UNL     1       2.786  -3.704  -2.472  0.00  0.00    +0.128 C 
ATOM     12  N   UNL     1       1.851  -4.812  -2.715  0.00  0.00    -0.282 N 
ATOM     13  C   UNL     1       0.551  -4.806  -2.029  0.00  0.00    +0.128 C 
ATOM     14  C   UNL     1      -0.160  -3.488  -2.340  0.00  0.00    +0.125 C 
ATOM     15  C   UNL     1       2.181  -5.816  -3.551  0.00  0.00    +0.307 C 
ATOM     16  O   UNL     1       3.216  -5.764  -4.186  0.00  0.00    -0.252 OA
ATOM     17  N   UNL     1       1.362  -6.879  -3.685  0.00  0.00    -0.266 N 
ATOM     18  H   UNL     1       0.495  -6.880  -3.250  0.00  0.00    +0.156 HD
BRANCH  17  19
ATOM     19  C   UNL     1       1.763  -7.981  -4.452  0.00  0.00    +0.077 A 
ATOM     20  C   UNL     1       3.106  -8.177  -4.738  0.00  0.00    +0.027 A 
ATOM     21  C   UNL     1       3.500  -9.265  -5.494  0.00  0.00    +0.002 A 
ATOM     22  C   UNL     1       2.558 -10.159  -5.967  0.00  0.00    +0.004 A 
ATOM     23  C   UNL     1       1.217  -9.971  -5.686  0.00  0.00    +0.047 A 
ATOM     24  C   UNL     1       0.815  -8.886  -4.923  0.00  0.00    +0.141 A 
BRANCH  24  25
ATOM     25  O   UNL     1      -0.502  -8.702  -4.641  0.00  0.00    -0.493 OA
ATOM     26  C   UNL     1      -1.418  -9.670  -5.157  0.00  0.00    +0.277 C 
ENDBRANCH  24  25
ENDBRANCH  17  19
ENDBRANCH   4   9
BRANCH   6  27
ATOM     27  C   UNL     1       0.946  -0.449   2.267  0.00  0.00    +0.017 A 
ATOM     28  C   UNL     1       0.613   0.574   3.153  0.00  0.00    +0.012 A 
ATOM     29  C   UNL     1       1.032   0.510   4.466  0.00  0.00    +0.013 A 
ATOM     30  C   UNL     1       1.782  -0.567   4.903  0.00  0.00    +0.055 A 
ATOM     31  C   UNL     1       2.116  -1.585   4.029  0.00  0.00    +0.013 A 
ATOM     32  C   UNL     1       1.697  -1.534   2.714  0.00  0.00    +0.012 A 
BRANCH  30  33
ATOM     33  C   UNL     1       2.238  -0.631   6.338  0.00  0.00    +0.417 C 
ATOM     34  F   UNL     1       1.272  -1.291   7.106  0.00  0.00    -0.166 F 
ATOM     35  F   UNL     1       3.448  -1.329   6.413  0.00  0.00    -0.166 F 
ATOM     36  F   UNL     1       2.417   0.667   6.829  0.00  0.00    -0.166 F 
ENDBRANCH  30  33
ENDBRANCH   6  27
BRANCH   3  37
ATOM     37  C   UNL     1      -0.780  -0.191  -3.131  0.00  0.00    +0.018 C 
ATOM     38  C   UNL     1       0.386  -0.537  -4.058  0.00  0.00    +0.012 C 
ATOM     39  C   UNL     1      -1.920  -1.188  -3.350  0.00  0.00    +0.012 C 
ENDBRANCH   3  37
TORSDOF 6
