REMARK  Name = ZINC05899185
REMARK  4 active torsions:
REMARK  status: ('A' for Active; 'I' for Inactive)
REMARK    1  A    between atoms: C_3  and  C_7
REMARK    2  A    between atoms: C_10  and  C_21
REMARK    3  A    between atoms: C_16  and  N_20
REMARK    4  A    between atoms: C_17  and  C_18
REMARK                            x       y       z     vdW  Elec       q    Type
REMARK                         _______ _______ _______ _____ _____    ______ ____
ROOT
ATOM      1  C   UNL     1       3.779   2.156  -0.041  0.00  0.00    +0.103 C 
ATOM      2  C   UNL     1       4.481   1.786   1.240  0.00  0.00    +0.050 A 
ATOM      3  C   UNL     1       4.206   2.186   2.540  0.00  0.00    +0.077 A 
ATOM      4  N   UNL     1       5.077   1.612   3.336  0.00  0.00    -0.175 NA
ATOM      5  N   UNL     1       5.939   0.824   2.556  0.00  0.00    -0.246 N 
ATOM      6  H   UNL     1       6.677   0.288   2.885  0.00  0.00    +0.192 HD
ATOM      7  C   UNL     1       5.558   0.944   1.274  0.00  0.00    +0.222 A 
ATOM      8  O   UNL     1       6.081   0.378   0.158  0.00  0.00    -0.423 OA
ATOM      9  C   UNL     1       5.692   0.873  -1.034  0.00  0.00    +0.200 C 
ATOM     10  C   UNL     1       4.636   1.702  -1.197  0.00  0.00    +0.098 C 
ENDROOT
BRANCH   3  11
ATOM     11  C   UNL     1       3.100   3.117   2.964  0.00  0.00    +0.016 C 
ATOM     12  C   UNL     1       3.169   4.401   2.135  0.00  0.00    +0.016 C 
ATOM     13  C   UNL     1       2.046   5.347   2.566  0.00  0.00    -0.010 C 
ATOM     14  C   UNL     1       0.694   4.668   2.342  0.00  0.00    +0.007 C 
ATOM     15  C   UNL     1       0.625   3.384   3.171  0.00  0.00    -0.010 C 
ATOM     16  C   UNL     1       1.748   2.438   2.740  0.00  0.00    +0.016 C 
ATOM     17  C   UNL     1       0.785   3.724   4.654  0.00  0.00    +0.007 C 
ATOM     18  C   UNL     1       2.138   4.404   4.878  0.00  0.00    -0.010 C 
ATOM     19  C   UNL     1       2.207   5.688   4.049  0.00  0.00    +0.007 C 
ATOM     20  C   UNL     1       3.261   3.458   4.447  0.00  0.00    +0.016 C 
ENDBRANCH   3  11
BRANCH   1  23
ATOM     21  C   UNL     1       0.091   1.508  -0.506  0.00  0.00    +0.020 A 
ATOM     22  C   UNL     1       1.303   2.180  -0.463  0.00  0.00    +0.007 A 
ATOM     23  C   UNL     1       2.438   1.470  -0.102  0.00  0.00    -0.016 A 
ATOM     24  C   UNL     1       2.325   0.126   0.200  0.00  0.00    +0.115 A 
ATOM     25  N   UNL     1       1.155  -0.480   0.148  0.00  0.00    -0.263 NA
ATOM     26  C   UNL     1       0.055   0.163  -0.191  0.00  0.00    +0.111 A 
ENDBRANCH   1  23
BRANCH   9  27
ATOM     27  N   UNL     1       6.408   0.513  -2.149  0.00  0.00    -0.328 N 
ATOM     28  H   UNL     1       7.170  -0.081  -2.064  0.00  0.00    +0.145 HD
ATOM     29  H   UNL     1       6.152   0.853  -3.020  0.00  0.00    +0.145 HD
ENDBRANCH   9  27
BRANCH  10  30
ATOM     30  C   UNL     1       4.320   2.168  -2.514  0.00  0.00    +0.101 C 
ATOM     31  N   UNL     1       4.069   2.537  -3.558  0.00  0.00    -0.191 NA
ENDBRANCH  10  30
TORSDOF 4
