REMARK  Name = ZINC15082355
REMARK  6 active torsions:
REMARK  status: ('A' for Active; 'I' for Inactive)
REMARK    1  A    between atoms: C_3  and  C_12
REMARK    2  A    between atoms: C_5  and  O_7
REMARK    3  A    between atoms: O_7  and  C_8
REMARK    4  A    between atoms: C_8  and  C_9
REMARK    5  A    between atoms: C_21  and  C_30
REMARK    6  A    between atoms: C_22  and  C_23
REMARK                            x       y       z     vdW  Elec       q    Type
REMARK                         _______ _______ _______ _____ _____    ______ ____
ROOT
ATOM      1  C   UNL     1      -0.860  -3.074   2.030  0.00  0.00    +0.066 C 
ATOM      2  C   UNL     1      -1.983  -2.416   2.842  0.00  0.00    +0.109 C 
ATOM      3  C   UNL     1      -1.644  -0.984   3.148  0.00  0.00    +0.218 C 
ATOM      4  O   UNL     1      -1.946  -0.538   4.234  0.00  0.00    -0.275 OA
ATOM      5  N   UNL     1      -1.023  -0.177   2.272  0.00  0.00    -0.284 N 
ATOM      6  C   UNL     1      -0.481  -0.741   1.082  0.00  0.00    +0.053 A 
ATOM      7  C   UNL     1      -0.410  -2.106   0.981  0.00  0.00    +0.020 A 
ATOM      8  S   UNL     1       0.289  -2.409  -0.558  0.00  0.00    -0.084 S 
ATOM      9  C   UNL     1       0.501  -0.718  -1.092  0.00  0.00    +0.110 A 
ATOM     10  C   UNL     1       0.002  -0.004   0.002  0.00  0.00    +0.025 A 
ATOM     11  H   UNL     1      -0.945   0.774   2.447  0.00  0.00    +0.155 HD
ENDROOT
BRANCH  10  12
ATOM     12  C   UNL     1      -0.018   1.476   0.010  0.00  0.00    -0.015 A 
ATOM     13  C   UNL     1      -1.234   2.160   0.020  0.00  0.00    +0.011 A 
ATOM     14  C   UNL     1      -1.248   3.539   0.033  0.00  0.00    +0.039 A 
ATOM     15  C   UNL     1      -0.056   4.246   0.025  0.00  0.00    +0.123 A 
ATOM     16  C   UNL     1       1.155   3.572   0.010  0.00  0.00    +0.039 A 
ATOM     17  C   UNL     1       1.179   2.193   0.003  0.00  0.00    +0.011 A 
ATOM     18  F   UNL     1      -0.074   5.597   0.033  0.00  0.00    -0.205 F 
ENDBRANCH  10  12
BRANCH   1  21
ATOM     19  C   UNL     1       1.981  -2.719   4.493  0.00  0.00    +0.004 A 
ATOM     20  C   UNL     1       0.926  -2.412   3.654  0.00  0.00    +0.004 A 
ATOM     21  C   UNL     1       0.294  -3.412   2.939  0.00  0.00    -0.035 A 
ATOM     22  C   UNL     1       0.725  -4.720   3.051  0.00  0.00    +0.050 A 
ATOM     23  C   UNL     1       1.787  -5.030   3.888  0.00  0.00    +0.121 A 
ATOM     24  C   UNL     1       2.415  -4.025   4.609  0.00  0.00    +0.045 A 
BRANCH  23  25
ATOM     25  O   UNL     1       2.211  -6.316   4.000  0.00  0.00    -0.483 OA
BRANCH  25  26
ATOM     26  C   UNL     1       3.310  -6.562   4.880  0.00  0.00    +0.324 C 
BRANCH  26  27
ATOM     27  C   UNL     1       3.638  -8.033   4.876  0.00  0.00    +0.248 C 
ATOM     28  O   UNL     1       2.994  -8.796   4.188  0.00  0.00    -0.272 OA
ATOM     29  N   UNL     1       4.647  -8.501   5.637  0.00  0.00    -0.327 N 
ATOM     30  H   UNL     1       5.162  -7.891   6.188  0.00  0.00    +0.145 HD
ATOM     31  H   UNL     1       4.858  -9.447   5.635  0.00  0.00    +0.145 HD
ENDBRANCH  26  27
ENDBRANCH  25  26
ENDBRANCH  23  25
ENDBRANCH   1  21
BRANCH   9  32
ATOM     32  C   UNL     1       1.038  -0.227  -2.308  0.00  0.00    +0.394 C 
ATOM     33  O   UNL     1       1.109   0.972  -2.502  0.00  0.00    -0.240 OA
ATOM     34  O   UNL     1       1.472  -1.090  -3.251  0.00  0.00    -0.240 OA
ENDBRANCH   9  32
TORSDOF 6
