REMARK  Name = ZINC61639311
REMARK  4 active torsions:
REMARK  status: ('A' for Active; 'I' for Inactive)
REMARK    1  A    between atoms: C_4  and  O_11
REMARK    2  A    between atoms: C_5  and  C_7
REMARK    3  A    between atoms: O_11  and  C_12
REMARK    4  A    between atoms: C_12  and  C_13
REMARK                            x       y       z     vdW  Elec       q    Type
REMARK                         _______ _______ _______ _____ _____    ______ ____
ROOT
ATOM      1  C   UNL     1      -0.017   1.378   0.010  0.00  0.00    +0.001 A 
ATOM      2  C   UNL     1       1.170   2.088   0.002  0.00  0.00    +0.004 A 
ATOM      3  C   UNL     1       2.377   1.417  -0.013  0.00  0.00    +0.046 A 
ATOM      4  C   UNL     1       2.399   0.030  -0.021  0.00  0.00    +0.133 A 
ATOM      5  C   UNL     1       1.207  -0.680  -0.013  0.00  0.00    +0.096 A 
ATOM      6  C   UNL     1       0.002  -0.004   0.002  0.00  0.00    +0.016 A 
ENDROOT
BRANCH   5   7
ATOM      7  C   UNL     1       1.227  -2.187  -0.022  0.00  0.00    +0.421 C 
ATOM      8  F   UNL     1      -0.086  -2.670  -0.011  0.00  0.00    -0.166 F 
ATOM      9  F   UNL     1       1.881  -2.638  -1.173  0.00  0.00    -0.166 F 
ATOM     10  F   UNL     1       1.904  -2.651   1.111  0.00  0.00    -0.166 F 
ENDBRANCH   5   7
BRANCH   4  11
ATOM     11  O   UNL     1       3.586  -0.632  -0.037  0.00  0.00    -0.485 OA
BRANCH  11  12
ATOM     12  C   UNL     1       4.772   0.164  -0.045  0.00  0.00    +0.286 C 
BRANCH  12  13
ATOM     13  C   UNL     1       5.981  -0.737  -0.062  0.00  0.00    +0.098 A 
ATOM     14  C   UNL     1       6.538  -1.156   1.133  0.00  0.00    +0.066 A 
ATOM     15  C   UNL     1       7.650  -1.986   1.106  0.00  0.00    +0.025 A 
ATOM     16  C   UNL     1       8.162  -2.363  -0.126  0.00  0.00    +0.041 A 
ATOM     17  C   UNL     1       7.551  -1.904  -1.279  0.00  0.00    +0.130 A 
ATOM     18  N   UNL     1       6.492  -1.120  -1.216  0.00  0.00    -0.235 NA
ATOM     19 CL   UNL     1       8.183  -2.369  -2.828  0.00  0.00    -0.062 Cl
ATOM     20 CL   UNL     1       5.854  -0.651   2.646  0.00  0.00    -0.082 Cl
ENDBRANCH  12  13
ENDBRANCH  11  12
ENDBRANCH   4  11
TORSDOF 4
