REMARK  Name = ZINC21621358
REMARK  9 active torsions:
REMARK  status: ('A' for Active; 'I' for Inactive)
REMARK    1  A    between atoms: C_1  and  C_2
REMARK    2  A    between atoms: C_5  and  N_8
REMARK    3  A    between atoms: C_11  and  C_16
REMARK    4  A    between atoms: C_16  and  S_17
REMARK    5  A    between atoms: S_17  and  C_18
REMARK    6  A    between atoms: N_22  and  C_23
REMARK    7  A    between atoms: C_23  and  C_24
REMARK    8  A    between atoms: C_24  and  C_25
REMARK    9  A    between atoms: C_24  and  C_26
REMARK                            x       y       z     vdW  Elec       q    Type
REMARK                         _______ _______ _______ _____ _____    ______ ____
ROOT
ATOM      1  N   UNL     1      -1.128   4.593   0.314  0.00  0.00    -0.284 N 
ATOM      2  C   UNL     1       0.212   4.862   0.116  0.00  0.00    +0.224 A 
ATOM      3  N   UNL     1       0.672   6.103   0.264  0.00  0.00    -0.198 NA
ATOM      4  C   UNL     1       1.955   6.361   0.081  0.00  0.00    +0.146 A 
ATOM      5  N   UNL     1       2.785   5.391  -0.262  0.00  0.00    -0.199 NA
ATOM      6  C   UNL     1       2.332   4.149  -0.418  0.00  0.00    +0.217 A 
ATOM      7  N   UNL     1       1.043   3.885  -0.229  0.00  0.00    -0.181 NA
ATOM      8  N   UNL     1       3.199   3.137  -0.776  0.00  0.00    -0.327 N 
ATOM      9  H   UNL     1      -1.831   5.415   0.514  0.00  0.00    +0.155 HD
ATOM     10  H   UNL     1       2.824   2.111  -0.905  0.00  0.00    +0.145 HD
ATOM     11  H   UNL     1       4.266   3.356  -0.932  0.00  0.00    +0.145 HD
ENDROOT
BRANCH   1  16
ATOM     12  C   UNL     1      -3.009  -0.754   0.093  0.00  0.00    +0.044 C 
ATOM     13  C   UNL     1      -2.509   0.667   0.152  0.00  0.00    -0.050 A 
ATOM     14  C   UNL     1      -1.239   0.932   0.629  0.00  0.00    +0.005 A 
ATOM     15  C   UNL     1      -0.777   2.232   0.683  0.00  0.00    +0.023 A 
ATOM     16  C   UNL     1      -1.592   3.275   0.259  0.00  0.00    +0.034 A 
ATOM     17  C   UNL     1      -2.867   3.005  -0.220  0.00  0.00    +0.023 A 
ATOM     18  C   UNL     1      -3.322   1.702  -0.271  0.00  0.00    +0.005 A 
ENDBRANCH   1  16
BRANCH   4  19
ATOM     19  C   UNL     1       2.472   7.765   0.257  0.00  0.00    +0.153 C 
BRANCH  19  20
ATOM     20  S   UNL     1       2.372   8.649  -1.324  0.00  0.00    -0.078 S 
BRANCH  20  21
ATOM     21  C   UNL     1       3.004  10.252  -0.957  0.00  0.00    +0.193 A 
ATOM     22  N   UNL     1       3.430  10.663   0.213  0.00  0.00    -0.121 NA
ATOM     23  N   UNL     1       3.849  11.993   0.078  0.00  0.00    -0.112 NA
ATOM     24  C   UNL     1       3.657  12.354  -1.167  0.00  0.00    +0.220 A 
ATOM     25  N   UNL     1       3.130  11.288  -1.840  0.00  0.00    -0.290 N 
ATOM     26  N   UNL     1       3.940  13.601  -1.709  0.00  0.00    -0.295 N 
ATOM     27  C   UNL     1       5.391  13.818  -1.804  0.00  0.00    +0.136 C 
ATOM     28  C   UNL     1       5.657  15.176  -2.459  0.00  0.00    +0.179 C 
ATOM     29  O   UNL     1       5.006  16.200  -1.703  0.00  0.00    -0.377 OA
ATOM     30  C   UNL     1       3.591  16.021  -1.591  0.00  0.00    +0.179 C 
ATOM     31  C   UNL     1       3.304  14.672  -0.927  0.00  0.00    +0.136 C 
BRANCH  25  32
ATOM     32  C   UNL     1       2.764  11.260  -3.258  0.00  0.00    +0.130 C 
BRANCH  32  33
ATOM     33  C   UNL     1       1.264  11.525  -3.402  0.00  0.00    +0.003 C 
ATOM     34  C   UNL     1       0.949  12.946  -2.931  0.00  0.00    +0.009 C 
ATOM     35  C   UNL     1       0.858  11.373  -4.870  0.00  0.00    +0.009 C 
ENDBRANCH  32  33
ENDBRANCH  25  32
ENDBRANCH  20  21
ENDBRANCH  19  20
ENDBRANCH   4  19
TORSDOF 6
