REMARK  Name = ZINC09475140
REMARK  5 active torsions:
REMARK  status: ('A' for Active; 'I' for Inactive)
REMARK    1  A    between atoms: C_1  and  C_2
REMARK    2  A    between atoms: C_11  and  C_14
REMARK    3  A    between atoms: C_27  and  C_28
REMARK    4  A    between atoms: C_28  and  O_30
REMARK    5  A    between atoms: O_30  and  C_31
REMARK                            x       y       z     vdW  Elec       q    Type
REMARK                         _______ _______ _______ _____ _____    ______ ____
ROOT
ATOM      1  C   UNL     1       4.595   8.410   1.655  0.00  0.00    +0.046 C 
ATOM      2  C   UNL     1       5.810   7.755   1.051  0.00  0.00    -0.015 A 
ATOM      3  C   UNL     1       5.729   6.452   0.554  0.00  0.00    +0.078 A 
ATOM      4  C   UNL     1       6.926   5.929   0.005  0.00  0.00    +0.117 A 
ATOM      5  N   UNL     1       6.982   4.710  -0.502  0.00  0.00    -0.214 NA
ATOM      6  C   UNL     1       5.932   3.918  -0.520  0.00  0.00    +0.194 A 
ATOM      7  N   UNL     1       4.719   4.304  -0.007  0.00  0.00    -0.171 N 
ATOM      8  C   UNL     1       4.569   5.539   0.521  0.00  0.00    +0.284 A 
ATOM      9  O   UNL     1       3.491   5.894   0.966  0.00  0.00    -0.265 OA
ATOM     10  N   UNL     1       3.619   3.445  -0.015  0.00  0.00    -0.165 NA
ATOM     11  C   UNL     1       3.671   2.156  -0.023  0.00  0.00    +0.086 C 
ATOM     12  C   UNL     1       4.997   1.427  -0.034  0.00  0.00    +0.135 C 
ATOM     13  S   UNL     1       6.068   2.300  -1.225  0.00  0.00    -0.080 S 
ATOM     14  S   UNL     1       8.085   7.257   0.211  0.00  0.00    -0.062 S 
ATOM     15  C   UNL     1       6.993   8.435   0.990  0.00  0.00    +0.102 A 
ENDROOT
BRANCH  11  16
ATOM     16  C   UNL     1       2.421   1.382  -0.015  0.00  0.00    +0.084 A 
ATOM     17  C   UNL     1       2.449  -0.001  -0.022  0.00  0.00    +0.028 A 
ATOM     18  C   UNL     1       1.219  -0.708  -0.014  0.00  0.00    +0.020 A 
ATOM     19  C   UNL     1       1.213  -2.110  -0.021  0.00  0.00    +0.031 A 
ATOM     20  C   UNL     1       0.015  -2.788  -0.014  0.00  0.00    +0.042 A 
ATOM     21  C   UNL     1      -1.185  -2.089   0.002  0.00  0.00    +0.023 A 
ATOM     22  C   UNL     1      -1.195  -0.711   0.010  0.00  0.00    +0.048 A 
ATOM     23  C   UNL     1       0.002  -0.004   0.002  0.00  0.00    +0.139 A 
ATOM     24  O   UNL     1      -0.016   1.347   0.009  0.00  0.00    -0.422 OA
ATOM     25  C   UNL     1       1.120   2.063   0.002  0.00  0.00    +0.346 A 
ATOM     26  O   UNL     1       1.071   3.279   0.009  0.00  0.00    -0.244 OA
ATOM     27 CL   UNL     1       0.004  -4.524  -0.024  0.00  0.00    -0.084 Cl
ENDBRANCH  11  16
BRANCH  15  28
ATOM     28  C   UNL     1       7.291   9.791   1.448  0.00  0.00    +0.346 C 
ATOM     29  O   UNL     1       6.418  10.464   1.963  0.00  0.00    -0.244 OA
BRANCH  28  30
ATOM     30  O   UNL     1       8.533  10.296   1.300  0.00  0.00    -0.464 OA
ATOM     31  C   UNL     1       8.753  11.627   1.770  0.00  0.00    +0.280 C 
ENDBRANCH  28  30
ENDBRANCH  15  28
TORSDOF 3
