REMARK  Name = ZINC19357448
REMARK  1 active torsions:
REMARK  status: ('A' for Active; 'I' for Inactive)
REMARK    1  A    between atoms: C_5  and  C_6
REMARK                            x       y       z     vdW  Elec       q    Type
REMARK                         _______ _______ _______ _____ _____    ______ ____
ROOT
ATOM      1  C   UNL     1      -1.156  -0.969   0.008  0.00  0.00    +0.215 C 
ATOM      2  N   UNL     1      -0.860  -2.111  -0.877  0.00  0.00    -0.293 N 
ATOM      3  C   UNL     1      -0.055  -3.125  -0.378  0.00  0.00    +0.181 C 
ATOM      4  N   UNL     1      -0.428  -3.668   0.852  0.00  0.00    -0.259 N 
ATOM      5  C   UNL     1      -1.002  -2.766   1.746  0.00  0.00    +0.182 A 
ATOM      6  N   UNL     1      -1.358  -1.494   1.363  0.00  0.00    -0.289 N 
ATOM      7  C   UNL     1      -1.905  -0.867   2.461  0.00  0.00    +0.074 A 
ATOM      8  C   UNL     1      -2.439   0.395   2.689  0.00  0.00    +0.077 A 
ATOM      9  C   UNL     1      -2.922   0.719   3.942  0.00  0.00    +0.164 A 
ATOM     10  C   UNL     1      -2.877  -0.208   4.979  0.00  0.00    +0.164 A 
ATOM     11  C   UNL     1      -2.346  -1.464   4.770  0.00  0.00    +0.077 A 
ATOM     12  C   UNL     1      -1.855  -1.806   3.506  0.00  0.00    +0.069 A 
ATOM     13  N   UNL     1      -1.288  -2.942   3.003  0.00  0.00    -0.327 N 
ATOM     14  O   UNL     1      -3.363   0.131   6.209  0.00  0.00    -0.488 OA
ATOM     15  C   UNL     1      -2.620   1.121   6.923  0.00  0.00    +0.232 C 
ATOM     16  C   UNL     1      -3.037   2.520   6.497  0.00  0.00    +0.082 C 
ATOM     17  C   UNL     1      -2.700   2.806   5.042  0.00  0.00    +0.232 C 
ATOM     18  O   UNL     1      -3.450   1.958   4.171  0.00  0.00    -0.488 OA
ATOM     19  N   UNL     1       0.994  -3.549  -1.024  0.00  0.00    -0.272 NA
ATOM     20  H   UNL     1      -1.216  -2.152  -1.778  0.00  0.00    +0.151 HD
ATOM     21  H   UNL     1      -0.298  -4.605   1.069  0.00  0.00    +0.158 HD
ATOM     22  H   UNL     1       1.538  -4.260  -0.652  0.00  0.00    +0.189 HD
ATOM     23  H   UNL     1      -1.124  -3.756   3.504  0.00  0.00    +0.169 HD
ENDROOT
BRANCH   1  28
ATOM     24  C   UNL     1      -0.016   1.351   0.009  0.00  0.00    +0.030 A 
ATOM     25  C   UNL     1       1.184   2.038   0.002  0.00  0.00    +0.025 A 
ATOM     26  C   UNL     1       2.343   1.335  -0.013  0.00  0.00    +0.060 A 
ATOM     27  S   UNL     1       1.753  -0.350  -0.017  0.00  0.00    -0.097 S 
ATOM     28  C   UNL     1       0.002  -0.004   0.002  0.00  0.00    +0.032 A 
ATOM     29 BR   UNL     1       1.208   3.929   0.011  0.00  0.00    -0.050 Br
ENDBRANCH   1  28
TORSDOF 1
