REMARK  Name = ZINC44548985
REMARK  3 active torsions:
REMARK  status: ('A' for Active; 'I' for Inactive)
REMARK    1  A    between atoms: C_1  and  S_2
REMARK    2  A    between atoms: S_2  and  C_3
REMARK    3  A    between atoms: C_6  and  C_8
REMARK                            x       y       z     vdW  Elec       q    Type
REMARK                         _______ _______ _______ _____ _____    ______ ____
ROOT
ATOM      1  C   UNL     1       0.848  -0.411  -1.489  0.00  0.00    +0.159 A 
ATOM      2  N   UNL     1       1.362   0.397  -2.402  0.00  0.00    -0.134 NA
ATOM      3  N   UNL     1       1.947  -0.046  -3.431  0.00  0.00    -0.139 NA
ATOM      4  C   UNL     1       2.046  -1.359  -3.596  0.00  0.00    +0.153 A 
ATOM      5  S   UNL     1       1.220  -1.930  -2.118  0.00  0.00    -0.038 S 
ENDROOT
BRANCH   4   6
ATOM      6  C   UNL     1       2.669  -2.130  -4.691  0.00  0.00    +0.117 A 
ATOM      7  C   UNL     1       3.279  -1.466  -5.759  0.00  0.00    +0.141 A 
ATOM      8  N   UNL     1       3.834  -2.160  -6.733  0.00  0.00    -0.258 NA
ATOM      9  C   UNL     1       3.815  -3.482  -6.701  0.00  0.00    +0.150 A 
ATOM     10  C   UNL     1       3.212  -4.146  -5.645  0.00  0.00    +0.148 A 
ATOM     11  N   UNL     1       2.658  -3.462  -4.661  0.00  0.00    -0.230 NA
ATOM     12 CL   UNL     1       3.192  -5.882  -5.612  0.00  0.00    -0.060 Cl
ENDBRANCH   4   6
BRANCH   1  14
ATOM     13  C   UNL     1      -0.022   1.810   0.012  0.00  0.00    +0.092 C 
ATOM     14  S   UNL     1       0.002  -0.004   0.002  0.00  0.00    -0.100 S 
ENDBRANCH   1  14
TORSDOF 2
