REMARK  Name = ZINC11063457
REMARK  7 active torsions:
REMARK  status: ('A' for Active; 'I' for Inactive)
REMARK    1  A    between atoms: C_1  and  C_2
REMARK    2  A    between atoms: C_16  and  C_17
REMARK    3  A    between atoms: C_17  and  O_19
REMARK    4  A    between atoms: O_19  and  C_20
REMARK    5  A    between atoms: C_20  and  C_22
REMARK    6  A    between atoms: C_20  and  C_23
REMARK    7  A    between atoms: N_25  and  C_26
REMARK                            x       y       z     vdW  Elec       q    Type
REMARK                         _______ _______ _______ _____ _____    ______ ____
ROOT
ATOM      1  C   UNL     1       2.178   6.114  -3.537  0.00  0.00    +0.046 C 
ATOM      2  C   UNL     1       2.492   4.761  -4.121  0.00  0.00    -0.015 A 
ATOM      3  C   UNL     1       2.345   3.612  -3.342  0.00  0.00    +0.076 A 
ATOM      4  C   UNL     1       2.667   2.391  -3.978  0.00  0.00    +0.116 A 
ATOM      5  N   UNL     1       2.573   1.227  -3.349  0.00  0.00    -0.226 NA
ATOM      6  C   UNL     1       2.172   1.146  -2.112  0.00  0.00    +0.114 A 
ATOM      7  N   UNL     1       1.831   2.256  -1.395  0.00  0.00    -0.296 N 
ATOM      8  C   UNL     1       1.897   3.485  -1.936  0.00  0.00    +0.263 A 
ATOM      9  O   UNL     1       1.594   4.470  -1.286  0.00  0.00    -0.267 OA
ATOM     10  C   UNL     1       1.389   2.076  -0.006  0.00  0.00    +0.126 C 
ATOM     11  C   UNL     1      -0.024   1.497  -0.001  0.00  0.00    +0.022 C 
ATOM     12  C   UNL     1       0.006  -0.022  -0.008  0.00  0.00    +0.002 C 
ATOM     13  C   UNL     1       0.596  -0.578  -1.292  0.00  0.00    +0.008 C 
ATOM     14  C   UNL     1       2.070  -0.199  -1.429  0.00  0.00    +0.074 C 
ATOM     15  S   UNL     1       3.147   2.897  -5.611  0.00  0.00    -0.062 S 
ATOM     16  C   UNL     1       2.919   4.656  -5.413  0.00  0.00    +0.102 A 
ENDROOT
BRANCH  16  17
ATOM     17  C   UNL     1       3.138   5.722  -6.393  0.00  0.00    +0.347 C 
ATOM     18  O   UNL     1       2.932   6.881  -6.087  0.00  0.00    -0.244 OA
BRANCH  17  19
ATOM     19  O   UNL     1       3.568   5.418  -7.635  0.00  0.00    -0.448 OA
BRANCH  19  20
ATOM     20  C   UNL     1       3.763   6.525  -8.554  0.00  0.00    +0.259 C 
ATOM     21  C   UNL     1       5.199   7.040  -8.435  0.00  0.00    +0.062 C 
BRANCH  20  22
ATOM     22  C   UNL     1       3.513   6.057  -9.965  0.00  0.00    +0.258 C 
ATOM     23  O   UNL     1       3.201   4.904 -10.175  0.00  0.00    -0.271 OA
ATOM     24  N   UNL     1       3.636   6.920 -10.993  0.00  0.00    -0.282 N 
ATOM     25  H   UNL     1       3.819   7.857 -10.820  0.00  0.00    +0.155 HD
BRANCH  24  26
ATOM     26  C   UNL     1       3.499   6.464 -12.309  0.00  0.00    +0.034 A 
ATOM     27  C   UNL     1       4.264   7.026 -13.323  0.00  0.00    +0.025 A 
ATOM     28  C   UNL     1       4.131   6.571 -14.620  0.00  0.00    +0.022 A 
ATOM     29  C   UNL     1       3.228   5.564 -14.912  0.00  0.00    +0.041 A 
ATOM     30  C   UNL     1       2.460   5.006 -13.905  0.00  0.00    +0.022 A 
ATOM     31  C   UNL     1       2.594   5.454 -12.605  0.00  0.00    +0.025 A 
ATOM     32 CL   UNL     1       3.058   4.999 -16.545  0.00  0.00    -0.084 Cl
ENDBRANCH  24  26
ENDBRANCH  20  22
ENDBRANCH  19  20
ENDBRANCH  17  19
ENDBRANCH  16  17
TORSDOF 5
