REMARK  Name = ZINC66588868
REMARK  5 active torsions:
REMARK  status: ('A' for Active; 'I' for Inactive)
REMARK    1  A    between atoms: C_1  and  C_2
REMARK    2  A    between atoms: C_6  and  C_7
REMARK    3  A    between atoms: N_9  and  N_10
REMARK    4  A    between atoms: N_10  and  S_11
REMARK    5  A    between atoms: S_11  and  C_14
REMARK                            x       y       z     vdW  Elec       q    Type
REMARK                         _______ _______ _______ _____ _____    ______ ____
ROOT
ATOM      1  S   UNL     1      -1.169  -1.166   5.924  0.00  0.00    +0.074 S 
ATOM      2  O   UNL     1      -0.997  -0.594   7.213  0.00  0.00    -0.152 OA
ATOM      3  O   UNL     1      -2.316  -0.912   5.124  0.00  0.00    -0.152 OA
ENDROOT
BRANCH   1   4
ATOM      4  C   UNL     1      -1.079  -2.914   6.133  0.00  0.00    +0.116 A 
ATOM      5  C   UNL     1      -2.036  -3.718   5.594  0.00  0.00    +0.032 A 
ATOM      6  C   UNL     1      -1.980  -5.101   5.749  0.00  0.00    +0.042 A 
ATOM      7  C   UNL     1      -0.966  -5.689   6.445  0.00  0.00    +0.149 A 
ATOM      8  C   UNL     1       0.043  -4.890   7.017  0.00  0.00    +0.108 A 
ATOM      9  C   UNL     1      -0.016  -3.484   6.851  0.00  0.00    +0.030 A 
ATOM     10  C   UNL     1       0.996  -2.688   7.420  0.00  0.00    +0.013 A 
ATOM     11  C   UNL     1       1.999  -3.312   8.105  0.00  0.00    +0.020 A 
ATOM     12  C   UNL     1       1.999  -4.700   8.226  0.00  0.00    +0.111 A 
ATOM     13  N   UNL     1       1.049  -5.438   7.705  0.00  0.00    -0.252 NA
ATOM     14  F   UNL     1      -0.929  -7.032   6.585  0.00  0.00    -0.203 F 
ENDBRANCH   1   4
BRANCH   1  15
ATOM     15  N   UNL     1       0.146  -0.712   5.025  0.00  0.00    -0.108 NA
ATOM     16  H   UNL     1       0.788  -0.084   5.390  0.00  0.00    +0.172 HD
BRANCH  15  19
ATOM     17  C   UNL     1       0.464  -0.405   2.686  0.00  0.00    +0.266 C 
ATOM     18  O   UNL     1       0.426   0.800   2.853  0.00  0.00    -0.268 OA
ATOM     19  N   UNL     1       0.330  -1.236   3.739  0.00  0.00    -0.227 N 
ATOM     20  H   UNL     1       0.360  -2.196   3.606  0.00  0.00    +0.171 HD
BRANCH  17  26
ATOM     21  C   UNL     1       0.806   1.223   0.053  0.00  0.00    +0.045 C 
ATOM     22  C   UNL     1       0.814  -0.282   0.138  0.00  0.00    -0.031 A 
ATOM     23  C   UNL     1       0.982  -1.075  -0.972  0.00  0.00    +0.011 A 
ATOM     24  C   UNL     1       0.979  -2.423  -0.825  0.00  0.00    +0.046 A 
ATOM     25  S   UNL     1       0.747  -2.657   0.823  0.00  0.00    -0.092 S 
ATOM     26  C   UNL     1       0.656  -0.953   1.340  0.00  0.00    +0.078 A 
ENDBRANCH  17  26
ENDBRANCH  15  19
ENDBRANCH   1  15
TORSDOF 4
