REMARK  Name = ZINC11726546
REMARK  12 active torsions:
REMARK  status: ('A' for Active; 'I' for Inactive)
REMARK    1  A    between atoms: C_1  and  C_2
REMARK    2  A    between atoms: C_4  and  C_30
REMARK    3  A    between atoms: C_5  and  N_9
REMARK    4  A    between atoms: C_6  and  C_8
REMARK    5  A    between atoms: C_10  and  C_12
REMARK    6  A    between atoms: C_12  and  S_13
REMARK    7  A    between atoms: S_13  and  C_14
REMARK    8  A    between atoms: N_20  and  C_21
REMARK    9  A    between atoms: C_21  and  C_22
REMARK   10  A    between atoms: C_22  and  O_23
REMARK   11  A    between atoms: O_23  and  C_24
REMARK   12  A    between atoms: C_26  and  C_29
REMARK                            x       y       z     vdW  Elec       q    Type
REMARK                         _______ _______ _______ _____ _____    ______ ____
ROOT
ATOM      1  S   UNL     1       0.437   4.044   5.819  0.00  0.00    -0.078 S 
ENDROOT
BRANCH   1   2
ATOM      2  C   UNL     1       0.799   3.720   4.125  0.00  0.00    +0.172 A 
ATOM      3  N   UNL     1       0.217   2.705   3.537  0.00  0.00    -0.227 NA
ATOM      4  C   UNL     1       0.441   2.391   2.242  0.00  0.00    +0.064 A 
ATOM      5  C   UNL     1       1.335   3.186   1.555  0.00  0.00    +0.094 A 
ATOM      6  C   UNL     1       1.958   4.279   2.174  0.00  0.00    +0.268 A 
ATOM      7  O   UNL     1       2.739   4.984   1.556  0.00  0.00    -0.266 OA
ATOM      8  N   UNL     1       1.674   4.534   3.471  0.00  0.00    -0.285 N 
ATOM      9  S   UNL     1       1.450   2.524  -0.091  0.00  0.00    -0.115 S 
ATOM     10  C   UNL     1       0.614   0.910   0.201  0.00  0.00    +0.054 C 
ATOM     11  C   UNL     1      -0.203   1.272   1.462  0.00  0.00    +0.071 C 
ATOM     12  C   UNL     1      -0.298   0.534  -0.968  0.00  0.00    +0.020 C 
BRANCH   8  13
ATOM     13  C   UNL     1       2.297   5.667   4.162  0.00  0.00    +0.155 C 
BRANCH  13  14
ATOM     14  C   UNL     1       1.420   6.910   3.996  0.00  0.00    +0.181 C 
BRANCH  14  15
ATOM     15  O   UNL     1       0.171   6.703   4.659  0.00  0.00    -0.381 OA
ATOM     16  C   UNL     1      -0.727   7.811   4.564  0.00  0.00    +0.194 C 
ENDBRANCH  14  15
ENDBRANCH  13  14
ENDBRANCH   8  13
ENDBRANCH   1   2
BRANCH   1  17
ATOM     17  C   UNL     1      -0.733   2.704   6.152  0.00  0.00    +0.173 C 
BRANCH  17  19
ATOM     18  N   UNL     1      -2.072   1.881   8.062  0.00  0.00    -0.284 N 
ATOM     19  C   UNL     1      -1.192   2.783   7.585  0.00  0.00    +0.228 C 
ATOM     20  O   UNL     1      -0.770   3.659   8.310  0.00  0.00    -0.275 OA
ATOM     21  H   UNL     1      -2.451   1.212   7.469  0.00  0.00    +0.155 HD
BRANCH  18  26
ATOM     22  C   UNL     1      -3.566   1.987  13.534  0.00  0.00    +0.044 C 
ATOM     23  C   UNL     1      -3.169   1.958  12.080  0.00  0.00    -0.050 A 
ATOM     24  C   UNL     1      -4.143   1.956  11.099  0.00  0.00    +0.008 A 
ATOM     25  C   UNL     1      -3.783   1.930   9.766  0.00  0.00    -0.029 A 
ATOM     26  C   UNL     1      -2.441   1.907   9.412  0.00  0.00    +0.039 A 
ATOM     27  C   UNL     1      -1.465   1.905  10.399  0.00  0.00    -0.029 A 
ATOM     28  C   UNL     1      -1.831   1.936  11.730  0.00  0.00    +0.008 A 
ATOM     29  C   UNL     1      -0.007   1.875  10.019  0.00  0.00    +0.045 C 
ATOM     30  C   UNL     1      -4.846   1.925   8.698  0.00  0.00    +0.045 C 
ENDBRANCH  18  26
ENDBRANCH  17  19
ENDBRANCH   1  17
TORSDOF 7
