REMARK  Name = ZINC28159999
REMARK  7 active torsions:
REMARK  status: ('A' for Active; 'I' for Inactive)
REMARK    1  A    between atoms: C_1  and  C_2
REMARK    2  A    between atoms: C_5  and  C_8
REMARK    3  A    between atoms: C_11  and  C_32
REMARK    4  A    between atoms: C_18  and  C_21
REMARK    5  A    between atoms: C_21  and  C_22
REMARK    6  A    between atoms: N_24  and  C_25
REMARK    7  A    between atoms: C_28  and  C_31
REMARK                            x       y       z     vdW  Elec       q    Type
REMARK                         _______ _______ _______ _____ _____    ______ ____
ROOT
ATOM      1  C   UNL     1      10.004   2.299   2.917  0.00  0.00    +0.136 C 
ATOM      2  C   UNL     1      10.398   2.997   4.233  0.00  0.00    +0.087 C 
ATOM      3  C   UNL     1       9.184   3.829   4.582  0.00  0.00    +0.075 C 
ATOM      4  N   UNL     1       8.277   3.668   3.678  0.00  0.00    -0.181 NA
ATOM      5  N   UNL     1       8.645   2.798   2.653  0.00  0.00    -0.195 N 
ATOM      6  C   UNL     1       7.870   2.460   1.583  0.00  0.00    +0.170 C 
ATOM      7  N   UNL     1       8.166   1.641   0.582  0.00  0.00    -0.157 NA
ATOM      8  C   UNL     1       7.363   1.369  -0.409  0.00  0.00    +0.252 C 
ATOM      9  O   UNL     1       7.672   0.611  -1.308  0.00  0.00    -0.272 OA
ATOM     10  C   UNL     1       6.009   2.067  -0.362  0.00  0.00    +0.150 C 
ATOM     11  S   UNL     1       6.215   3.016   1.199  0.00  0.00    -0.078 S 
ENDROOT
BRANCH   1  16
ATOM     12  C   UNL     1       9.968  -3.441   3.579  0.00  0.00    +0.044 C 
ATOM     13  C   UNL     1       9.978  -1.944   3.407  0.00  0.00    -0.050 A 
ATOM     14  C   UNL     1      11.019  -1.333   2.734  0.00  0.00    +0.004 A 
ATOM     15  C   UNL     1      11.027   0.041   2.575  0.00  0.00    +0.006 A 
ATOM     16  C   UNL     1       9.995   0.802   3.089  0.00  0.00    -0.025 A 
ATOM     17  C   UNL     1       8.957   0.191   3.768  0.00  0.00    +0.006 A 
ATOM     18  C   UNL     1       8.945  -1.183   3.921  0.00  0.00    +0.004 A 
ENDBRANCH   1  16
BRANCH   3  19
ATOM     19  C   UNL     1       9.057   4.686   5.766  0.00  0.00    +0.035 A 
ATOM     20  C   UNL     1       7.991   5.475   6.161  0.00  0.00    +0.017 A 
ATOM     21  C   UNL     1       8.110   6.198   7.325  0.00  0.00    +0.008 A 
ATOM     22  C   UNL     1       9.259   6.116   8.045  0.00  0.00    +0.046 A 
ATOM     23  S   UNL     1      10.234   4.976   7.077  0.00  0.00    -0.095 S 
ENDBRANCH   3  19
BRANCH  10  24
ATOM     24  C   UNL     1       4.864   1.058  -0.255  0.00  0.00    +0.120 C 
BRANCH  24  25
ATOM     25  C   UNL     1       3.556   1.795  -0.124  0.00  0.00    +0.219 C 
ATOM     26  O   UNL     1       3.541   3.008  -0.118  0.00  0.00    -0.275 OA
ATOM     27  N   UNL     1       2.402   1.106  -0.015  0.00  0.00    -0.285 N 
ATOM     28  H   UNL     1       2.422   0.009   0.055  0.00  0.00    +0.155 HD
BRANCH  27  29
ATOM     29  C   UNL     1       1.181   1.788   0.008  0.00  0.00    +0.033 A 
ATOM     30  C   UNL     1       0.059   1.225  -0.586  0.00  0.00    +0.023 A 
ATOM     31  C   UNL     1      -1.145   1.903  -0.566  0.00  0.00    +0.005 A 
ATOM     32  C   UNL     1      -1.236   3.135   0.055  0.00  0.00    -0.050 A 
ATOM     33  C   UNL     1      -0.120   3.698   0.647  0.00  0.00    +0.005 A 
ATOM     34  C   UNL     1       1.087   3.028   0.626  0.00  0.00    +0.023 A 
ATOM     35  C   UNL     1      -2.552   3.869   0.081  0.00  0.00    +0.044 C 
ENDBRANCH  27  29
ENDBRANCH  24  25
ENDBRANCH  10  24
TORSDOF 5
