REMARK  Name = ZINC67272985
REMARK  10 active torsions:
REMARK  status: ('A' for Active; 'I' for Inactive)
REMARK    1  A    between atoms: C_1  and  C_2
REMARK    2  A    between atoms: C_2  and  N_3
REMARK    3  A    between atoms: N_3  and  C_4
REMARK    4  A    between atoms: N_3  and  C_6
REMARK    5  A    between atoms: C_4  and  C_5
REMARK    6  A    between atoms: C_6  and  C_8
REMARK    7  A    between atoms: C_6  and  C_14
REMARK    8  A    between atoms: N_16  and  C_17
REMARK    9  A    between atoms: C_20  and  N_23
REMARK   10  A    between atoms: C_26  and  C_28
REMARK                            x       y       z     vdW  Elec       q    Type
REMARK                         _______ _______ _______ _____ _____    ______ ____
ROOT
ATOM      1  C   UNL     1      -3.726   0.528   1.130  0.00  0.00    +0.208 C 
ATOM      2  O   UNL     1      -4.152  -0.184   0.246  0.00  0.00    -0.277 OA
ATOM      3  N   UNL     1      -4.582   1.186   1.937  0.00  0.00    -0.287 N 
ATOM      4  H   UNL     1      -4.242   1.804   2.604  0.00  0.00    +0.155 HD
ENDROOT
BRANCH   3   5
ATOM      5  C   UNL     1      -5.960   0.978   1.813  0.00  0.00    +0.033 A 
ATOM      6  C   UNL     1      -6.773   1.020   2.939  0.00  0.00    +0.025 A 
ATOM      7  C   UNL     1      -8.132   0.815   2.816  0.00  0.00    +0.029 A 
ATOM      8  C   UNL     1      -8.688   0.566   1.568  0.00  0.00    +0.065 A 
ATOM      9  C   UNL     1      -7.875   0.524   0.442  0.00  0.00    +0.029 A 
ATOM     10  C   UNL     1      -6.516   0.735   0.564  0.00  0.00    +0.025 A 
BRANCH   8  11
ATOM     11  N   UNL     1     -10.068   0.357   1.444  0.00  0.00    -0.239 N 
ATOM     12  C   UNL     1     -10.715   0.101   0.277  0.00  0.00    +0.115 A 
ATOM     13  C   UNL     1     -12.028  -0.039   0.572  0.00  0.00    +0.054 A 
ATOM     14  C   UNL     1     -12.125   0.147   1.971  0.00  0.00    +0.147 A 
ATOM     15  N   UNL     1     -10.905   0.375   2.418  0.00  0.00    -0.162 NA
BRANCH  14  16
ATOM     16  C   UNL     1     -13.360   0.092   2.780  0.00  0.00    +0.262 C 
ATOM     17  O   UNL     1     -14.428  -0.132   2.244  0.00  0.00    -0.269 OA
ATOM     18  N   UNL     1     -13.302   0.290   4.112  0.00  0.00    -0.324 N 
ATOM     19  H   UNL     1     -12.450   0.469   4.539  0.00  0.00    +0.145 HD
ATOM     20  H   UNL     1     -14.113   0.254   4.643  0.00  0.00    +0.145 HD
ENDBRANCH  14  16
ENDBRANCH   8  11
ENDBRANCH   3   5
BRANCH   1  21
ATOM     21  C   UNL     1      -2.239   0.678   1.327  0.00  0.00    +0.050 C 
BRANCH  21  22
ATOM     22  C   UNL     1      -1.716   1.750   0.405  0.00  0.00    -0.052 A 
ATOM     23  C   UNL     1      -1.824   1.597  -0.965  0.00  0.00    +0.002 A 
ATOM     24  C   UNL     1      -1.344   2.580  -1.810  0.00  0.00    +0.000 A 
ATOM     25  C   UNL     1      -0.757   3.716  -1.286  0.00  0.00    +0.000 A 
ATOM     26  C   UNL     1      -0.650   3.870   0.084  0.00  0.00    +0.000 A 
ATOM     27  C   UNL     1      -1.134   2.889   0.929  0.00  0.00    +0.002 A 
ENDBRANCH  21  22
BRANCH  21  28
ATOM     28  N   UNL     1      -1.574  -0.596   1.023  0.00  0.00    +0.390 N 
ATOM     29  H   UNL     1      -1.800  -0.877   0.081  0.00  0.00    -0.080 HD
BRANCH  28  31
ATOM     30  C   UNL     1       0.413   0.346  -0.055  0.00  0.00    -0.017 C 
ATOM     31  C   UNL     1      -0.120  -0.432   1.150  0.00  0.00    -0.081 C 
ENDBRANCH  28  31
BRANCH  28  32
ATOM     32  C   UNL     1      -2.035  -1.625   1.964  0.00  0.00    -0.081 C 
ATOM     33  C   UNL     1      -3.412  -2.131   1.532  0.00  0.00    -0.017 C 
ENDBRANCH  28  32
ENDBRANCH  21  28
ENDBRANCH   1  21
TORSDOF 8
