REMARK  Name = ZINC12535136
REMARK  4 active torsions:
REMARK  status: ('A' for Active; 'I' for Inactive)
REMARK    1  A    between atoms: C_4  and  C_7
REMARK    2  A    between atoms: C_7  and  C_8
REMARK    3  A    between atoms: C_7  and  N_14
REMARK    4  A    between atoms: C_20  and  C_22
REMARK                            x       y       z     vdW  Elec       q    Type
REMARK                         _______ _______ _______ _____ _____    ______ ____
ROOT
ATOM      1  N   UNL     1      -0.268  -0.998   1.035  0.00  0.00    -0.289 NA
ATOM      2  C   UNL     1      -0.115  -0.461   2.394  0.00  0.00    +0.104 C 
ATOM      3  C   UNL     1      -1.461  -0.535   3.123  0.00  0.00    +0.123 C 
ATOM      4  N   UNL     1      -1.954  -1.919   3.053  0.00  0.00    -0.295 N 
ATOM      5  C   UNL     1      -2.006  -2.574   1.737  0.00  0.00    +0.123 C 
ATOM      6  C   UNL     1      -0.638  -2.419   1.062  0.00  0.00    +0.104 C 
ATOM      7  C   UNL     1      -2.348  -2.570   4.166  0.00  0.00    +0.247 C 
ATOM      8  O   UNL     1      -2.818  -3.688   4.081  0.00  0.00    -0.270 OA
ENDROOT
BRANCH   7   9
ATOM      9  C   UNL     1      -2.210  -1.925   5.487  0.00  0.00    +0.039 A 
ATOM     10  C   UNL     1      -1.610  -2.622   6.545  0.00  0.00    +0.015 A 
ATOM     11  C   UNL     1      -1.471  -2.035   7.769  0.00  0.00    +0.028 A 
ATOM     12  C   UNL     1      -1.936  -0.741   7.979  0.00  0.00    +0.066 A 
ATOM     13  C   UNL     1      -2.545  -0.029   6.930  0.00  0.00    +0.089 A 
ATOM     14  C   UNL     1      -2.680  -0.630   5.679  0.00  0.00    +0.043 A 
ATOM     15  N   UNL     1      -2.891   1.188   7.426  0.00  0.00    -0.236 NA
ATOM     16  C   UNL     1      -2.542   1.264   8.676  0.00  0.00    +0.197 A 
ATOM     17  N   UNL     1      -1.949   0.103   9.068  0.00  0.00    -0.344 N 
ATOM     18  H   UNL     1      -1.522  -0.228  10.026  0.00  0.00    +0.167 HD
ENDBRANCH   7   9
BRANCH   1  19
ATOM     19  C   UNL     1       0.953  -0.787   0.245  0.00  0.00    +0.117 C 
BRANCH  19  23
ATOM     20  C   UNL     1       1.941   3.369   0.231  0.00  0.00    +0.000 A 
ATOM     21  C   UNL     1       2.941   2.421   0.344  0.00  0.00    +0.000 A 
ATOM     22  C   UNL     1       2.621   1.076   0.349  0.00  0.00    +0.005 A 
ATOM     23  C   UNL     1       1.302   0.679   0.240  0.00  0.00    -0.026 A 
ATOM     24  C   UNL     1       0.302   1.626   0.121  0.00  0.00    +0.005 A 
ATOM     25  C   UNL     1       0.621   2.971   0.121  0.00  0.00    +0.000 A 
ENDBRANCH  19  23
BRANCH  19  26
ATOM     26  C   UNL     1       0.723  -1.254  -1.169  0.00  0.00    -0.026 A 
ATOM     27  C   UNL     1      -0.487  -1.010  -1.789  0.00  0.00    +0.005 A 
ATOM     28  C   UNL     1      -0.696  -1.433  -3.088  0.00  0.00    +0.000 A 
ATOM     29  C   UNL     1       0.302  -2.111  -3.763  0.00  0.00    +0.000 A 
ATOM     30  C   UNL     1       1.510  -2.361  -3.141  0.00  0.00    +0.000 A 
ATOM     31  C   UNL     1       1.721  -1.932  -1.844  0.00  0.00    +0.005 A 
ENDBRANCH  19  26
ENDBRANCH   1  19
TORSDOF 4
