REMARK  Name = ZINC39293336
REMARK  5 active torsions:
REMARK  status: ('A' for Active; 'I' for Inactive)
REMARK    1  A    between atoms: C_1  and  O_2
REMARK    2  A    between atoms: O_2  and  C_3
REMARK    3  A    between atoms: N_23  and  C_24
REMARK    4  A    between atoms: C_24  and  C_25
REMARK    5  A    between atoms: C_33  and  O_36
REMARK                            x       y       z     vdW  Elec       q    Type
REMARK                         _______ _______ _______ _____ _____    ______ ____
ROOT
ATOM      1  C   UNL     1      -1.201  -0.638   0.010  0.00  0.00    +0.162 A 
ATOM      2  C   UNL     1      -2.394   0.078   0.019  0.00  0.00    +0.050 A 
ATOM      3  C   UNL     1      -3.626  -0.548   0.083  0.00  0.00    +0.009 A 
ATOM      4  C   UNL     1      -3.715  -1.927   0.103  0.00  0.00    -0.022 A 
ATOM      5  C   UNL     1      -2.543  -2.644  -0.011  0.00  0.00    +0.016 A 
ATOM      6  C   UNL     1      -1.286  -2.033   0.003  0.00  0.00    +0.167 A 
ATOM      7  O   UNL     1      -0.301  -2.959   0.042  0.00  0.00    -0.484 OA
ATOM      8  C   UNL     1      -0.876  -4.242   0.383  0.00  0.00    +0.191 C 
ATOM      9  C   UNL     1      -2.299  -4.121  -0.162  0.00  0.00    +0.056 C 
ATOM     10  C   UNL     1      -3.325  -4.911   0.640  0.00  0.00    +0.038 C 
ATOM     11  C   UNL     1      -4.572  -5.091  -0.234  0.00  0.00    +0.108 C 
ATOM     12  N   UNL     1      -5.119  -3.784  -0.605  0.00  0.00    -0.311 N 
ATOM     13  C   UNL     1      -5.013  -2.656   0.329  0.00  0.00    +0.142 C 
ATOM     14  C   UNL     1      -5.734  -3.612  -1.834  0.00  0.00    +0.126 A 
ATOM     15  C   UNL     1      -5.937  -4.702  -2.684  0.00  0.00    +0.061 A 
ATOM     16  C   UNL     1      -6.555  -4.484  -3.899  0.00  0.00    +0.089 A 
ATOM     17  N   UNL     1      -6.934  -3.256  -4.223  0.00  0.00    -0.334 N 
ATOM     18  C   UNL     1      -6.728  -2.240  -3.398  0.00  0.00    +0.195 A 
ATOM     19  N   UNL     1      -6.144  -2.408  -2.220  0.00  0.00    -0.201 NA
ATOM     20  N   UNL     1      -7.138  -0.973  -3.772  0.00  0.00    -0.311 N 
ATOM     21  C   UNL     1      -2.373  -4.495  -1.609  0.00  0.00    -0.013 C 
ATOM     22  C   UNL     1      -1.382  -4.891  -2.341  0.00  0.00    +0.001 C 
ATOM     23  C   UNL     1       0.011  -5.033  -1.785  0.00  0.00    +0.141 C 
ATOM     24  C   UNL     1      -0.091  -5.354  -0.302  0.00  0.00    +0.081 C 
ATOM     25  H   UNL     1      -6.994  -0.220  -3.178  0.00  0.00    +0.149 HD
ATOM     26  H   UNL     1      -7.369  -3.099  -5.075  0.00  0.00    +0.168 HD
ENDROOT
BRANCH   1  28
ATOM     27  C   UNL     1      -0.017   1.425   0.010  0.00  0.00    +0.277 C 
ATOM     28  O   UNL     1       0.002  -0.004   0.002  0.00  0.00    -0.491 OA
ENDBRANCH   1  28
BRANCH  23  29
ATOM     29  O   UNL     1       0.692  -6.093  -2.458  0.00  0.00    -0.388 OA
ATOM     30  H   UNL     1       0.780  -5.962  -3.412  0.00  0.00    +0.210 HD
ENDBRANCH  23  29
BRANCH  20  31
ATOM     31  C   UNL     1      -7.792  -0.767  -5.067  0.00  0.00    +0.139 C 
BRANCH  31  32
ATOM     32  C   UNL     1      -8.136   0.691  -5.231  0.00  0.00    -0.030 A 
ATOM     33  C   UNL     1      -9.359   1.165  -4.793  0.00  0.00    +0.005 A 
ATOM     34  C   UNL     1      -9.675   2.502  -4.943  0.00  0.00    +0.000 A 
ATOM     35  C   UNL     1      -8.768   3.365  -5.530  0.00  0.00    +0.000 A 
ATOM     36  C   UNL     1      -7.545   2.891  -5.966  0.00  0.00    +0.000 A 
ATOM     37  C   UNL     1      -7.228   1.555  -5.813  0.00  0.00    +0.005 A 
ENDBRANCH  31  32
ENDBRANCH  20  31
TORSDOF 4
