REMARK  Name = ZINC40762006
REMARK  6 active torsions:
REMARK  status: ('A' for Active; 'I' for Inactive)
REMARK    1  A    between atoms: C_4  and  N_7
REMARK    2  A    between atoms: N_7  and  C_8
REMARK    3  A    between atoms: N_7  and  N_14
REMARK    4  A    between atoms: C_16  and  N_32
REMARK    5  A    between atoms: C_17  and  N_21
REMARK    6  A    between atoms: N_21  and  C_22
REMARK                            x       y       z     vdW  Elec       q    Type
REMARK                         _______ _______ _______ _____ _____    ______ ____
ROOT
ATOM      1  N   UNL     1       5.215  -0.376  -0.729  0.00  0.00    -0.242 N 
ATOM      2  C   UNL     1       6.245  -0.032   0.138  0.00  0.00    +0.161 A 
ATOM      3  C   UNL     1       7.168   0.955  -0.215  0.00  0.00    +0.105 A 
ATOM      4  C   UNL     1       8.183   1.262   0.692  0.00  0.00    +0.126 A 
ATOM      5  N   UNL     1       8.232   0.609   1.851  0.00  0.00    -0.333 N 
ATOM      6  C   UNL     1       7.341  -0.316   2.145  0.00  0.00    +0.200 A 
ATOM      7  N   UNL     1       6.364  -0.633   1.319  0.00  0.00    -0.219 NA
ATOM      8  H   UNL     1       5.135   0.067  -1.588  0.00  0.00    +0.172 HD
ATOM      9  H   UNL     1       8.934   0.816   2.487  0.00  0.00    +0.168 HD
ENDROOT
BRANCH   3  10
ATOM     10  N   UNL     1       7.078   1.619  -1.450  0.00  0.00    -0.353 N 
ATOM     11  H   UNL     1       6.367   1.394  -2.070  0.00  0.00    +0.143 HD
ATOM     12  H   UNL     1       7.726   2.302  -1.681  0.00  0.00    +0.143 HD
ENDBRANCH   3  10
BRANCH   4  13
ATOM     13  N   UNL     1       9.128   2.236   0.390  0.00  0.00    -0.299 N 
ATOM     14  H   UNL     1       9.034   2.772  -0.413  0.00  0.00    +0.154 HD
BRANCH  13  15
ATOM     15  C   UNL     1      10.217   2.444   1.246  0.00  0.00    +0.036 A 
ATOM     16  C   UNL     1      10.864   1.359   1.822  0.00  0.00    +0.027 A 
ATOM     17  C   UNL     1      11.938   1.563   2.667  0.00  0.00    +0.051 A 
ATOM     18  C   UNL     1      12.373   2.851   2.941  0.00  0.00    +0.162 A 
ATOM     19  C   UNL     1      11.729   3.939   2.364  0.00  0.00    +0.164 A 
ATOM     20  C   UNL     1      10.653   3.734   1.514  0.00  0.00    +0.072 A 
ATOM     21  O   UNL     1      12.147   5.210   2.616  0.00  0.00    -0.485 OA
ATOM     22  C   UNL     1      12.990   5.396   3.757  0.00  0.00    +0.270 C 
ATOM     23  C   UNL     1      14.075   4.311   3.736  0.00  0.00    +0.270 C 
ATOM     24  O   UNL     1      13.431   3.033   3.780  0.00  0.00    -0.485 OA
ENDBRANCH  13  15
ENDBRANCH   4  13
BRANCH   1  25
ATOM     25  N   UNL     1       4.291  -1.363  -0.361  0.00  0.00    -0.221 N 
BRANCH  25  29
ATOM     26  C   UNL     1       0.446  -0.281   0.815  0.00  0.00    +0.000 A 
ATOM     27  C   UNL     1       1.542   0.335   1.389  0.00  0.00    +0.002 A 
ATOM     28  C   UNL     1       2.818  -0.021   1.002  0.00  0.00    +0.025 A 
ATOM     29  C   UNL     1       3.001  -1.000   0.033  0.00  0.00    +0.053 A 
ATOM     30  C   UNL     1       1.897  -1.618  -0.542  0.00  0.00    +0.025 A 
ATOM     31  C   UNL     1       0.623  -1.256  -0.150  0.00  0.00    +0.002 A 
ENDBRANCH  25  29
BRANCH  25  32
ATOM     32  C   UNL     1       4.660  -2.711  -0.390  0.00  0.00    +0.053 A 
ATOM     33  C   UNL     1       5.877  -3.087  -0.943  0.00  0.00    +0.025 A 
ATOM     34  C   UNL     1       6.239  -4.420  -0.969  0.00  0.00    +0.002 A 
ATOM     35  C   UNL     1       5.391  -5.379  -0.445  0.00  0.00    +0.000 A 
ATOM     36  C   UNL     1       4.178  -5.007   0.106  0.00  0.00    +0.002 A 
ATOM     37  C   UNL     1       3.813  -3.676   0.140  0.00  0.00    +0.025 A 
ENDBRANCH  25  32
ENDBRANCH   1  25
TORSDOF 6
