REMARK  Name = ZINC03376268
REMARK  12 active torsions:
REMARK  status: ('A' for Active; 'I' for Inactive)
REMARK    1  A    between atoms: C_1  and  C_2
REMARK    2  A    between atoms: C_2  and  C_4
REMARK    3  A    between atoms: C_2  and  N_55
REMARK    4  A    between atoms: C_7  and  S_16
REMARK    5  A    between atoms: N_8  and  C_9
REMARK    6  A    between atoms: S_16  and  C_17
REMARK    7  A    between atoms: C_17  and  C_18
REMARK    8  A    between atoms: N_20  and  C_21
REMARK    9  A    between atoms: C_26  and  C_27
REMARK   10  A    between atoms: C_27  and  C_29
REMARK   11  A    between atoms: C_30  and  N_55
REMARK   12  A    between atoms: C_31  and  N_55
REMARK                            x       y       z     vdW  Elec       q    Type
REMARK                         _______ _______ _______ _____ _____    ______ ____
ROOT
ATOM      1  C   UNL     1      -1.433   3.453   2.528  0.00  0.00    +0.125 A 
ATOM      2  N   UNL     1      -2.545   2.965   3.001  0.00  0.00    -0.135 NA
ATOM      3  N   UNL     1      -2.874   3.579   4.080  0.00  0.00    -0.122 NA
ATOM      4  C   UNL     1      -1.987   4.507   4.355  0.00  0.00    +0.197 A 
ATOM      5  N   UNL     1      -1.037   4.456   3.372  0.00  0.00    -0.275 N 
ENDROOT
BRANCH   5   6
ATOM      6  C   UNL     1       0.104   5.263   3.253  0.00  0.00    +0.050 A 
ATOM      7  C   UNL     1       1.368   4.700   3.362  0.00  0.00    +0.028 A 
ATOM      8  C   UNL     1       2.490   5.496   3.238  0.00  0.00    +0.022 A 
ATOM      9  C   UNL     1       2.355   6.856   3.018  0.00  0.00    +0.041 A 
ATOM     10  C   UNL     1       1.096   7.420   2.915  0.00  0.00    +0.022 A 
ATOM     11  C   UNL     1      -0.029   6.627   3.032  0.00  0.00    +0.028 A 
ATOM     12 CL   UNL     1       3.767   7.854   2.870  0.00  0.00    -0.084 Cl
ENDBRANCH   5   6
BRANCH   1  14
ATOM     13  C   UNL     1      -1.470   3.509   0.050  0.00  0.00    -0.005 C 
ATOM     14  C   UNL     1      -0.718   3.000   1.281  0.00  0.00    -0.003 C 
BRANCH  14  17
ATOM     15  C   UNL     1       0.025   1.054   0.046  0.00  0.00    -0.096 C 
ATOM     16  C   UNL     1      -0.033   1.003   2.467  0.00  0.00    -0.096 C 
ATOM     17  N   UNL     1      -0.693   1.523   1.250  0.00  0.00    +0.382 N 
ATOM     18  H   UNL     1      -1.658   1.173   1.220  0.00  0.00    -0.082 HD
ENDBRANCH  14  17
ENDBRANCH   1  14
BRANCH   4  19
ATOM     19  S   UNL     1      -2.014   5.609   5.730  0.00  0.00    -0.076 S 
BRANCH  19  20
ATOM     20  C   UNL     1      -3.538   5.064   6.540  0.00  0.00    +0.173 C 
BRANCH  20  21
ATOM     21  C   UNL     1      -3.772   5.890   7.778  0.00  0.00    +0.228 C 
ATOM     22  O   UNL     1      -2.986   6.762   8.083  0.00  0.00    -0.275 OA
ATOM     23  N   UNL     1      -4.855   5.661   8.547  0.00  0.00    -0.284 N 
ATOM     24  H   UNL     1      -5.525   5.020   8.261  0.00  0.00    +0.155 HD
BRANCH  23  25
ATOM     25  C   UNL     1      -5.012   6.343   9.749  0.00  0.00    +0.044 A 
ATOM     26  C   UNL     1      -3.902   6.834  10.423  0.00  0.00    +0.024 A 
ATOM     27  C   UNL     1      -4.061   7.515  11.613  0.00  0.00    +0.002 A 
ATOM     28  C   UNL     1      -5.324   7.706  12.151  0.00  0.00    +0.001 A 
ATOM     29  C   UNL     1      -6.438   7.222  11.502  0.00  0.00    +0.013 A 
ATOM     30  C   UNL     1      -6.295   6.534  10.291  0.00  0.00    +0.038 A 
BRANCH  30  31
ATOM     31  C   UNL     1      -7.477   6.015   9.593  0.00  0.00    +0.162 C 
ATOM     32  O   UNL     1      -7.344   5.341   8.593  0.00  0.00    -0.292 OA
ATOM     33  C   UNL     1      -8.857   6.318  10.118  0.00  0.00    +0.091 C 
ENDBRANCH  30  31
ENDBRANCH  23  25
ENDBRANCH  20  21
ENDBRANCH  19  20
ENDBRANCH   4  19
TORSDOF 8
