REMARK  Name = ZINC13274534
REMARK  11 active torsions:
REMARK  status: ('A' for Active; 'I' for Inactive)
REMARK    1  A    between atoms: C_1  and  C_2
REMARK    2  A    between atoms: C_2  and  C_3
REMARK    3  A    between atoms: C_2  and  C_4
REMARK    4  A    between atoms: C_4  and  C_6
REMARK    5  A    between atoms: C_4  and  N_8
REMARK    6  A    between atoms: C_18  and  S_19
REMARK    7  A    between atoms: S_19  and  C_20
REMARK    8  A    between atoms: C_20  and  C_21
REMARK    9  A    between atoms: N_23  and  C_24
REMARK   10  A    between atoms: C_27  and  C_30
REMARK   11  A    between atoms: C_30  and  C_31
REMARK                            x       y       z     vdW  Elec       q    Type
REMARK                         _______ _______ _______ _____ _____    ______ ____
ROOT
ATOM      1  N   UNL     1      -1.112  -2.144  -0.011  0.00  0.00    -0.273 N 
ATOM      2  C   UNL     1      -1.234  -0.797  -0.011  0.00  0.00    +0.263 A 
ATOM      3  O   UNL     1      -2.328  -0.262   0.002  0.00  0.00    -0.267 OA
ATOM      4  C   UNL     1       0.002  -0.004  -0.029  0.00  0.00    +0.065 A 
ATOM      5  C   UNL     1      -0.016   1.390  -0.030  0.00  0.00    +0.015 A 
ATOM      6  C   UNL     1       1.164   2.080  -0.047  0.00  0.00    +0.001 A 
ATOM      7  C   UNL     1       2.379   1.407  -0.061  0.00  0.00    +0.002 A 
ATOM      8  C   UNL     1       2.427   0.042  -0.060  0.00  0.00    +0.028 A 
ATOM      9  C   UNL     1       1.237  -0.692  -0.044  0.00  0.00    +0.079 A 
ATOM     10  N   UNL     1       1.238  -2.040  -0.042  0.00  0.00    -0.223 NA
ATOM     11  C   UNL     1       0.123  -2.728  -0.026  0.00  0.00    +0.173 A 
ENDROOT
BRANCH   1  12
ATOM     12  C   UNL     1      -2.313  -2.984   0.005  0.00  0.00    +0.208 C 
BRANCH  12  14
ATOM     13  C   UNL     1      -2.345  -2.988  -2.493  0.00  0.00    +0.010 C 
ATOM     14  C   UNL     1      -3.160  -2.687  -1.234  0.00  0.00    +0.017 C 
ATOM     15  C   UNL     1      -4.414  -3.563  -1.216  0.00  0.00    +0.010 C 
ENDBRANCH  12  14
BRANCH  12  16
ATOM     16  C   UNL     1      -3.116  -2.687   1.246  0.00  0.00    +0.379 C 
ATOM     17  O   UNL     1      -2.725  -1.860   2.035  0.00  0.00    -0.244 OA
ATOM     18  O   UNL     1      -4.265  -3.342   1.474  0.00  0.00    -0.244 OA
ENDBRANCH  12  16
ENDBRANCH   1  12
BRANCH  11  19
ATOM     19  S   UNL     1       0.221  -4.487  -0.025  0.00  0.00    -0.078 S 
BRANCH  19  20
ATOM     20  C   UNL     1       2.018  -4.702  -0.048  0.00  0.00    +0.173 C 
BRANCH  20  21
ATOM     21  C   UNL     1       2.348  -6.172  -0.050  0.00  0.00    +0.227 C 
ATOM     22  O   UNL     1       1.456  -6.994  -0.037  0.00  0.00    -0.275 OA
ATOM     23  N   UNL     1       3.634  -6.574  -0.066  0.00  0.00    -0.285 N 
ATOM     24  H   UNL     1       4.346  -5.919  -0.144  0.00  0.00    +0.155 HD
BRANCH  23  25
ATOM     25  C   UNL     1       3.943  -7.935   0.029  0.00  0.00    +0.033 A 
ATOM     26  C   UNL     1       5.084  -8.344   0.708  0.00  0.00    +0.023 A 
ATOM     27  C   UNL     1       5.383  -9.689   0.806  0.00  0.00    +0.006 A 
ATOM     28  C   UNL     1       4.554 -10.627   0.219  0.00  0.00    -0.037 A 
ATOM     29  C   UNL     1       3.421 -10.223  -0.462  0.00  0.00    +0.006 A 
ATOM     30  C   UNL     1       3.113  -8.880  -0.558  0.00  0.00    +0.023 A 
BRANCH  28  31
ATOM     31  C   UNL     1       4.887 -12.093   0.323  0.00  0.00    +0.160 C 
BRANCH  31  32
ATOM     32  C   UNL     1       5.751 -12.496  -0.844  0.00  0.00    +0.360 C 
ATOM     33  O   UNL     1       6.064 -11.677  -1.675  0.00  0.00    -0.246 OA
ATOM     34  O   UNL     1       6.172 -13.765  -0.961  0.00  0.00    -0.246 OA
ENDBRANCH  31  32
ENDBRANCH  28  31
ENDBRANCH  23  25
ENDBRANCH  20  21
ENDBRANCH  19  20
ENDBRANCH  11  19
TORSDOF 9
