REMARK  Name = ZINC64508398
REMARK  2 active torsions:
REMARK  status: ('A' for Active; 'I' for Inactive)
REMARK    1  A    between atoms: C_8  and  C_27
REMARK    2  A    between atoms: C_16  and  C_18
REMARK                            x       y       z     vdW  Elec       q    Type
REMARK                         _______ _______ _______ _____ _____    ______ ____
ROOT
ATOM      1  C   UNL     1       0.299   1.119   3.502  0.00  0.00    +0.001 A 
ATOM      2  C   UNL     1       1.452   1.891   3.306  0.00  0.00    +0.002 A 
ATOM      3  C   UNL     1       2.528   1.434   2.630  0.00  0.00    +0.026 A 
ATOM      4  C   UNL     1       2.530   0.123   2.082  0.00  0.00    +0.043 A 
ATOM      5  N   UNL     1       3.446  -0.543   1.415  0.00  0.00    -0.375 N 
ATOM      6  C   UNL     1       2.888  -1.835   1.024  0.00  0.00    +0.131 C 
ATOM      7  C   UNL     1       3.732  -3.004   1.544  0.00  0.00    +0.133 C 
ATOM      8  N   UNL     1       2.912  -4.223   1.467  0.00  0.00    -0.288 N 
ATOM      9  C   UNL     1       1.645  -4.319   2.200  0.00  0.00    +0.113 C 
ATOM     10  C   UNL     1       0.711  -3.179   1.752  0.00  0.00    +0.052 C 
ATOM     11  C   UNL     1       1.530  -1.910   1.704  0.00  0.00    -0.035 C 
ATOM     12  C   UNL     1       1.325  -0.719   2.282  0.00  0.00    -0.001 A 
ATOM     13  C   UNL     1       0.197  -0.142   3.026  0.00  0.00    +0.010 A 
ATOM     14  C   UNL     1       3.329  -5.261   0.715  0.00  0.00    +0.247 C 
ATOM     15  O   UNL     1       4.431  -5.237   0.202  0.00  0.00    -0.270 OA
ATOM     16  H   UNL     1       4.342  -0.229   1.216  0.00  0.00    +0.160 HD
ENDROOT
BRANCH  14  17
ATOM     17  C   UNL     1       2.447  -6.428   0.515  0.00  0.00    +0.041 A 
ATOM     18  C   UNL     1       1.062  -6.259   0.469  0.00  0.00    +0.017 A 
ATOM     19  C   UNL     1       0.240  -7.349   0.280  0.00  0.00    +0.050 A 
ATOM     20  C   UNL     1       0.785  -8.618   0.136  0.00  0.00    +0.166 A 
ATOM     21  C   UNL     1       2.169  -8.794   0.182  0.00  0.00    +0.167 A 
ATOM     22  C   UNL     1       2.997  -7.704   0.365  0.00  0.00    +0.062 A 
ATOM     23  O   UNL     1       2.445 -10.121   0.017  0.00  0.00    -0.453 OA
ATOM     24  C   UNL     1       1.206 -10.806   0.279  0.00  0.00    +0.466 C 
ATOM     25  O   UNL     1       0.199  -9.834  -0.058  0.00  0.00    -0.453 OA
ENDBRANCH  14  17
BRANCH   7  26
ATOM     26  C   UNL     1       4.965  -3.162   0.691  0.00  0.00    -0.025 A 
ATOM     27  C   UNL     1       4.873  -3.049  -0.683  0.00  0.00    +0.007 A 
ATOM     28  C   UNL     1       6.003  -3.193  -1.466  0.00  0.00    +0.020 A 
ATOM     29  C   UNL     1       7.226  -3.451  -0.874  0.00  0.00    +0.041 A 
ATOM     30  C   UNL     1       7.317  -3.564   0.502  0.00  0.00    +0.020 A 
ATOM     31  C   UNL     1       6.188  -3.414   1.284  0.00  0.00    +0.007 A 
ATOM     32 CL   UNL     1       8.646  -3.634  -1.856  0.00  0.00    -0.084 Cl
ENDBRANCH   7  26
TORSDOF 2
