REMARK  Name = ZINC03323750
REMARK  8 active torsions:
REMARK  status: ('A' for Active; 'I' for Inactive)
REMARK    1  A    between atoms: C_1  and  O_2
REMARK    2  A    between atoms: O_2  and  C_3
REMARK    3  A    between atoms: C_8  and  N_9
REMARK    4  A    between atoms: C_10  and  C_12
REMARK    5  A    between atoms: C_15  and  N_18
REMARK    6  A    between atoms: C_19  and  C_21
REMARK    7  A    between atoms: C_21  and  N_60
REMARK    8  A    between atoms: C_24  and  C_27
REMARK                            x       y       z     vdW  Elec       q    Type
REMARK                         _______ _______ _______ _____ _____    ______ ____
ROOT
ATOM      1  C   UNL     1      -1.212   1.914   6.674  0.00  0.00    +0.037 A 
ATOM      2  C   UNL     1      -0.461   0.778   6.360  0.00  0.00    +0.015 A 
ATOM      3  C   UNL     1      -0.041   0.569   5.065  0.00  0.00    +0.024 A 
ATOM      4  C   UNL     1      -0.365   1.487   4.071  0.00  0.00    +0.033 A 
ATOM      5  C   UNL     1      -1.108   2.622   4.382  0.00  0.00    +0.024 A 
ATOM      6  C   UNL     1      -1.536   2.833   5.673  0.00  0.00    +0.015 A 
ENDROOT
BRANCH   1   8
ATOM      7  N   UNL     1      -2.389   3.236   8.363  0.00  0.00    -0.279 N 
ATOM      8  C   UNL     1      -1.664   2.140   8.061  0.00  0.00    +0.248 C 
ATOM      9  O   UNL     1      -1.383   1.339   8.931  0.00  0.00    -0.270 OA
ATOM     10  H   UNL     1      -2.674   3.839   7.658  0.00  0.00    +0.155 HD
BRANCH   7  16
ATOM     11  C   UNL     1      -2.961   4.815  10.105  0.00  0.00    +0.141 A 
ATOM     12  C   UNL     1      -3.299   5.075  11.424  0.00  0.00    +0.047 A 
ATOM     13  C   UNL     1      -3.408   4.034  12.327  0.00  0.00    +0.004 A 
ATOM     14  C   UNL     1      -3.180   2.733  11.920  0.00  0.00    +0.002 A 
ATOM     15  C   UNL     1      -2.848   2.465  10.605  0.00  0.00    +0.027 A 
ATOM     16  C   UNL     1      -2.731   3.504   9.694  0.00  0.00    +0.076 A 
BRANCH  11  18
ATOM     17  C   UNL     1      -3.104   7.155   9.708  0.00  0.00    +0.277 C 
ATOM     18  O   UNL     1      -2.855   5.838   9.215  0.00  0.00    -0.493 OA
ENDBRANCH  11  18
ENDBRANCH   7  16
ENDBRANCH   1   8
BRANCH   4  19
ATOM     19  N   UNL     1       0.062   1.273   2.761  0.00  0.00    -0.287 N 
ATOM     20  C   UNL     1      -0.726   1.634   1.728  0.00  0.00    +0.201 C 
ATOM     21  O   UNL     1      -1.764   2.226   1.935  0.00  0.00    -0.278 OA
ATOM     22  H   UNL     1       0.925   0.863   2.592  0.00  0.00    +0.155 HD
BRANCH  20  23
ATOM     23  C   UNL     1      -0.316   1.302   0.316  0.00  0.00    +0.019 C 
BRANCH  23  29
ATOM     24  C   UNL     1      -2.597   1.148  -0.490  0.00  0.00    -0.073 C 
ATOM     25  C   UNL     1      -3.662   1.949  -1.243  0.00  0.00    +0.017 C 
ATOM     26  C   UNL     1      -3.166   2.280  -2.623  0.00  0.00    -0.048 C 
ATOM     27  C   UNL     1      -1.897   2.199  -2.959  0.00  0.00    -0.041 C 
ATOM     28  C   UNL     1      -0.823   1.762  -2.006  0.00  0.00    -0.050 C 
ATOM     29  N   UNL     1      -1.314   1.869  -0.619  0.00  0.00    +0.388 N 
ATOM     30  H   UNL     1      -1.461   2.859  -0.391  0.00  0.00    -0.081 HD
BRANCH  26  31
ATOM     31  C   UNL     1      -4.143   2.716  -3.642  0.00  0.00    -0.022 A 
ATOM     32  C   UNL     1      -4.840   3.914  -3.479  0.00  0.00    +0.008 A 
ATOM     33  C   UNL     1      -5.747   4.317  -4.436  0.00  0.00    +0.001 A 
ATOM     34  C   UNL     1      -5.976   3.531  -5.552  0.00  0.00    +0.000 A 
ATOM     35  C   UNL     1      -5.292   2.340  -5.718  0.00  0.00    +0.001 A 
ATOM     36  C   UNL     1      -4.378   1.928  -4.770  0.00  0.00    +0.008 A 
ENDBRANCH  26  31
ENDBRANCH  23  29
ENDBRANCH  20  23
ENDBRANCH   4  19
TORSDOF 7
