REMARK  Name = ZINC47613577
REMARK  9 active torsions:
REMARK  status: ('A' for Active; 'I' for Inactive)
REMARK    1  A    between atoms: C_1  and  N_2
REMARK    2  A    between atoms: C_6  and  C_8
REMARK    3  A    between atoms: C_8  and  N_9
REMARK    4  A    between atoms: N_9  and  C_10
REMARK    5  A    between atoms: N_9  and  C_19
REMARK    6  A    between atoms: C_10  and  C_11
REMARK    7  A    between atoms: C_11  and  C_12
REMARK    8  A    between atoms: C_19  and  C_20
REMARK    9  A    between atoms: N_25  and  C_26
REMARK                            x       y       z     vdW  Elec       q    Type
REMARK                         _______ _______ _______ _____ _____    ______ ____
ROOT
ATOM      1  N   UNL     1      -3.455  -4.613   0.124  0.00  0.00    +0.391 N 
ATOM      2  H   UNL     1      -3.765  -4.245  -0.763  0.00  0.00    -0.080 HD
ENDROOT
BRANCH   1   3
ATOM      3  C   UNL     1      -2.092  -4.139   0.401  0.00  0.00    +0.020 C 
BRANCH   3   9
ATOM      4  C   UNL     1       3.129  -4.665  -2.767  0.00  0.00    +0.129 C 
ATOM      5  N   UNL     1       2.258  -4.334  -1.636  0.00  0.00    -0.302 N 
ATOM      6  C   UNL     1       0.932  -4.559  -1.719  0.00  0.00    +0.306 C 
ATOM      7  O   UNL     1       0.458  -5.035  -2.732  0.00  0.00    -0.252 OA
ATOM      8  N   UNL     1       0.130  -4.255  -0.679  0.00  0.00    -0.242 N 
ATOM      9  C   UNL     1      -1.196  -4.479  -0.762  0.00  0.00    +0.204 C 
ATOM     10  O   UNL     1      -1.668  -4.955  -1.772  0.00  0.00    -0.277 OA
ATOM     11  H   UNL     1       2.636  -3.954  -0.828  0.00  0.00    +0.150 HD
ATOM     12  H   UNL     1       0.508  -3.874   0.129  0.00  0.00    +0.159 HD
ENDBRANCH   3   9
ENDBRANCH   1   3
BRANCH   1  13
ATOM     13  C   UNL     1      -3.462  -6.081   0.074  0.00  0.00    -0.073 C 
BRANCH  13  14
ATOM     14  C   UNL     1      -4.852  -6.571  -0.337  0.00  0.00    +0.016 C 
BRANCH  14  15
ATOM     15  C   UNL     1      -4.859  -8.077  -0.388  0.00  0.00    -0.049 A 
ATOM     16  C   UNL     1      -4.530  -8.729  -1.562  0.00  0.00    +0.006 A 
ATOM     17  C   UNL     1      -4.536 -10.111  -1.610  0.00  0.00    +0.038 A 
ATOM     18  C   UNL     1      -4.872 -10.841  -0.482  0.00  0.00    +0.123 A 
ATOM     19  C   UNL     1      -5.201 -10.186   0.693  0.00  0.00    +0.038 A 
ATOM     20  C   UNL     1      -5.190  -8.805   0.740  0.00  0.00    +0.006 A 
ATOM     21  F   UNL     1      -4.878 -12.191  -0.528  0.00  0.00    -0.205 F 
ENDBRANCH  14  15
ENDBRANCH  13  14
ENDBRANCH   1  13
BRANCH   1  22
ATOM     22  C   UNL     1      -4.358  -4.155   1.188  0.00  0.00    +0.020 C 
BRANCH  22  23
ATOM     23  C   UNL     1      -4.479  -2.654   1.132  0.00  0.00    +0.204 C 
ATOM     24  O   UNL     1      -3.971  -2.038   0.220  0.00  0.00    -0.277 OA
ATOM     25  N   UNL     1      -5.153  -1.996   2.097  0.00  0.00    -0.242 N 
ATOM     26  C   UNL     1      -5.261  -0.653   2.047  0.00  0.00    +0.306 C 
ATOM     27  O   UNL     1      -4.751  -0.036   1.133  0.00  0.00    -0.252 OA
ATOM     28  N   UNL     1      -5.934   0.004   3.011  0.00  0.00    -0.302 N 
ATOM     29  C   UNL     1      -6.052   1.464   2.957  0.00  0.00    +0.129 C 
ATOM     30  H   UNL     1      -5.559  -2.489   2.826  0.00  0.00    +0.159 HD
ATOM     31  H   UNL     1      -6.341  -0.488   3.741  0.00  0.00    +0.150 HD
ENDBRANCH  22  23
ENDBRANCH   1  22
TORSDOF 7
