REMARK  Name = ZINC17068327
REMARK  3 active torsions:
REMARK  status: ('A' for Active; 'I' for Inactive)
REMARK    1  A    between atoms: C_1  and  C_2
REMARK    2  A    between atoms: C_2  and  C_3
REMARK    3  A    between atoms: N_12  and  C_15
REMARK                            x       y       z     vdW  Elec       q    Type
REMARK                         _______ _______ _______ _____ _____    ______ ____
ROOT
ATOM      1  C   UNL     1      -0.628  -2.254   0.855  0.00  0.00    -0.008 A 
ATOM      2  C   UNL     1      -0.887  -0.942   0.976  0.00  0.00    +0.026 A 
ATOM      3  C   UNL     1       0.116  -0.005   0.497  0.00  0.00    +0.071 A 
ATOM      4  C   UNL     1       1.261  -0.592  -0.046  0.00  0.00    +0.092 A 
ATOM      5  S   UNL     1       0.980  -2.286   0.091  0.00  0.00    -0.075 S 
ATOM      6  N   UNL     1       2.287   0.170  -0.535  0.00  0.00    -0.329 N 
ATOM      7  H   UNL     1       3.179  -0.315  -0.958  0.00  0.00    +0.168 HD
ATOM      8  C   UNL     1       2.217   1.515  -0.505  0.00  0.00    +0.166 A 
ATOM      9  S   UNL     1       3.519   2.436  -1.126  0.00  0.00    -0.012 S 
ATOM     10  N   UNL     1       1.146   2.147   0.003  0.00  0.00    -0.256 N 
ATOM     11  C   UNL     1       0.096   1.474   0.504  0.00  0.00    +0.267 A 
ATOM     12  O   UNL     1      -0.863   2.075   0.953  0.00  0.00    -0.267 OA
ENDROOT
BRANCH  10  13
ATOM     13  C   UNL     1       1.124   3.550   0.010  0.00  0.00    +0.056 A 
ATOM     14  C   UNL     1       1.626   4.246   1.101  0.00  0.00    +0.030 A 
ATOM     15  C   UNL     1       1.609   5.628   1.108  0.00  0.00    +0.051 A 
ATOM     16  C   UNL     1       1.081   6.322   0.032  0.00  0.00    +0.166 A 
ATOM     17  C   UNL     1       0.572   5.626  -1.062  0.00  0.00    +0.168 A 
ATOM     18  C   UNL     1       0.594   4.241  -1.070  0.00  0.00    +0.075 A 
ATOM     19  O   UNL     1       0.116   6.528  -1.980  0.00  0.00    -0.453 OA
ATOM     20  C   UNL     1       0.722   7.783  -1.619  0.00  0.00    +0.466 C 
ATOM     21  O   UNL     1       0.944   7.661  -0.202  0.00  0.00    -0.453 OA
ENDBRANCH  10  13
BRANCH   1  23
ATOM     22  C   UNL     1      -2.403  -3.815   0.105  0.00  0.00    +0.009 C 
ATOM     23  C   UNL     1      -1.491  -3.418   1.268  0.00  0.00    +0.039 C 
ENDBRANCH   1  23
TORSDOF 2
