REMARK  Name = ZINC23214202
REMARK  5 active torsions:
REMARK  status: ('A' for Active; 'I' for Inactive)
REMARK    1  A    between atoms: C_3  and  N_12
REMARK    2  A    between atoms: C_6  and  C_7
REMARK    3  A    between atoms: C_15  and  N_18
REMARK    4  A    between atoms: N_18  and  C_19
REMARK    5  A    between atoms: C_25  and  C_27
REMARK                            x       y       z     vdW  Elec       q    Type
REMARK                         _______ _______ _______ _____ _____    ______ ____
ROOT
ATOM      1  N   UNL     1      -0.767   2.530  -1.235  0.00  0.00    -0.330 N 
ATOM      2  C   UNL     1      -0.030   2.023  -0.070  0.00  0.00    +0.103 C 
ATOM      3  C   UNL     1      -0.808   2.345   1.207  0.00  0.00    +0.003 C 
ATOM      4  C   UNL     1      -2.192   1.694   1.134  0.00  0.00    -0.068 C 
ATOM      5  C   UNL     1      -2.920   2.201  -0.114  0.00  0.00    +0.003 C 
ATOM      6  C   UNL     1      -2.081   1.884  -1.353  0.00  0.00    +0.103 C 
ENDROOT
BRANCH   1   9
ATOM      7  C   UNL     1       0.184   2.632  -4.782  0.00  0.00    +0.012 A 
ATOM      8  C   UNL     1      -0.548   2.789  -3.624  0.00  0.00    +0.024 A 
ATOM      9  C   UNL     1      -0.024   2.371  -2.406  0.00  0.00    +0.030 A 
ATOM     10  C   UNL     1       1.242   1.799  -2.353  0.00  0.00    +0.024 A 
ATOM     11  C   UNL     1       1.976   1.636  -3.509  0.00  0.00    +0.012 A 
ATOM     12  C   UNL     1       1.451   2.054  -4.731  0.00  0.00    +0.001 A 
BRANCH  12  13
ATOM     13  C   UNL     1       2.241   1.885  -5.975  0.00  0.00    +0.078 A 
ATOM     14  C   UNL     1       3.487   1.320  -5.949  0.00  0.00    +0.075 A 
ATOM     15  S   UNL     1       3.916   1.387  -7.682  0.00  0.00    -0.083 S 
ATOM     16  C   UNL     1       2.453   2.130  -8.251  0.00  0.00    +0.156 A 
ATOM     17  N   UNL     1       1.760   2.271  -7.147  0.00  0.00    -0.247 NA
ENDBRANCH  12  13
ENDBRANCH   1   9
BRANCH   4  18
ATOM     18  N   UNL     1      -2.965   2.047   2.332  0.00  0.00    +0.384 N 
ATOM     19  H   UNL     1      -2.287   2.134   3.194  0.00  0.00    -0.085 HD
ATOM     20  H   UNL     1      -3.475   3.008   2.169  0.00  0.00    -0.085 HD
BRANCH  18  21
ATOM     21  C   UNL     1      -3.975   1.022   2.628  0.00  0.00    -0.055 C 
ATOM     22  C   UNL     1      -3.351  -0.082   3.484  0.00  0.00    +0.012 C 
ATOM     23  C   UNL     1      -4.421  -0.992   4.014  0.00  0.00    -0.033 C 
ATOM     24  C   UNL     1      -5.679  -0.689   4.048  0.00  0.00    -0.030 C 
ATOM     25  C   UNL     1      -6.245   0.609   3.553  0.00  0.00    +0.038 C 
ATOM     26  C   UNL     1      -5.132   1.651   3.415  0.00  0.00    +0.065 C 
BRANCH  26  27
ATOM     27  C   UNL     1      -4.651   2.063   4.782  0.00  0.00    +0.212 C 
ATOM     28  O   UNL     1      -4.820   1.327   5.731  0.00  0.00    -0.276 OA
ATOM     29  N   UNL     1      -4.031   3.248   4.950  0.00  0.00    -0.329 N 
ATOM     30  H   UNL     1      -3.680   3.548   5.948  0.00  0.00    +0.145 HD
ATOM     31  H   UNL     1      -3.877   3.915   4.088  0.00  0.00    +0.145 HD
ENDBRANCH  26  27
ENDBRANCH  18  21
ENDBRANCH   4  18
TORSDOF 5
