REMARK  Name = ZINC09060875
REMARK  5 active torsions:
REMARK  status: ('A' for Active; 'I' for Inactive)
REMARK    1  A    between atoms: C_1  and  O_2
REMARK    2  A    between atoms: O_2  and  C_3
REMARK    3  A    between atoms: C_6  and  O_26
REMARK    4  A    between atoms: C_7  and  N_9
REMARK    5  A    between atoms: O_26  and  C_27
REMARK                            x       y       z     vdW  Elec       q    Type
REMARK                         _______ _______ _______ _____ _____    ______ ____
ROOT
ATOM      1  N   UNL     1       1.323  -4.005  -2.286  0.00  0.00    -0.229 N 
ATOM      2  C   UNL     1       2.315  -4.834  -1.780  0.00  0.00    +0.157 C 
ATOM      3  N   UNL     1       1.965  -6.081  -2.075  0.00  0.00    -0.164 NA
ATOM      4  N   UNL     1       0.850  -6.076  -2.714  0.00  0.00    -0.216 N 
ATOM      5  C   UNL     1       0.415  -4.822  -2.862  0.00  0.00    +0.163 C 
ATOM      6  S   UNL     1      -1.029  -4.338  -3.644  0.00  0.00    -0.016 S 
ATOM      7  C   UNL     1       3.469  -4.431  -1.087  0.00  0.00    +0.031 C 
ATOM      8  C   UNL     1       3.720  -3.063  -0.833  0.00  0.00    +0.078 C 
ATOM      9  C   UNL     1       4.830  -2.686  -0.168  0.00  0.00    +0.226 C 
ATOM     10  N   UNL     1       5.765  -3.613   0.292  0.00  0.00    -0.350 NA
ATOM     11  C   UNL     1       5.584  -4.981   0.079  0.00  0.00    +0.025 A 
ATOM     12  C   UNL     1       4.446  -5.428  -0.602  0.00  0.00    +0.005 A 
ATOM     13  C   UNL     1       4.251  -6.791  -0.817  0.00  0.00    +0.010 A 
ATOM     14  C   UNL     1       5.185  -7.695  -0.350  0.00  0.00    +0.001 A 
ATOM     15  C   UNL     1       6.306  -7.249   0.327  0.00  0.00    +0.002 A 
ATOM     16  C   UNL     1       6.510  -5.894   0.534  0.00  0.00    +0.022 A 
ATOM     17  O   UNL     1       5.044  -1.374   0.060  0.00  0.00    -0.272 OA
ATOM     18  H   UNL     1       0.391  -6.867  -3.038  0.00  0.00    +0.176 HD
ATOM     19  H   UNL     1       6.654  -3.365  -0.114  0.00  0.00    +0.131 HD
ATOM     20  H   UNL     1       5.853  -3.477   1.288  0.00  0.00    +0.131 HD
ENDROOT
BRANCH   1  25
ATOM     21  C   UNL     1       0.606  -0.608  -1.056  0.00  0.00    +0.122 A 
ATOM     22  C   UNL     1       1.173   0.162  -2.062  0.00  0.00    +0.049 A 
ATOM     23  C   UNL     1       1.788  -0.448  -3.139  0.00  0.00    +0.051 A 
ATOM     24  C   UNL     1       1.840  -1.830  -3.217  0.00  0.00    +0.142 A 
ATOM     25  C   UNL     1       1.272  -2.605  -2.209  0.00  0.00    +0.087 A 
ATOM     26  C   UNL     1       0.660  -1.991  -1.127  0.00  0.00    +0.073 A 
BRANCH  21  28
ATOM     27  C   UNL     1      -0.017   1.425   0.010  0.00  0.00    +0.277 C 
ATOM     28  O   UNL     1       0.002  -0.004   0.002  0.00  0.00    -0.495 OA
ENDBRANCH  21  28
BRANCH  24  29
ATOM     29  O   UNL     1       2.445  -2.430  -4.278  0.00  0.00    -0.493 OA
ATOM     30  C   UNL     1       3.005  -1.573  -5.275  0.00  0.00    +0.277 C 
ENDBRANCH  24  29
ENDBRANCH   1  25
TORSDOF 3
