REMARK  Name = ZINC20794938
REMARK  3 active torsions:
REMARK  status: ('A' for Active; 'I' for Inactive)
REMARK    1  A    between atoms: N_14  and  C_18
REMARK    2  A    between atoms: C_18  and  C_19
REMARK    3  A    between atoms: N_21  and  C_22
REMARK                            x       y       z     vdW  Elec       q    Type
REMARK                         _______ _______ _______ _____ _____    ______ ____
ROOT
ATOM      1  C   UNL     1       2.132   3.623   3.789  0.00  0.00    +0.000 A 
ATOM      2  C   UNL     1       0.881   3.133   3.466  0.00  0.00    +0.000 A 
ATOM      3  C   UNL     1       0.670   2.541   2.237  0.00  0.00    +0.006 A 
ATOM      4  C   UNL     1       1.711   2.434   1.318  0.00  0.00    -0.012 A 
ATOM      5  C   UNL     1       2.947   2.913   1.643  0.00  0.00    -0.042 A 
ATOM      6  C   UNL     1       3.164   3.513   2.879  0.00  0.00    +0.004 A 
ATOM      7  C   UNL     1       4.134   2.827   0.707  0.00  0.00    +0.035 C 
ATOM      8  C   UNL     1       3.866   3.691  -0.524  0.00  0.00    +0.005 C 
ATOM      9  C   UNL     1       3.027   2.944  -1.541  0.00  0.00    +0.003 C 
ATOM     10  C   UNL     1       1.575   2.771  -1.148  0.00  0.00    +0.040 C 
ATOM     11  C   UNL     1       1.393   1.778  -0.005  0.00  0.00    +0.138 C 
ATOM     12  C   UNL     1       2.158   0.504  -0.210  0.00  0.00    +0.251 C 
ATOM     13  O   UNL     1       3.341   0.343  -0.422  0.00  0.00    -0.272 OA
ATOM     14  N   UNL     1       1.245  -0.492  -0.110  0.00  0.00    -0.215 N 
ATOM     15  C   UNL     1       0.004  -0.007   0.010  0.00  0.00    +0.310 C 
ATOM     16  O   UNL     1      -0.989  -0.703   0.091  0.00  0.00    -0.252 OA
ATOM     17  N   UNL     1      -0.018   1.338   0.016  0.00  0.00    -0.281 N 
ATOM     18  H   UNL     1      -0.826   2.083   0.032  0.00  0.00    +0.152 HD
ENDROOT
BRANCH  14  19
ATOM     19  C   UNL     1       1.581  -1.917  -0.132  0.00  0.00    +0.214 C 
BRANCH  19  20
ATOM     20  C   UNL     1       1.555  -2.417  -1.553  0.00  0.00    +0.235 C 
ATOM     21  O   UNL     1       1.283  -1.657  -2.459  0.00  0.00    -0.274 OA
ATOM     22  N   UNL     1       1.835  -3.709  -1.818  0.00  0.00    -0.284 N 
ATOM     23  H   UNL     1       2.155  -4.380  -1.007  0.00  0.00    +0.155 HD
BRANCH  22  24
ATOM     24  C   UNL     1       1.717  -4.197  -3.125  0.00  0.00    +0.036 A 
ATOM     25  C   UNL     1       2.034  -3.381  -4.203  0.00  0.00    +0.026 A 
ATOM     26  C   UNL     1       1.918  -3.863  -5.492  0.00  0.00    +0.043 A 
ATOM     27  C   UNL     1       1.485  -5.159  -5.711  0.00  0.00    +0.159 A 
ATOM     28  C   UNL     1       1.168  -5.977  -4.637  0.00  0.00    +0.160 A 
ATOM     29  C   UNL     1       1.288  -5.499  -3.345  0.00  0.00    +0.064 A 
ATOM     30  F   UNL     1       0.745  -7.242  -4.853  0.00  0.00    -0.202 F 
ATOM     31  F   UNL     1       1.372  -5.629  -6.973  0.00  0.00    -0.202 F 
ENDBRANCH  22  24
ENDBRANCH  19  20
ENDBRANCH  14  19
TORSDOF 3
