REMARK  Name = ZINC08714886
REMARK  5 active torsions:
REMARK  status: ('A' for Active; 'I' for Inactive)
REMARK    1  A    between atoms: C_1  and  C_2
REMARK    2  A    between atoms: C_4  and  C_17
REMARK    3  A    between atoms: C_5  and  S_9
REMARK    4  A    between atoms: C_6  and  C_8
REMARK    5  A    between atoms: S_9  and  N_12
REMARK                            x       y       z     vdW  Elec       q    Type
REMARK                         _______ _______ _______ _____ _____    ______ ____
ROOT
ATOM      1  C   UNL     1       5.073   0.772  -5.895  0.00  0.00    +0.044 C 
ATOM      2  C   UNL     1       4.839   0.774  -4.407  0.00  0.00    -0.050 A 
ATOM      3  C   UNL     1       4.715   1.972  -3.728  0.00  0.00    +0.008 A 
ATOM      4  C   UNL     1       4.499   1.973  -2.363  0.00  0.00    -0.023 A 
ATOM      5  C   UNL     1       4.409   0.777  -1.676  0.00  0.00    +0.118 A 
ATOM      6  C   UNL     1       4.540  -0.421  -2.353  0.00  0.00    -0.023 A 
ATOM      7  C   UNL     1       4.749  -0.422  -3.720  0.00  0.00    +0.008 A 
ATOM      8  C   UNL     1       4.448  -1.724  -1.603  0.00  0.00    +0.046 C 
ATOM      9  C   UNL     1       4.363   3.279  -1.623  0.00  0.00    +0.046 C 
ENDROOT
BRANCH   5  10
ATOM     10  S   UNL     1       4.135   0.779   0.065  0.00  0.00    +0.099 S 
ATOM     11  O   UNL     1       4.712   1.978   0.565  0.00  0.00    -0.146 OA
ATOM     12  O   UNL     1       4.517  -0.505   0.538  0.00  0.00    -0.146 OA
BRANCH  10  13
ATOM     13  N   UNL     1       2.501   0.905   0.303  0.00  0.00    -0.137 N 
ATOM     14  C   UNL     1       1.804   2.053   0.431  0.00  0.00    +0.136 A 
ATOM     15  C   UNL     1       0.503   1.727   0.611  0.00  0.00    +0.043 A 
ATOM     16  C   UNL     1       0.402   0.332   0.593  0.00  0.00    +0.136 A 
ATOM     17  N   UNL     1       1.600  -0.162   0.409  0.00  0.00    -0.158 NA
ENDBRANCH  10  13
ENDBRANCH   5  10
TORSDOF 2
