REMARK  Name = ZINC13273638
REMARK  7 active torsions:
REMARK  status: ('A' for Active; 'I' for Inactive)
REMARK    1  A    between atoms: C_1  and  C_2
REMARK    2  A    between atoms: C_8  and  S_16
REMARK    3  A    between atoms: C_12  and  C_13
REMARK    4  A    between atoms: S_16  and  C_17
REMARK    5  A    between atoms: C_17  and  C_18
REMARK    6  A    between atoms: N_20  and  C_21
REMARK    7  A    between atoms: C_26  and  C_27
REMARK                            x       y       z     vdW  Elec       q    Type
REMARK                         _______ _______ _______ _____ _____    ______ ____
ROOT
ATOM      1  S   UNL     1       0.058  -3.483  -4.762  0.00  0.00    -0.078 S 
ENDROOT
BRANCH   1   9
ATOM      2  C   UNL     1       0.098   1.483   0.041  0.00  0.00    +0.046 C 
ATOM      3  C   UNL     1       0.112  -0.024   0.028  0.00  0.00    -0.015 A 
ATOM      4  C   UNL     1       0.096  -0.715  -1.183  0.00  0.00    +0.076 A 
ATOM      5  C   UNL     1       0.066  -0.177  -2.562  0.00  0.00    +0.261 A 
ATOM      6  O   UNL     1       0.051   1.024  -2.762  0.00  0.00    -0.267 OA
ATOM      7  N   UNL     1       0.055  -1.047  -3.590  0.00  0.00    -0.301 N 
ATOM      8  H   UNL     1       0.035  -0.710  -4.499  0.00  0.00    +0.171 HD
ATOM      9  C   UNL     1       0.072  -2.394  -3.377  0.00  0.00    +0.170 A 
ATOM     10  N   UNL     1       0.099  -2.902  -2.161  0.00  0.00    -0.216 NA
ATOM     11  C   UNL     1       0.111  -2.128  -1.088  0.00  0.00    +0.117 A 
ATOM     12  S   UNL     1       0.146  -2.424   0.662  0.00  0.00    -0.062 S 
ATOM     13  C   UNL     1       0.146  -0.726   1.212  0.00  0.00    +0.106 A 
BRANCH  13  14
ATOM     14  C   UNL     1       0.172  -0.226   2.536  0.00  0.00    +0.393 C 
ATOM     15  O   UNL     1       0.165   0.983   2.734  0.00  0.00    -0.240 OA
ATOM     16  O   UNL     1       0.201  -1.002   3.484  0.00  0.00    -0.240 OA
ENDBRANCH  13  14
ENDBRANCH   1   9
BRANCH   1  17
ATOM     17  C   UNL     1       0.088  -5.138  -4.020  0.00  0.00    +0.173 C 
BRANCH  17  18
ATOM     18  C   UNL     1       0.078  -6.178  -5.111  0.00  0.00    +0.228 C 
ATOM     19  O   UNL     1       0.054  -5.836  -6.274  0.00  0.00    -0.275 OA
ATOM     20  N   UNL     1       0.097  -7.487  -4.793  0.00  0.00    -0.284 N 
ATOM     21  H   UNL     1       0.182  -7.761  -3.866  0.00  0.00    +0.155 HD
BRANCH  20  22
ATOM     22  C   UNL     1      -0.005  -8.448  -5.795  0.00  0.00    +0.050 A 
ATOM     23  C   UNL     1       0.576  -8.226  -7.035  0.00  0.00    +0.062 A 
ATOM     24  C   UNL     1       0.472  -9.182  -8.030  0.00  0.00    +0.125 A 
ATOM     25  C   UNL     1      -0.212 -10.368  -7.796  0.00  0.00    +0.039 A 
ATOM     26  C   UNL     1      -0.794 -10.605  -6.572  0.00  0.00    +0.020 A 
ATOM     27  C   UNL     1      -0.693  -9.649  -5.554  0.00  0.00    +0.084 A 
ATOM     28  F   UNL     1       1.039  -8.960  -9.236  0.00  0.00    -0.205 F 
BRANCH  27  29
ATOM     29  C   UNL     1      -1.307  -9.899  -4.242  0.00  0.00    +0.388 C 
ATOM     30  O   UNL     1      -1.819 -10.984  -4.003  0.00  0.00    -0.241 OA
ATOM     31  O   UNL     1      -1.306  -9.022  -3.389  0.00  0.00    -0.241 OA
ENDBRANCH  27  29
ENDBRANCH  20  22
ENDBRANCH  17  18
ENDBRANCH   1  17
TORSDOF 6
