REMARK  Name = ZINC20136713
REMARK  6 active torsions:
REMARK  status: ('A' for Active; 'I' for Inactive)
REMARK    1  A    between atoms: C_1  and  C_2
REMARK    2  A    between atoms: N_5  and  C_15
REMARK    3  A    between atoms: C_15  and  C_16
REMARK    4  A    between atoms: N_18  and  C_19
REMARK    5  A    between atoms: C_19  and  C_20
REMARK    6  A    between atoms: C_20  and  N_25
REMARK                            x       y       z     vdW  Elec       q    Type
REMARK                         _______ _______ _______ _____ _____    ______ ____
ROOT
ATOM      1  C   UNL     1       0.511   4.050   3.520  0.00  0.00    +0.197 C 
ATOM      2  O   UNL     1      -0.556   4.625   3.486  0.00  0.00    -0.278 OA
ATOM      3  N   UNL     1       1.142   3.731   2.373  0.00  0.00    -0.315 N 
ATOM      4  H   UNL     1       2.111   3.210   2.404  0.00  0.00    +0.149 HD
ENDROOT
BRANCH   1   5
ATOM      5  C   UNL     1       1.133   3.694   4.846  0.00  0.00    +0.019 C 
BRANCH   5   9
ATOM      6  C   UNL     1       1.102   4.807   9.588  0.00  0.00    +0.050 C 
ATOM      7  C   UNL     1       0.234   4.829   8.328  0.00  0.00    +0.154 C 
ATOM      8  C   UNL     1       0.943   4.078   7.222  0.00  0.00    -0.033 C 
ATOM      9  N   UNL     1       0.257   4.146   5.935  0.00  0.00    +0.391 N 
ATOM     10  C   UNL     1      -1.010   3.405   5.932  0.00  0.00    -0.038 C 
ATOM     11  C   UNL     1      -2.099   4.298   6.497  0.00  0.00    -0.021 A 
ATOM     12  C   UNL     1      -3.111   4.758   5.680  0.00  0.00    +0.025 A 
ATOM     13  C   UNL     1      -4.109   5.557   6.211  0.00  0.00    +0.041 A 
ATOM     14  C   UNL     1      -4.091   5.889   7.554  0.00  0.00    +0.023 A 
ATOM     15  C   UNL     1      -3.074   5.433   8.370  0.00  0.00    +0.047 A 
ATOM     16  C   UNL     1      -2.067   4.641   7.835  0.00  0.00    +0.122 A 
ATOM     17  O   UNL     1      -1.034   4.227   8.618  0.00  0.00    -0.491 OA
ATOM     18 CL   UNL     1      -5.386   6.143   5.190  0.00  0.00    -0.084 Cl
ATOM     19  H   UNL     1       0.008   5.205   5.771  0.00  0.00    -0.081 HD
ENDBRANCH   5   9
ENDBRANCH   1   5
BRANCH   3  20
ATOM     20  C   UNL     1       0.538   4.078   1.084  0.00  0.00    +0.126 C 
BRANCH  20  21
ATOM     21  C   UNL     1       1.390   3.504  -0.050  0.00  0.00    +0.038 C 
ATOM     22  C   UNL     1       0.732   3.804  -1.412  0.00  0.00    +0.024 C 
ATOM     23  C   UNL     1       1.438   5.094  -1.899  0.00  0.00    +0.002 C 
ATOM     24  C   UNL     1       2.902   4.875  -1.442  0.00  0.00    +0.002 C 
ATOM     25  C   UNL     1       2.770   4.185  -0.069  0.00  0.00    +0.024 C 
BRANCH  21  26
ATOM     26  N   UNL     1       1.547   2.054   0.124  0.00  0.00    -0.291 NA
ATOM     27  C   UNL     1       2.428   1.491  -0.910  0.00  0.00    +0.113 C 
ATOM     28  C   UNL     1       2.611  -0.007  -0.657  0.00  0.00    +0.175 C 
ATOM     29  O   UNL     1       1.330  -0.642  -0.633  0.00  0.00    -0.377 OA
ATOM     30  C   UNL     1       0.447  -0.119   0.363  0.00  0.00    +0.175 C 
ATOM     31  C   UNL     1       0.242   1.378   0.120  0.00  0.00    +0.113 C 
ENDBRANCH  21  26
ENDBRANCH  20  21
ENDBRANCH   3  20
TORSDOF 5
