REMARK  Name = ZINC19897234
REMARK  6 active torsions:
REMARK  status: ('A' for Active; 'I' for Inactive)
REMARK    1  A    between atoms: C_1  and  C_2
REMARK    2  A    between atoms: C_4  and  C_15
REMARK    3  A    between atoms: C_5  and  C_14
REMARK    4  A    between atoms: N_6  and  C_7
REMARK    5  A    between atoms: C_25  and  S_27
REMARK    6  A    between atoms: S_27  and  C_28
REMARK                            x       y       z     vdW  Elec       q    Type
REMARK                         _______ _______ _______ _____ _____    ______ ____
ROOT
ATOM      1  C   UNL     1      -3.737   4.220   1.444  0.00  0.00    +0.026 C 
ATOM      2  C   UNL     1      -4.505   5.179   0.816  0.00  0.00    +0.081 C 
ATOM      3  C   UNL     1      -4.587   5.270  -0.668  0.00  0.00    +0.153 C 
ATOM      4  N   UNL     1      -3.592   4.968  -1.461  0.00  0.00    -0.283 NA
ATOM      5  N   UNL     1      -5.842   5.713  -1.135  0.00  0.00    -0.151 N 
ATOM      6  C   UNL     1      -6.628   6.433  -0.264  0.00  0.00    +0.181 C 
ATOM      7  N   UNL     1      -6.384   6.704   0.994  0.00  0.00    -0.152 NA
ATOM      8  C   UNL     1      -5.298   6.170   1.582  0.00  0.00    +0.273 C 
ATOM      9  O   UNL     1      -4.974   6.496   2.713  0.00  0.00    -0.268 OA
ATOM     10  S   UNL     1      -8.031   6.838  -1.270  0.00  0.00    -0.027 S 
ATOM     11  C   UNL     1      -7.504   6.000  -2.758  0.00  0.00    +0.156 C 
ATOM     12  N   UNL     1      -6.346   5.503  -2.401  0.00  0.00    -0.158 NA
ATOM     13  H   UNL     1      -2.636   4.627  -1.038  0.00  0.00    +0.188 HD
ENDROOT
BRANCH   1  17
ATOM     14  C   UNL     1      -2.815   0.810  -2.168  0.00  0.00    +0.064 C 
ATOM     15  C   UNL     1      -2.727   1.671  -0.934  0.00  0.00    +0.022 A 
ATOM     16  C   UNL     1      -3.623   2.603  -0.571  0.00  0.00    +0.031 A 
ATOM     17  C   UNL     1      -3.128   3.189   0.683  0.00  0.00    -0.003 A 
ATOM     18  C   UNL     1      -1.945   2.528   0.970  0.00  0.00    +0.028 A 
ATOM     19  N   UNL     1      -1.725   1.623  -0.005  0.00  0.00    -0.317 N 
ATOM     20  C   UNL     1      -1.060   2.776   2.164  0.00  0.00    +0.064 C 
BRANCH  19  21
ATOM     21  C   UNL     1      -0.621   0.761  -0.061  0.00  0.00    +0.048 A 
ATOM     22  C   UNL     1       0.657   1.278  -0.229  0.00  0.00    +0.026 A 
ATOM     23  C   UNL     1       1.742   0.425  -0.292  0.00  0.00    +0.003 A 
ATOM     24  C   UNL     1       1.557  -0.941  -0.185  0.00  0.00    +0.015 A 
ATOM     25  C   UNL     1       0.285  -1.459  -0.018  0.00  0.00    +0.020 A 
ATOM     26  C   UNL     1      -0.805  -0.611   0.044  0.00  0.00    +0.041 A 
ATOM     27 BR   UNL     1       0.037  -3.328   0.127  0.00  0.00    -0.050 Br
ENDBRANCH  19  21
ENDBRANCH   1  17
BRANCH  11  28
ATOM     28  S   UNL     1      -8.331   5.875  -4.309  0.00  0.00    -0.101 S 
ATOM     29  C   UNL     1      -7.129   4.881  -5.227  0.00  0.00    +0.092 C 
ENDBRANCH  11  28
TORSDOF 3
