REMARK  Name = ZINC63933709
REMARK  8 active torsions:
REMARK  status: ('A' for Active; 'I' for Inactive)
REMARK    1  A    between atoms: C_1  and  C_2
REMARK    2  A    between atoms: C_2  and  C_3
REMARK    3  A    between atoms: C_3  and  C_4
REMARK    4  A    between atoms: C_4  and  C_5
REMARK    5  A    between atoms: C_5  and  N_6
REMARK    6  A    between atoms: C_13  and  O_33
REMARK    7  A    between atoms: C_15  and  C_18
REMARK    8  A    between atoms: C_18  and  N_20
REMARK                            x       y       z     vdW  Elec       q    Type
REMARK                         _______ _______ _______ _____ _____    ______ ____
ROOT
ATOM      1  N   UNL     1      -2.828  -4.058   0.007  0.00  0.00    -0.267 N 
ATOM      2  C   UNL     1      -2.824  -4.751  -1.206  0.00  0.00    +0.043 A 
ATOM      3  C   UNL     1      -3.206  -4.102  -2.374  0.00  0.00    +0.024 A 
ATOM      4  C   UNL     1      -3.207  -4.785  -3.574  0.00  0.00    +0.002 A 
ATOM      5  C   UNL     1      -2.829  -6.115  -3.612  0.00  0.00    +0.000 A 
ATOM      6  C   UNL     1      -2.447  -6.762  -2.452  0.00  0.00    +0.008 A 
ATOM      7  C   UNL     1      -2.442  -6.084  -1.246  0.00  0.00    +0.007 A 
ATOM      8  C   UNL     1      -2.014  -6.800   0.006  0.00  0.00    +0.187 C 
ATOM      9  C   UNL     1      -2.439  -6.049   1.233  0.00  0.00    +0.111 C 
ATOM     10  C   UNL     1      -2.807  -4.750   1.190  0.00  0.00    +0.255 C 
ATOM     11  O   UNL     1      -3.165  -4.125   2.333  0.00  0.00    -0.270 OA
ENDROOT
BRANCH   9  12
ATOM     12  C   UNL     1      -2.451  -6.723   2.475  0.00  0.00    +0.273 C 
ATOM     13  O   UNL     1      -2.794  -6.131   3.487  0.00  0.00    -0.268 OA
BRANCH  12  14
ATOM     14  N   UNL     1      -2.085  -8.015   2.543  0.00  0.00    -0.152 NA
ATOM     15  C   UNL     1      -2.096  -8.646   3.708  0.00  0.00    +0.164 A 
ATOM     16  N   UNL     1      -2.448  -8.168   4.936  0.00  0.00    -0.334 N 
ATOM     17  H   UNL     1      -2.738  -7.247   5.031  0.00  0.00    +0.168 HD
ATOM     18  C   UNL     1      -2.393  -8.992   6.047  0.00  0.00    +0.074 A 
ATOM     19  C   UNL     1      -1.963 -10.307   5.816  0.00  0.00    +0.041 A 
ATOM     20  S   UNL     1      -1.662 -10.341   4.066  0.00  0.00    -0.052 S 
ATOM     21  C   UNL     1      -1.858 -11.239   6.821  0.00  0.00    +0.037 A 
ATOM     22  C   UNL     1      -2.185 -10.887   8.120  0.00  0.00    +0.044 A 
ATOM     23  C   UNL     1      -2.613  -9.595   8.380  0.00  0.00    +0.042 A 
ATOM     24  C   UNL     1      -2.719  -8.663   7.375  0.00  0.00    +0.067 A 
ATOM     25 CL   UNL     1      -3.260  -7.057   7.750  0.00  0.00    -0.081 Cl
ATOM     26 CL   UNL     1      -2.060 -12.048   9.404  0.00  0.00    -0.083 Cl
ENDBRANCH  12  14
ENDBRANCH   9  12
BRANCH   8  27
ATOM     27  O   UNL     1      -0.591  -6.930   0.008  0.00  0.00    -0.382 OA
ATOM     28  H   UNL     1      -0.239  -7.383   0.786  0.00  0.00    +0.211 HD
ENDBRANCH   8  27
BRANCH   1  29
ATOM     29  C   UNL     1      -2.848  -2.593   0.015  0.00  0.00    +0.114 C 
BRANCH  29  30
ATOM     30  C   UNL     1      -1.413  -2.063   0.004  0.00  0.00    +0.019 C 
BRANCH  30  31
ATOM     31  C   UNL     1      -1.433  -0.534   0.013  0.00  0.00    +0.001 C 
BRANCH  31  33
ATOM     32  C   UNL     1      -0.019   1.526   0.010  0.00  0.00    +0.004 C 
ATOM     33  C   UNL     1       0.002  -0.004   0.002  0.00  0.00    -0.003 C 
ENDBRANCH  31  33
ENDBRANCH  30  31
ENDBRANCH  29  30
ENDBRANCH   1  29
TORSDOF 7
