REMARK  Name = ZINC39916303
REMARK  6 active torsions:
REMARK  status: ('A' for Active; 'I' for Inactive)
REMARK    1  A    between atoms: C_1  and  C_2
REMARK    2  A    between atoms: C_2  and  O_3
REMARK    3  A    between atoms: O_3  and  C_4
REMARK    4  A    between atoms: C_4  and  C_6
REMARK    5  A    between atoms: C_7  and  N_28
REMARK    6  A    between atoms: C_21  and  C_23
REMARK                            x       y       z     vdW  Elec       q    Type
REMARK                         _______ _______ _______ _____ _____    ______ ____
ROOT
ATOM      1  C   UNL     1       1.445  -2.321  -2.456  0.00  0.00    +0.102 C 
ATOM      2  C   UNL     1       1.597  -3.663  -2.554  0.00  0.00    +0.194 C 
ATOM      3  O   UNL     1       2.202  -4.237  -3.620  0.00  0.00    -0.445 OA
ATOM      4  C   UNL     1       2.472  -3.439  -4.656  0.00  0.00    +0.129 C 
ATOM      5  C   UNL     1       2.303  -3.821  -5.978  0.00  0.00    +0.035 A 
ATOM      6  C   UNL     1       1.852  -5.114  -6.316  0.00  0.00    +0.013 A 
ATOM      7  C   UNL     1       1.709  -5.456  -7.625  0.00  0.00    +0.001 A 
ATOM      8  C   UNL     1       1.998  -4.553  -8.644  0.00  0.00    +0.002 A 
ATOM      9  C   UNL     1       2.432  -3.289  -8.382  0.00  0.00    +0.024 A 
ATOM     10  C   UNL     1       2.601  -2.866  -7.053  0.00  0.00    +0.044 A 
ATOM     11  N   UNL     1       3.019  -1.621  -6.795  0.00  0.00    -0.284 N 
ATOM     12  C   UNL     1       3.224  -1.151  -5.580  0.00  0.00    +0.229 C 
ATOM     13  O   UNL     1       3.601  -0.003  -5.427  0.00  0.00    -0.275 OA
ATOM     14  C   UNL     1       2.990  -2.038  -4.378  0.00  0.00    +0.154 C 
ATOM     15  C   UNL     1       1.908  -1.368  -3.523  0.00  0.00    +0.087 C 
ATOM     16  H   UNL     1       3.181  -1.029  -7.546  0.00  0.00    +0.155 HD
ENDROOT
BRANCH  15  17
ATOM     17  C   UNL     1       2.477  -0.131  -2.877  0.00  0.00    -0.001 A 
ATOM     18  C   UNL     1       2.072   1.157  -2.995  0.00  0.00    +0.012 A 
ATOM     19  C   UNL     1       2.752   2.140  -2.301  0.00  0.00    +0.008 A 
ATOM     20  C   UNL     1       3.803   1.787  -1.522  0.00  0.00    +0.045 A 
ATOM     21  S   UNL     1       3.855   0.017  -1.751  0.00  0.00    -0.101 S 
ENDBRANCH  15  17
BRANCH   2  22
ATOM     22  N   UNL     1       1.125  -4.462  -1.547  0.00  0.00    -0.329 N 
ATOM     23  H   UNL     1       0.610  -4.075  -0.822  0.00  0.00    +0.145 HD
ATOM     24  H   UNL     1       1.307  -5.415  -1.559  0.00  0.00    +0.145 HD
ENDBRANCH   2  22
BRANCH   1  25
ATOM     25  C   UNL     1       0.823  -1.798  -1.310  0.00  0.00    +0.341 C 
ATOM     26  O   UNL     1      -0.331  -1.413  -1.366  0.00  0.00    -0.245 OA
BRANCH  25  27
ATOM     27  O   UNL     1       1.505  -1.722  -0.147  0.00  0.00    -0.462 OA
BRANCH  27  29
ATOM     28  C   UNL     1       1.738  -1.172   2.195  0.00  0.00    +0.048 C 
ATOM     29  C   UNL     1       0.811  -1.178   0.978  0.00  0.00    +0.229 C 
ENDBRANCH  27  29
ENDBRANCH  25  27
ENDBRANCH   1  25
TORSDOF 5
