REMARK  Name = ZINC33632941
REMARK  8 active torsions:
REMARK  status: ('A' for Active; 'I' for Inactive)
REMARK    1  A    between atoms: C_1  and  C_2
REMARK    2  A    between atoms: C_2  and  N_3
REMARK    3  A    between atoms: N_6  and  C_9
REMARK    4  A    between atoms: C_10  and  N_16
REMARK    5  A    between atoms: C_17  and  C_19
REMARK    6  A    between atoms: C_19  and  S_20
REMARK    7  A    between atoms: S_20  and  C_21
REMARK    8  A    between atoms: C_24  and  C_26
REMARK                            x       y       z     vdW  Elec       q    Type
REMARK                         _______ _______ _______ _____ _____    ______ ____
ROOT
ATOM      1  N   UNL     1       3.344  -2.325  -5.351  0.00  0.00    -0.283 N 
ATOM      2  C   UNL     1       3.999  -1.918  -6.456  0.00  0.00    +0.228 C 
ATOM      3  O   UNL     1       5.178  -2.172  -6.591  0.00  0.00    -0.275 OA
ATOM      4  H   UNL     1       2.389  -2.179  -5.272  0.00  0.00    +0.155 HD
ENDROOT
BRANCH   1   6
ATOM      5  C   UNL     1       3.667  -2.754  -2.989  0.00  0.00    +0.070 A 
ATOM      6  C   UNL     1       4.044  -2.959  -4.315  0.00  0.00    +0.056 A 
ATOM      7  C   UNL     1       5.113  -3.792  -4.607  0.00  0.00    +0.025 A 
ATOM      8  C   UNL     1       5.802  -4.418  -3.584  0.00  0.00    +0.003 A 
ATOM      9  C   UNL     1       5.428  -4.216  -2.269  0.00  0.00    +0.022 A 
ATOM     10  C   UNL     1       4.367  -3.381  -1.968  0.00  0.00    +0.064 A 
ATOM     11 CL   UNL     1       3.906  -3.124  -0.314  0.00  0.00    -0.082 Cl
BRANCH   5  15
ATOM     12  N   UNL     1       0.696  -0.501  -1.192  0.00  0.00    +0.382 N 
ATOM     13  C   UNL     1       2.104  -0.089  -1.145  0.00  0.00    -0.060 C 
ATOM     14  C   UNL     1       2.793  -0.474  -2.459  0.00  0.00    +0.086 C 
ATOM     15  N   UNL     1       2.589  -1.913  -2.687  0.00  0.00    -0.331 N 
ATOM     16  C   UNL     1       1.220  -2.443  -2.591  0.00  0.00    +0.086 C 
ATOM     17  C   UNL     1       0.606  -1.965  -1.271  0.00  0.00    -0.060 C 
ATOM     18  H   UNL     1       0.256  -0.095  -2.004  0.00  0.00    -0.082 HD
BRANCH  12  20
ATOM     19  C   UNL     1      -0.006   1.495   0.040  0.00  0.00    -0.017 C 
ATOM     20  C   UNL     1       0.010  -0.035   0.020  0.00  0.00    -0.082 C 
ENDBRANCH  12  20
ENDBRANCH   5  15
ENDBRANCH   1   6
BRANCH   2  21
ATOM     21  C   UNL     1       3.268  -1.147  -7.525  0.00  0.00    +0.175 C 
BRANCH  21  22
ATOM     22  S   UNL     1       4.414  -0.747  -8.873  0.00  0.00    -0.056 S 
BRANCH  22  23
ATOM     23  C   UNL     1       3.421   0.141 -10.026  0.00  0.00    +0.278 A 
ATOM     24  N   UNL     1       2.147   0.430  -9.895  0.00  0.00    -0.101 NA
ATOM     25  N   UNL     1       1.748   1.087 -10.926  0.00  0.00    -0.106 NA
ATOM     26  C   UNL     1       2.749   1.244 -11.757  0.00  0.00    +0.249 A 
ATOM     27  O   UNL     1       3.831   0.654 -11.203  0.00  0.00    -0.411 OA
BRANCH  26  28
ATOM     28  C   UNL     1       2.705   1.944 -13.058  0.00  0.00    +0.039 A 
ATOM     29  C   UNL     1       3.854   2.030 -13.846  0.00  0.00    +0.016 A 
ATOM     30  C   UNL     1       3.807   2.684 -15.060  0.00  0.00    +0.039 A 
ATOM     31  C   UNL     1       2.622   3.255 -15.497  0.00  0.00    +0.123 A 
ATOM     32  C   UNL     1       1.478   3.172 -14.718  0.00  0.00    +0.039 A 
ATOM     33  C   UNL     1       1.512   2.515 -13.506  0.00  0.00    +0.016 A 
ATOM     34  F   UNL     1       2.581   3.894 -16.686  0.00  0.00    -0.205 F 
ENDBRANCH  26  28
ENDBRANCH  22  23
ENDBRANCH  21  22
ENDBRANCH   2  21
TORSDOF 7
