REMARK  Name = ZINC09692706
REMARK  7 active torsions:
REMARK  status: ('A' for Active; 'I' for Inactive)
REMARK    1  A    between atoms: C_1  and  C_2
REMARK    2  A    between atoms: C_5  and  N_8
REMARK    3  A    between atoms: C_14  and  C_29
REMARK    4  A    between atoms: N_17  and  C_20
REMARK    5  A    between atoms: C_20  and  C_21
REMARK    6  A    between atoms: N_31  and  C_32
REMARK    7  A    between atoms: C_32  and  C_33
REMARK                            x       y       z     vdW  Elec       q    Type
REMARK                         _______ _______ _______ _____ _____    ______ ____
ROOT
ATOM      1  N   UNL     1      -1.201   1.920   0.024  0.00  0.00    -0.228 N 
ATOM      2  C   UNL     1      -1.127   3.105  -0.620  0.00  0.00    +0.269 A 
ATOM      3  O   UNL     1      -2.091   3.559  -1.204  0.00  0.00    -0.266 OA
ATOM      4  C   UNL     1       0.158   3.832  -0.600  0.00  0.00    +0.064 A 
ATOM      5  C   UNL     1       0.312   5.057  -1.246  0.00  0.00    +0.016 A 
ATOM      6  C   UNL     1       1.527   5.703  -1.204  0.00  0.00    +0.014 A 
ATOM      7  C   UNL     1       2.604   5.134  -0.517  0.00  0.00    +0.039 A 
ATOM      8  C   UNL     1       2.458   3.910   0.131  0.00  0.00    +0.039 A 
ATOM      9  C   UNL     1       1.237   3.256   0.092  0.00  0.00    +0.060 A 
ATOM     10  N   UNL     1       1.049   2.034   0.724  0.00  0.00    -0.289 N 
ATOM     11  C   UNL     1      -0.142   1.413   0.675  0.00  0.00    +0.337 A 
ATOM     12  O   UNL     1      -0.265   0.345   1.242  0.00  0.00    -0.246 OA
ENDROOT
BRANCH   1  17
ATOM     13  C   UNL     1      -6.088  -0.965  -0.013  0.00  0.00    +0.044 C 
ATOM     14  C   UNL     1      -4.790  -0.199  -0.003  0.00  0.00    -0.050 A 
ATOM     15  C   UNL     1      -4.543   0.727   0.993  0.00  0.00    +0.005 A 
ATOM     16  C   UNL     1      -3.354   1.431   1.005  0.00  0.00    +0.026 A 
ATOM     17  C   UNL     1      -2.407   1.207   0.015  0.00  0.00    +0.054 A 
ATOM     18  C   UNL     1      -2.660   0.280  -0.987  0.00  0.00    +0.026 A 
ATOM     19  C   UNL     1      -3.848  -0.425  -0.990  0.00  0.00    +0.005 A 
ENDBRANCH   1  17
BRANCH   7  20
ATOM     20  C   UNL     1       3.907   5.837  -0.478  0.00  0.00    +0.244 C 
ATOM     21  O   UNL     1       4.845   5.345   0.117  0.00  0.00    -0.270 OA
ATOM     22  N   UNL     1       4.052   7.022  -1.104  0.00  0.00    -0.304 N 
ATOM     23  H   UNL     1       3.304   7.414  -1.580  0.00  0.00    +0.149 HD
BRANCH  22  24
ATOM     24  C   UNL     1       5.341   7.717  -1.065  0.00  0.00    +0.179 C 
BRANCH  24  25
ATOM     25  C   UNL     1       5.239   9.009  -1.835  0.00  0.00    +0.122 A 
ATOM     26  C   UNL     1       4.878  10.201  -1.327  0.00  0.00    +0.046 A 
ATOM     27  C   UNL     1       4.916  11.129  -2.393  0.00  0.00    +0.041 A 
ATOM     28  C   UNL     1       5.297  10.448  -3.489  0.00  0.00    +0.195 A 
ATOM     29  O   UNL     1       5.497   9.166  -3.144  0.00  0.00    -0.466 OA
ENDBRANCH  24  25
ENDBRANCH  22  24
ENDBRANCH   7  20
BRANCH  10  30
ATOM     30  C   UNL     1       2.160   1.416   1.450  0.00  0.00    +0.163 C 
BRANCH  30  31
ATOM     31  C   UNL     1       2.244   2.004   2.836  0.00  0.00    -0.009 A 
ATOM     32  C   UNL     1       3.090   3.068   3.084  0.00  0.00    +0.009 A 
ATOM     33  C   UNL     1       3.164   3.612   4.352  0.00  0.00    +0.039 A 
ATOM     34  C   UNL     1       2.398   3.083   5.378  0.00  0.00    +0.125 A 
ATOM     35  C   UNL     1       1.555   2.013   5.130  0.00  0.00    +0.058 A 
ATOM     36  C   UNL     1       1.479   1.474   3.859  0.00  0.00    +0.049 A 
ATOM     37 CL   UNL     1       0.422   0.132   3.548  0.00  0.00    -0.083 Cl
ATOM     38  F   UNL     1       2.474   3.611   6.619  0.00  0.00    -0.205 F 
ENDBRANCH  30  31
ENDBRANCH  10  30
TORSDOF 6
