REMARK  Name = ZINC23005312
REMARK  4 active torsions:
REMARK  status: ('A' for Active; 'I' for Inactive)
REMARK    1  A    between atoms: C_6  and  C_7
REMARK    2  A    between atoms: N_12  and  C_15
REMARK    3  A    between atoms: C_15  and  C_16
REMARK    4  A    between atoms: N_18  and  C_19
REMARK                            x       y       z     vdW  Elec       q    Type
REMARK                         _______ _______ _______ _____ _____    ______ ____
ROOT
ATOM      1  C   UNL     1      -0.012   1.237  -0.014  0.00  0.00    +0.246 C 
ATOM      2  O   UNL     1       0.060   0.120  -0.488  0.00  0.00    -0.270 OA
ATOM      3  N   UNL     1       1.087   1.823   0.501  0.00  0.00    -0.301 N 
ATOM      4  C   UNL     1       1.039   3.202   1.010  0.00  0.00    +0.089 C 
ATOM      5  C   UNL     1       1.633   3.214   2.428  0.00  0.00    -0.059 C 
ATOM      6  N   UNL     1       2.971   2.610   2.397  0.00  0.00    +0.387 N 
ATOM      7  C   UNL     1       2.910   1.199   1.995  0.00  0.00    -0.059 C 
ATOM      8  C   UNL     1       2.367   1.102   0.565  0.00  0.00    +0.089 C 
ATOM      9  H   UNL     1       3.564   3.147   1.643  0.00  0.00    -0.081 HD
ENDROOT
BRANCH   1  15
ATOM     10  C   UNL     1      -1.334   3.344  -0.147  0.00  0.00    +0.014 A 
ATOM     11  C   UNL     1      -2.542   4.008  -0.146  0.00  0.00    +0.021 A 
ATOM     12  C   UNL     1      -3.724   3.301   0.002  0.00  0.00    +0.041 A 
ATOM     13  C   UNL     1      -3.700   1.924   0.146  0.00  0.00    +0.021 A 
ATOM     14  C   UNL     1      -2.498   1.248   0.141  0.00  0.00    +0.014 A 
ATOM     15  C   UNL     1      -1.304   1.955  -0.009  0.00  0.00    +0.037 A 
ATOM     16 CL   UNL     1      -5.242   4.145   0.008  0.00  0.00    -0.084 Cl
ENDBRANCH   1  15
BRANCH   6  17
ATOM     17  C   UNL     1       3.645   2.759   3.694  0.00  0.00    +0.019 C 
BRANCH  17  18
ATOM     18  C   UNL     1       2.841   2.062   4.761  0.00  0.00    +0.201 C 
ATOM     19  O   UNL     1       1.774   1.557   4.483  0.00  0.00    -0.278 OA
ATOM     20  N   UNL     1       3.307   2.001   6.024  0.00  0.00    -0.286 N 
ATOM     21  H   UNL     1       4.239   2.521   6.293  0.00  0.00    +0.155 HD
BRANCH  20  22
ATOM     22  C   UNL     1       2.605   1.275   6.996  0.00  0.00    +0.051 A 
ATOM     23  C   UNL     1       1.237   1.083   6.865  0.00  0.00    +0.073 A 
ATOM     24  C   UNL     1       0.542   0.364   7.826  0.00  0.00    +0.164 A 
ATOM     25  C   UNL     1       1.218  -0.165   8.919  0.00  0.00    +0.163 A 
ATOM     26  C   UNL     1       2.585   0.030   9.048  0.00  0.00    +0.066 A 
ATOM     27  C   UNL     1       3.279   0.743   8.087  0.00  0.00    +0.043 A 
ATOM     28 BR   UNL     1       5.144   0.999   8.264  0.00  0.00    -0.048 Br
ATOM     29  O   UNL     1       0.554  -0.877   9.871  0.00  0.00    -0.485 OA
ATOM     30  C   UNL     1      -0.870  -0.733   9.905  0.00  0.00    +0.270 C 
ATOM     31  C   UNL     1      -1.399  -0.849   8.469  0.00  0.00    +0.270 C 
ATOM     32  O   UNL     1      -0.801   0.188   7.685  0.00  0.00    -0.485 OA
ENDBRANCH  20  22
ENDBRANCH  17  18
ENDBRANCH   6  17
TORSDOF 4
