REMARK  Name = ZINC09856401
REMARK  7 active torsions:
REMARK  status: ('A' for Active; 'I' for Inactive)
REMARK    1  A    between atoms: C_1  and  C_2
REMARK    2  A    between atoms: C_5  and  N_9
REMARK    3  A    between atoms: C_6  and  C_8
REMARK    4  A    between atoms: C_10  and  C_12
REMARK    5  A    between atoms: N_15  and  S_18
REMARK    6  A    between atoms: S_18  and  C_21
REMARK    7  A    between atoms: N_30  and  C_31
REMARK                            x       y       z     vdW  Elec       q    Type
REMARK                         _______ _______ _______ _____ _____    ______ ____
ROOT
ATOM      1  C   UNL     1       2.864   0.825  -4.415  0.00  0.00    +0.078 C 
ATOM      2  C   UNL     1       3.176   2.083  -3.600  0.00  0.00    +0.030 C 
ATOM      3  C   UNL     1       3.901   1.684  -2.311  0.00  0.00    +0.110 C 
ATOM      4  N   UNL     1       3.087   0.690  -1.598  0.00  0.00    -0.177 NA
ATOM      5  C   UNL     1       2.659  -0.518  -2.316  0.00  0.00    +0.110 C 
ATOM      6  C   UNL     1       1.943  -0.092  -3.607  0.00  0.00    +0.030 C 
ENDROOT
BRANCH   1   8
ATOM      7  N   UNL     1       1.809   0.268  -6.581  0.00  0.00    -0.285 N 
ATOM      8  C   UNL     1       2.180   1.217  -5.699  0.00  0.00    +0.220 C 
ATOM      9  O   UNL     1       1.964   2.386  -5.940  0.00  0.00    -0.275 OA
ATOM     10  H   UNL     1       2.052  -0.659  -6.428  0.00  0.00    +0.155 HD
BRANCH   7  15
ATOM     11  C   UNL     1      -1.177   1.690 -11.191  0.00  0.00    +0.044 C 
ATOM     12  C   UNL     1      -0.383   1.312  -9.967  0.00  0.00    -0.050 A 
ATOM     13  C   UNL     1      -0.428   2.114  -8.841  0.00  0.00    +0.005 A 
ATOM     14  C   UNL     1       0.293   1.768  -7.715  0.00  0.00    +0.024 A 
ATOM     15  C   UNL     1       1.073   0.618  -7.718  0.00  0.00    +0.036 A 
ATOM     16  C   UNL     1       1.116  -0.184  -8.850  0.00  0.00    -0.029 A 
ATOM     17  C   UNL     1       0.388   0.165  -9.971  0.00  0.00    +0.008 A 
ATOM     18  C   UNL     1       1.957  -1.435  -8.856  0.00  0.00    +0.045 C 
ENDBRANCH   7  15
ENDBRANCH   1   8
BRANCH   4  19
ATOM     19  S   UNL     1       2.665   0.924  -0.014  0.00  0.00    +0.061 S 
ATOM     20  O   UNL     1       3.634   1.804   0.538  0.00  0.00    -0.153 OA
ATOM     21  O   UNL     1       2.406  -0.362   0.531  0.00  0.00    -0.153 OA
BRANCH  19  22
ATOM     22  C   UNL     1       1.132   1.793  -0.006  0.00  0.00    +0.109 A 
ATOM     23  C   UNL     1       1.125   3.177   0.000  0.00  0.00    +0.031 A 
ATOM     24  C   UNL     1      -0.072   3.865   0.006  0.00  0.00    +0.031 A 
ATOM     25  C   UNL     1      -1.269   3.166   0.006  0.00  0.00    +0.090 A 
ATOM     26  C   UNL     1      -1.263   1.772  -0.006  0.00  0.00    +0.159 A 
ATOM     27  C   UNL     1      -0.057   1.090  -0.006  0.00  0.00    +0.077 A 
ATOM     28  O   UNL     1      -2.556   1.363   0.002  0.00  0.00    -0.407 OA
ATOM     29  C   UNL     1      -3.358   2.440   0.009  0.00  0.00    +0.421 A 
ATOM     30  O   UNL     1      -4.574   2.409   0.013  0.00  0.00    -0.223 OA
ATOM     31  N   UNL     1      -2.608   3.559   0.012  0.00  0.00    -0.277 N 
ATOM     32  C   UNL     1      -3.106   4.936   0.020  0.00  0.00    +0.156 C 
ENDBRANCH  19  22
ENDBRANCH   4  19
TORSDOF 4
