REMARK  Name = ZINC51147676
REMARK  4 active torsions:
REMARK  status: ('A' for Active; 'I' for Inactive)
REMARK    1  A    between atoms: C_3  and  N_16
REMARK    2  A    between atoms: C_6  and  C_7
REMARK    3  A    between atoms: C_7  and  N_8
REMARK    4  A    between atoms: N_16  and  N_17
REMARK                            x       y       z     vdW  Elec       q    Type
REMARK                         _______ _______ _______ _____ _____    ______ ____
ROOT
ATOM      1  C   UNL     1      -0.017   1.384   0.010  0.00  0.00    +0.010 A 
ATOM      2  C   UNL     1       1.190   2.061   0.002  0.00  0.00    +0.045 A 
ATOM      3  C   UNL     1       2.374   1.332  -0.013  0.00  0.00    +0.132 A 
ATOM      4  N   UNL     1       2.350   0.008  -0.020  0.00  0.00    -0.239 NA
ATOM      5  C   UNL     1       1.215  -0.664  -0.013  0.00  0.00    +0.118 A 
ATOM      6  C   UNL     1       0.002  -0.004   0.002  0.00  0.00    -0.009 A 
ENDROOT
BRANCH   3   7
ATOM      7  N   UNL     1       3.594   1.999  -0.022  0.00  0.00    -0.268 N 
ATOM      8  H   UNL     1       3.616   2.969  -0.017  0.00  0.00    +0.167 HD
BRANCH   7   9
ATOM      9  N   UNL     1       4.761   1.289  -0.037  0.00  0.00    -0.255 NA
ATOM     10  H   UNL     1       4.788   0.655  -0.822  0.00  0.00    +0.140 HD
ATOM     11  H   UNL     1       5.559   1.905  -0.042  0.00  0.00    +0.140 HD
ENDBRANCH   7   9
ENDBRANCH   3   7
BRANCH   6  12
ATOM     12  C   UNL     1      -1.288  -0.783   0.011  0.00  0.00    +0.161 C 
BRANCH  12  13
ATOM     13  N   UNL     1      -1.720  -1.028  -1.368  0.00  0.00    -0.310 N 
ATOM     14  C   UNL     1      -2.523  -0.127  -1.990  0.00  0.00    +0.104 A 
ATOM     15  C   UNL     1      -2.935  -0.331  -3.264  0.00  0.00    +0.034 A 
ATOM     16  C   UNL     1      -2.531  -1.484  -3.953  0.00  0.00    +0.022 A 
ATOM     17  C   UNL     1      -1.724  -2.387  -3.326  0.00  0.00    +0.071 A 
ATOM     18  C   UNL     1      -1.311  -2.141  -2.005  0.00  0.00    +0.252 A 
ATOM     19  O   UNL     1      -0.585  -2.939  -1.434  0.00  0.00    -0.268 OA
ATOM     20 BR   UNL     1      -4.054   0.936  -4.112  0.00  0.00    -0.049 Br
ENDBRANCH  12  13
ENDBRANCH   6  12
TORSDOF 4
