REMARK  Name = ZINC40158838
REMARK  8 active torsions:
REMARK  status: ('A' for Active; 'I' for Inactive)
REMARK    1  A    between atoms: C_1  and  C_2
REMARK    2  A    between atoms: C_2  and  C_4
REMARK    3  A    between atoms: C_2  and  N_14
REMARK    4  A    between atoms: C_7  and  C_10
REMARK    5  A    between atoms: N_17  and  C_18
REMARK    6  A    between atoms: C_18  and  C_20
REMARK    7  A    between atoms: C_18  and  C_21
REMARK    8  A    between atoms: C_24  and  C_27
REMARK                            x       y       z     vdW  Elec       q    Type
REMARK                         _______ _______ _______ _____ _____    ______ ____
ROOT
ATOM      1  N   UNL     1       0.688  -0.476  -1.203  0.00  0.00    -0.293 N 
ATOM      2  C   UNL     1       0.006  -0.608  -2.358  0.00  0.00    +0.301 C 
ATOM      3  O   UNL     1      -1.178  -0.335  -2.400  0.00  0.00    -0.253 OA
ATOM      4  N   UNL     1       0.637  -1.043  -3.467  0.00  0.00    -0.293 N 
ATOM      5  H   UNL     1       1.632  -0.695  -1.170  0.00  0.00    +0.151 HD
ATOM      6  H   UNL     1       1.582  -1.261  -3.434  0.00  0.00    +0.151 HD
ENDROOT
BRANCH   1   8
ATOM      7  C   UNL     1      -0.019   1.526   0.010  0.00  0.00    +0.033 C 
ATOM      8  C   UNL     1       0.002  -0.004   0.002  0.00  0.00    +0.102 C 
BRANCH   8   9
ATOM      9  C   UNL     1       0.731  -0.503   1.223  0.00  0.00    -0.027 A 
ATOM     10  C   UNL     1       2.113  -0.514   1.247  0.00  0.00    +0.006 A 
ATOM     11  C   UNL     1       2.782  -0.972   2.366  0.00  0.00    +0.013 A 
ATOM     12  C   UNL     1       2.068  -1.419   3.463  0.00  0.00    +0.055 A 
ATOM     13  C   UNL     1       0.686  -1.407   3.439  0.00  0.00    +0.013 A 
ATOM     14  C   UNL     1       0.017  -0.945   2.321  0.00  0.00    +0.006 A 
BRANCH  12  15
ATOM     15  C   UNL     1       2.797  -1.919   4.683  0.00  0.00    +0.417 C 
ATOM     16  F   UNL     1       3.025  -0.853   5.560  0.00  0.00    -0.166 F 
ATOM     17  F   UNL     1       2.022  -2.892   5.324  0.00  0.00    -0.166 F 
ATOM     18  F   UNL     1       4.021  -2.476   4.300  0.00  0.00    -0.166 F 
ENDBRANCH  12  15
ENDBRANCH   8   9
ENDBRANCH   1   8
BRANCH   4  19
ATOM     19  C   UNL     1      -0.104  -1.186  -4.723  0.00  0.00    +0.102 C 
ATOM     20  C   UNL     1      -0.141   0.160  -5.449  0.00  0.00    +0.033 C 
BRANCH  19  21
ATOM     21  C   UNL     1       0.578  -2.208  -5.595  0.00  0.00    -0.027 A 
ATOM     22  C   UNL     1       1.958  -2.251  -5.660  0.00  0.00    +0.006 A 
ATOM     23  C   UNL     1       2.584  -3.189  -6.460  0.00  0.00    +0.013 A 
ATOM     24  C   UNL     1       1.829  -4.085  -7.194  0.00  0.00    +0.055 A 
ATOM     25  C   UNL     1       0.449  -4.043  -7.128  0.00  0.00    +0.013 A 
ATOM     26  C   UNL     1      -0.176  -3.108  -6.325  0.00  0.00    +0.006 A 
BRANCH  24  27
ATOM     27  C   UNL     1       2.511  -5.107  -8.067  0.00  0.00    +0.417 C 
ATOM     28  F   UNL     1       2.745  -6.271  -7.326  0.00  0.00    -0.166 F 
ATOM     29  F   UNL     1       1.692  -5.407  -9.161  0.00  0.00    -0.166 F 
ATOM     30  F   UNL     1       3.729  -4.592  -8.524  0.00  0.00    -0.166 F 
ENDBRANCH  24  27
ENDBRANCH  19  21
ENDBRANCH   4  19
TORSDOF 6
