REMARK  Name = ZINC06929646
REMARK  3 active torsions:
REMARK  status: ('A' for Active; 'I' for Inactive)
REMARK    1  A    between atoms: C_1  and  C_2
REMARK    2  A    between atoms: N_7  and  S_9
REMARK    3  A    between atoms: S_9  and  C_12
REMARK                            x       y       z     vdW  Elec       q    Type
REMARK                         _______ _______ _______ _____ _____    ______ ____
ROOT
ATOM      1  C   UNL     1       1.712  -3.159   3.488  0.00  0.00    +0.106 A 
ATOM      2  C   UNL     1       2.590  -4.217   3.294  0.00  0.00    +0.030 A 
ATOM      3  C   UNL     1       3.660  -4.405   4.140  0.00  0.00    +0.028 A 
ATOM      4  C   UNL     1       3.867  -3.528   5.200  0.00  0.00    +0.047 A 
ATOM      5  C   UNL     1       2.974  -2.456   5.393  0.00  0.00    +0.005 A 
ATOM      6  C   UNL     1       1.899  -2.283   4.519  0.00  0.00    +0.038 A 
ATOM      7  C   UNL     1       3.461  -1.739   6.567  0.00  0.00    -0.019 A 
ATOM      8  C   UNL     1       4.564  -2.378   7.000  0.00  0.00    +0.020 A 
ATOM      9  N   UNL     1       4.819  -3.450   6.193  0.00  0.00    -0.358 N 
ATOM     10  H   UNL     1       5.561  -4.066   6.303  0.00  0.00    +0.166 HD
ATOM     11  C   UNL     1       5.368  -1.940   8.203  0.00  0.00    +0.053 C 
ATOM     12  C   UNL     1       4.990  -0.494   8.541  0.00  0.00    +0.006 C 
ATOM     13  C   UNL     1       3.466  -0.368   8.618  0.00  0.00    +0.005 C 
ATOM     14  C   UNL     1       2.873  -0.509   7.211  0.00  0.00    +0.037 C 
ENDROOT
BRANCH   1  15
ATOM     15  S   UNL     1       0.350  -2.942   2.392  0.00  0.00    +0.061 S 
ATOM     16  O   UNL     1      -0.630  -2.199   3.104  0.00  0.00    -0.153 OA
ATOM     17  O   UNL     1       0.077  -4.216   1.825  0.00  0.00    -0.153 OA
BRANCH  15  23
ATOM     18  C   UNL     1      -0.019   1.526   0.010  0.00  0.00    +0.009 C 
ATOM     19  C   UNL     1       0.002  -0.004   0.002  0.00  0.00    +0.002 C 
ATOM     20  C   UNL     1       0.720  -0.498  -1.256  0.00  0.00    +0.006 C 
ATOM     21  C   UNL     1       0.712  -2.028  -1.282  0.00  0.00    +0.017 C 
ATOM     22  C   UNL     1       1.463  -2.559  -0.057  0.00  0.00    +0.109 C 
ATOM     23  N   UNL     1       0.869  -1.973   1.153  0.00  0.00    -0.176 NA
ATOM     24  C   UNL     1       0.744  -0.512   1.242  0.00  0.00    +0.112 C 
ENDBRANCH  15  23
ENDBRANCH   1  15
TORSDOF 2
