REMARK  Name = ZINC22014985
REMARK  8 active torsions:
REMARK  status: ('A' for Active; 'I' for Inactive)
REMARK    1  A    between atoms: C_1  and  S_2
REMARK    2  A    between atoms: S_2  and  C_5
REMARK    3  A    between atoms: C_9  and  N_11
REMARK    4  A    between atoms: C_12  and  C_14
REMARK    5  A    between atoms: C_14  and  N_15
REMARK    6  A    between atoms: N_15  and  C_16
REMARK    7  A    between atoms: N_15  and  C_26
REMARK    8  A    between atoms: C_16  and  C_17
REMARK                            x       y       z     vdW  Elec       q    Type
REMARK                         _______ _______ _______ _____ _____    ______ ____
ROOT
ATOM      1  N   UNL     1       4.078   2.570  -1.399  0.00  0.00    +0.390 N 
ATOM      2  H   UNL     1       4.258   2.266  -2.441  0.00  0.00    -0.080 HD
ENDROOT
BRANCH   1   3
ATOM      3  C   UNL     1       3.153   3.712  -1.415  0.00  0.00    -0.067 C 
ATOM      4  C   UNL     1       3.797   4.902  -2.155  0.00  0.00    -0.015 C 
ATOM      5  C   UNL     1       3.322   6.144  -1.361  0.00  0.00    -0.002 C 
ATOM      6  C   UNL     1       3.360   5.648   0.105  0.00  0.00    -0.002 C 
ATOM      7  C   UNL     1       2.876   4.185   0.022  0.00  0.00    -0.015 C 
ENDBRANCH   1   3
BRANCH   1   8
ATOM      8  C   UNL     1       5.369   2.946  -0.809  0.00  0.00    +0.020 C 
BRANCH   8  10
ATOM      9  N   UNL     1       7.586   3.708  -1.598  0.00  0.00    -0.286 N 
ATOM     10  C   UNL     1       6.342   3.292  -1.907  0.00  0.00    +0.201 C 
ATOM     11  O   UNL     1       6.005   3.195  -3.068  0.00  0.00    -0.278 OA
ATOM     12  H   UNL     1       7.913   3.734  -0.548  0.00  0.00    +0.155 HD
BRANCH   9  17
ATOM     13  C   UNL     1       9.190   3.987  -4.896  0.00  0.00    +0.090 A 
ATOM     14  C   UNL     1      10.195   4.898  -4.622  0.00  0.00    +0.028 A 
ATOM     15  C   UNL     1      10.336   5.415  -3.348  0.00  0.00    +0.024 A 
ATOM     16  C   UNL     1       9.472   5.023  -2.342  0.00  0.00    +0.062 A 
ATOM     17  C   UNL     1       8.462   4.108  -2.614  0.00  0.00    +0.054 A 
ATOM     18  C   UNL     1       8.327   3.588  -3.894  0.00  0.00    +0.051 A 
ATOM     19 CL   UNL     1       9.650   5.672  -0.742  0.00  0.00    -0.082 Cl
BRANCH  13  21
ATOM     20  C   UNL     1      10.050   1.841  -6.536  0.00  0.00    +0.200 C 
ATOM     21  S   UNL     1       9.016   3.331  -6.521  0.00  0.00    -0.006 S 
ATOM     22  O   UNL     1       7.644   2.976  -6.624  0.00  0.00    -0.170 OA
ATOM     23  O   UNL     1       9.573   4.322  -7.374  0.00  0.00    -0.170 OA
ENDBRANCH  13  21
ENDBRANCH   9  17
ENDBRANCH   8  10
ENDBRANCH   1   8
BRANCH   1  24
ATOM     24  C   UNL     1       3.489   1.426  -0.691  0.00  0.00    -0.042 C 
BRANCH  24  25
ATOM     25  C   UNL     1       2.392   0.824  -1.532  0.00  0.00    -0.060 A 
ATOM     26  C   UNL     1       2.703  -0.101  -2.511  0.00  0.00    +0.005 A 
ATOM     27  C   UNL     1       1.701  -0.655  -3.286  0.00  0.00    +0.050 A 
ATOM     28  C   UNL     1       0.382  -0.284  -3.082  0.00  0.00    +0.166 A 
ATOM     29  C   UNL     1       0.069   0.649  -2.096  0.00  0.00    +0.166 A 
ATOM     30  C   UNL     1       1.078   1.200  -1.324  0.00  0.00    +0.051 A 
ATOM     31  O   UNL     1      -1.282   0.848  -2.097  0.00  0.00    -0.453 OA
ATOM     32  C   UNL     1      -1.747   0.331  -3.356  0.00  0.00    +0.466 C 
ATOM     33  O   UNL     1      -0.773  -0.673  -3.697  0.00  0.00    -0.453 OA
ENDBRANCH  24  25
ENDBRANCH   1  24
TORSDOF 7
