REMARK  Name = ZINC64502997
REMARK  4 active torsions:
REMARK  status: ('A' for Active; 'I' for Inactive)
REMARK    1  A    between atoms: C_1  and  C_2
REMARK    2  A    between atoms: C_5  and  N_8
REMARK    3  A    between atoms: C_13  and  N_16
REMARK    4  A    between atoms: C_22  and  C_24
REMARK                            x       y       z     vdW  Elec       q    Type
REMARK                         _______ _______ _______ _____ _____    ______ ____
ROOT
ATOM      1  N   UNL     1      -2.070  -5.685   1.188  0.00  0.00    -0.280 NA
ATOM      2  C   UNL     1      -2.347  -4.680   2.224  0.00  0.00    +0.105 C 
ATOM      3  C   UNL     1      -3.790  -4.185   2.076  0.00  0.00    +0.123 C 
ATOM      4  N   UNL     1      -4.687  -5.350   2.083  0.00  0.00    -0.297 N 
ATOM      5  C   UNL     1      -4.392  -6.462   1.167  0.00  0.00    +0.123 C 
ATOM      6  C   UNL     1      -2.926  -6.867   1.351  0.00  0.00    +0.105 C 
ATOM      7  C   UNL     1      -5.752  -5.397   2.908  0.00  0.00    +0.242 C 
ATOM      8  O   UNL     1      -5.981  -4.471   3.657  0.00  0.00    -0.273 OA
ENDROOT
BRANCH   7   9
ATOM      9  C   UNL     1      -6.659  -6.601   2.900  0.00  0.00    +0.190 C 
ATOM     10  C   UNL     1      -5.890  -7.835   3.316  0.00  0.00    +0.016 C 
ATOM     11  C   UNL     1      -6.495  -8.293   4.436  0.00  0.00    -0.002 A 
ATOM     12  C   UNL     1      -6.229  -9.441   5.311  0.00  0.00    +0.029 A 
ATOM     13  C   UNL     1      -7.027  -9.646   6.385  0.00  0.00    +0.042 A 
ATOM     14  C   UNL     1      -8.098  -8.790   6.682  0.00  0.00    +0.022 A 
ATOM     15  C   UNL     1      -8.404  -7.716   5.925  0.00  0.00    +0.027 A 
ATOM     16  C   UNL     1      -7.632  -7.405   4.771  0.00  0.00    +0.043 A 
ATOM     17  N   UNL     1      -7.727  -6.436   3.892  0.00  0.00    -0.370 N 
ATOM     18 CL   UNL     1      -6.716 -11.003   7.422  0.00  0.00    -0.084 Cl
ATOM     19  H   UNL     1      -8.392  -5.730   3.896  0.00  0.00    +0.161 HD
ENDBRANCH   7   9
BRANCH   1  25
ATOM     20  N   UNL     1       0.059  -4.169  -0.021  0.00  0.00    -0.200 N 
ATOM     21  C   UNL     1      -0.035  -4.830  -1.193  0.00  0.00    +0.257 C 
ATOM     22  O   UNL     1      -0.097  -4.220  -2.243  0.00  0.00    -0.269 OA
ATOM     23  C   UNL     1      -0.062  -6.305  -1.178  0.00  0.00    +0.068 C 
ATOM     24  C   UNL     1      -0.358  -6.911  -0.024  0.00  0.00    +0.014 C 
ATOM     25  C   UNL     1      -0.649  -6.060   1.186  0.00  0.00    +0.166 C 
ATOM     26  N   UNL     1       0.177  -4.846   1.155  0.00  0.00    -0.212 NA
ATOM     27  H   UNL     1       1.143  -5.057   1.355  0.00  0.00    +0.147 HD
BRANCH  20  32
ATOM     28  C   UNL     1      -0.015   1.503   0.009  0.00  0.00    +0.044 C 
ATOM     29  C   UNL     1       0.004  -0.004   0.001  0.00  0.00    -0.050 A 
ATOM     30  C   UNL     1       0.979  -0.685   0.707  0.00  0.00    +0.005 A 
ATOM     31  C   UNL     1       1.000  -2.066   0.702  0.00  0.00    +0.025 A 
ATOM     32  C   UNL     1       0.040  -2.771  -0.013  0.00  0.00    +0.053 A 
ATOM     33  C   UNL     1      -0.938  -2.084  -0.721  0.00  0.00    +0.025 A 
ATOM     34  C   UNL     1      -0.956  -0.703  -0.707  0.00  0.00    +0.005 A 
ENDBRANCH  20  32
ENDBRANCH   1  25
TORSDOF 3
