REMARK  Name = ZINC39733544
REMARK  4 active torsions:
REMARK  status: ('A' for Active; 'I' for Inactive)
REMARK    1  A    between atoms: C_7  and  C_10
REMARK    2  A    between atoms: C_13  and  N_16
REMARK    3  A    between atoms: C_17  and  C_19
REMARK    4  A    between atoms: C_19  and  N_20
REMARK                            x       y       z     vdW  Elec       q    Type
REMARK                         _______ _______ _______ _____ _____    ______ ____
ROOT
ATOM      1  C   UNL     1       0.650  -3.139  -0.021  0.00  0.00    +0.054 C 
ATOM      2  C   UNL     1       1.162  -4.572  -0.028  0.00  0.00    +0.128 C 
ATOM      3  S   UNL     1      -0.387  -5.470   0.425  0.00  0.00    -0.109 S 
ATOM      4  C   UNL     1      -1.538  -4.094  -0.012  0.00  0.00    +0.251 C 
ATOM      5  N   UNL     1      -0.610  -2.945  -0.007  0.00  0.00    -0.254 NA
ENDROOT
BRANCH   1  12
ATOM      6  C   UNL     1      -0.016   1.347   0.009  0.00  0.00    +0.001 A 
ATOM      7  C   UNL     1       1.157   2.115   0.002  0.00  0.00    +0.002 A 
ATOM      8  C   UNL     1       2.384   1.546  -0.013  0.00  0.00    +0.026 A 
ATOM      9  C   UNL     1       2.493   0.081  -0.022  0.00  0.00    +0.043 A 
ATOM     10  N   UNL     1       3.528  -0.717  -0.036  0.00  0.00    -0.380 N 
ATOM     11  C   UNL     1       3.065  -2.108  -0.039  0.00  0.00    +0.150 C 
ATOM     12  C   UNL     1       1.553  -2.045  -0.024  0.00  0.00    +0.002 C 
ATOM     13  C   UNL     1       1.236  -0.701  -0.013  0.00  0.00    +0.005 A 
ATOM     14  C   UNL     1       0.002  -0.004   0.002  0.00  0.00    +0.010 A 
ATOM     15  H   UNL     1       4.456  -0.433  -0.044  0.00  0.00    +0.160 HD
ENDBRANCH   1  12
BRANCH   4  16
ATOM     16  N   UNL     1      -2.579  -3.933   1.006  0.00  0.00    -0.284 N 
ATOM     17  C   UNL     1      -3.612  -4.797   1.056  0.00  0.00    +0.233 C 
ATOM     18  O   UNL     1      -3.679  -5.709   0.259  0.00  0.00    -0.274 OA
ATOM     19  H   UNL     1      -2.525  -3.204   1.644  0.00  0.00    +0.152 HD
BRANCH  17  20
ATOM     20  C   UNL     1      -4.683  -4.632   2.103  0.00  0.00    +0.204 C 
BRANCH  20  21
ATOM     21  N   UNL     1      -5.686  -5.689   1.948  0.00  0.00    -0.283 N 
ATOM     22  C   UNL     1      -6.854  -5.485   1.070  0.00  0.00    +0.178 C 
ATOM     23  S   UNL     1      -7.477  -7.212   0.892  0.00  0.00    -0.132 S 
ATOM     24  C   UNL     1      -6.627  -7.894   2.381  0.00  0.00    +0.166 C 
ATOM     25  C   UNL     1      -5.550  -6.841   2.590  0.00  0.00    +0.227 C 
ATOM     26  O   UNL     1      -4.604  -7.047   3.320  0.00  0.00    -0.275 OA
ENDBRANCH  20  21
ENDBRANCH  17  20
ENDBRANCH   4  16
TORSDOF 4
