REMARK  Name = ZINC39206006
REMARK  7 active torsions:
REMARK  status: ('A' for Active; 'I' for Inactive)
REMARK    1  A    between atoms: C_1  and  C_2
REMARK    2  A    between atoms: C_3  and  C_35
REMARK    3  A    between atoms: C_4  and  C_23
REMARK    4  A    between atoms: C_10  and  C_11
REMARK    5  A    between atoms: C_32  and  O_33
REMARK    6  A    between atoms: O_33  and  C_34
REMARK    7  A    between atoms: C_35  and  C_37
REMARK                            x       y       z     vdW  Elec       q    Type
REMARK                         _______ _______ _______ _____ _____    ______ ____
ROOT
ATOM      1  C   UNL     1       0.468   2.442  -0.332  0.00  0.00    +0.066 C 
ATOM      2  C   UNL     1       0.382   0.968  -0.032  0.00  0.00    +0.050 C 
ATOM      3  C   UNL     1      -0.812   0.298  -0.216  0.00  0.00    +0.043 C 
ATOM      4  C   UNL     1      -0.849  -1.180   0.099  0.00  0.00    +0.162 C 
ATOM      5  N   UNL     1       0.414  -1.804   0.587  0.00  0.00    -0.275 N 
ATOM      6  C   UNL     1       0.574  -3.093   0.915  0.00  0.00    +0.268 A 
ATOM      7  O   UNL     1      -0.348  -3.882   0.832  0.00  0.00    -0.266 OA
ATOM      8  C   UNL     1       1.908  -3.525   1.380  0.00  0.00    +0.080 A 
ATOM      9  C   UNL     1       2.338  -4.776   1.774  0.00  0.00    +0.026 C 
ATOM     10  S   UNL     1       2.814  -1.988   1.294  0.00  0.00    -0.046 S 
ATOM     11  C   UNL     1       1.489  -0.954   0.699  0.00  0.00    +0.178 A 
ATOM     12  N   UNL     1       1.454   0.320   0.403  0.00  0.00    -0.228 NA
ENDROOT
BRANCH   9  13
ATOM     13  C   UNL     1       1.528  -5.893   1.557  0.00  0.00    -0.018 C 
ATOM     14  C   UNL     1       1.862  -7.231   1.766  0.00  0.00    +0.003 A 
ATOM     15  C   UNL     1       3.038  -7.860   2.229  0.00  0.00    +0.010 A 
ATOM     16  C   UNL     1       3.080  -9.212   2.334  0.00  0.00    +0.001 A 
ATOM     17  C   UNL     1       1.983 -10.010   1.994  0.00  0.00    +0.002 A 
ATOM     18  C   UNL     1       0.824  -9.477   1.543  0.00  0.00    +0.026 A 
ATOM     19  C   UNL     1       0.702  -8.066   1.405  0.00  0.00    +0.043 A 
ATOM     20  N   UNL     1      -0.296  -7.315   0.997  0.00  0.00    -0.380 N 
ATOM     21  C   UNL     1       0.102  -5.906   1.052  0.00  0.00    +0.149 C 
ATOM     22  H   UNL     1      -1.163  -7.642   0.708  0.00  0.00    +0.160 HD
ENDBRANCH   9  13
BRANCH   4  23
ATOM     23  C   UNL     1      -1.272  -1.909  -1.150  0.00  0.00    +0.029 A 
ATOM     24  C   UNL     1      -0.473  -1.858  -2.303  0.00  0.00    -0.009 A 
ATOM     25  C   UNL     1       0.730  -1.132  -2.324  0.00  0.00    +0.009 A 
ATOM     26  C   UNL     1       1.480  -1.104  -3.460  0.00  0.00    +0.001 A 
ATOM     27  C   UNL     1       1.072  -1.784  -4.606  0.00  0.00    +0.001 A 
ATOM     28  C   UNL     1      -0.087  -2.497  -4.622  0.00  0.00    +0.008 A 
ATOM     29  C   UNL     1      -0.888  -2.550  -3.469  0.00  0.00    -0.017 A 
ATOM     30  C   UNL     1      -2.091  -3.277  -3.450  0.00  0.00    +0.012 A 
ATOM     31  C   UNL     1      -2.842  -3.308  -2.317  0.00  0.00    +0.046 A 
ATOM     32  C   UNL     1      -2.433  -2.629  -1.164  0.00  0.00    +0.126 A 
BRANCH  32  33
ATOM     33  O   UNL     1      -3.203  -2.683  -0.045  0.00  0.00    -0.495 OA
ATOM     34  C   UNL     1      -4.405  -3.452  -0.121  0.00  0.00    +0.277 C 
ENDBRANCH  32  33
ENDBRANCH   4  23
BRANCH   3  35
ATOM     35  C   UNL     1      -1.948   0.964  -0.677  0.00  0.00    +0.160 C 
ATOM     36  O   UNL     1      -1.868   2.122  -1.042  0.00  0.00    -0.293 OA
ATOM     37  C   UNL     1      -3.274   0.249  -0.725  0.00  0.00    +0.091 C 
ENDBRANCH   3  35
TORSDOF 4
