REMARK  Name = ZINC09975243
REMARK  11 active torsions:
REMARK  status: ('A' for Active; 'I' for Inactive)
REMARK    1  A    between atoms: C_1  and  C_2
REMARK    2  A    between atoms: C_4  and  O_9
REMARK    3  A    between atoms: O_9  and  C_10
REMARK    4  A    between atoms: C_10  and  C_11
REMARK    5  A    between atoms: C_11  and  C_37
REMARK    6  A    between atoms: N_12  and  N_13
REMARK    7  A    between atoms: N_22  and  C1*_23
REMARK    8  A    between atoms: C2*_25  and  O2*_35
REMARK    9  A    between atoms: C3*_27  and  O3*_34
REMARK   10  A    between atoms: C4*_29  and  C5*_32
REMARK   11  A    between atoms: C5*_32  and  O5*_33
REMARK                            x       y       z     vdW  Elec       q    Type
REMARK                         _______ _______ _______ _____ _____    ______ ____
ROOT
ATOM      1  N   UNL     1      -3.710  -0.192   0.036  0.00  0.00    -0.206 N 
ATOM      2  C   UNL     1      -4.772   0.691   0.051  0.00  0.00    +0.220 A 
ATOM      3  N   UNL     1      -4.666   1.997   0.057  0.00  0.00    -0.208 NA
ATOM      4  C   UNL     1      -5.905   2.549   0.072  0.00  0.00    +0.149 A 
ATOM      5  C   UNL     1      -6.397   3.864   0.084  0.00  0.00    +0.147 A 
ATOM      6  N   UNL     1      -7.713   4.049   0.097  0.00  0.00    -0.219 NA
ATOM      7  C   UNL     1      -8.547   3.024   0.100  0.00  0.00    +0.225 A 
ATOM      8  N   UNL     1      -8.131   1.775   0.090  0.00  0.00    -0.216 NA
ATOM      9  C   UNL     1      -6.832   1.494   0.076  0.00  0.00    +0.169 A 
ATOM     10  N   UNL     1      -6.093   0.334   0.057  0.00  0.00    -0.266 N 
ATOM     11  N   UNL     1      -5.530   4.945   0.081  0.00  0.00    -0.341 N 
ATOM     12  H   UNL     1      -3.875  -1.148   0.033  0.00  0.00    +0.177 HD
ATOM     13  H   UNL     1      -4.946   4.906   0.892  0.00  0.00    +0.144 HD
ATOM     14  H   UNL     1      -5.882   5.849   0.089  0.00  0.00    +0.144 HD
ENDROOT
BRANCH  10  15
ATOM     15  C1* UNL     1      -6.622  -1.032   0.048  0.00  0.00    +0.255 C 
ATOM     16  C2* UNL     1      -6.412  -1.708   1.426  0.00  0.00    +0.195 C 
ATOM     17  C3* UNL     1      -6.409  -3.212   1.051  0.00  0.00    +0.178 C 
ATOM     18  C4* UNL     1      -6.081  -3.227  -0.454  0.00  0.00    +0.177 C 
ATOM     19  O4* UNL     1      -5.867  -1.864  -0.859  0.00  0.00    -0.346 OA
BRANCH  17  20
ATOM     20  O3* UNL     1      -5.408  -3.915   1.789  0.00  0.00    -0.386 OA
ATOM     21  H3* UNL     1      -5.327  -4.849   1.552  0.00  0.00    +0.210 HD
ENDBRANCH  17  20
BRANCH  16  22
ATOM     22  O2* UNL     1      -7.489  -1.402   2.314  0.00  0.00    -0.385 OA
ATOM     23  H2* UNL     1      -7.402  -1.803   3.190  0.00  0.00    +0.210 HD
ENDBRANCH  16  22
BRANCH  18  24
ATOM     24  C5* UNL     1      -4.815  -4.049  -0.706  0.00  0.00    +0.190 C 
BRANCH  24  25
ATOM     25  O5* UNL     1      -4.577  -4.140  -2.112  0.00  0.00    -0.392 OA
ATOM     26  H5* UNL     1      -3.789  -4.649  -2.345  0.00  0.00    +0.210 HD
ENDBRANCH  24  25
ENDBRANCH  18  24
ENDBRANCH  10  15
BRANCH   1  28
ATOM     27  C   UNL     1      -1.412  -0.526   0.013  0.00  0.00    +0.071 C 
ATOM     28  N   UNL     1      -2.396   0.293   0.026  0.00  0.00    -0.186 NA
ATOM     29  C   UNL     1      -1.667  -2.011   0.007  0.00  0.00    +0.066 C 
BRANCH  27  30
ATOM     30  C   UNL     1       0.002  -0.004   0.002  0.00  0.00    +0.281 C 
BRANCH  30  31
ATOM     31  O   UNL     1      -0.017   1.425   0.010  0.00  0.00    -0.486 OA
BRANCH  31  35
ATOM     32  C   UNL     1       2.523   5.592   0.007  0.00  0.00    +0.045 C 
ATOM     33  C   UNL     1       2.463   4.086   0.000  0.00  0.00    -0.029 A 
ATOM     34  C   UNL     1       1.240   3.444   0.003  0.00  0.00    +0.050 A 
ATOM     35  C   UNL     1       1.185   2.058   0.002  0.00  0.00    +0.121 A 
ATOM     36  C   UNL     1       2.360   1.319  -0.013  0.00  0.00    +0.047 A 
ATOM     37  C   UNL     1       3.580   1.965  -0.022  0.00  0.00    +0.024 A 
ATOM     38  C   UNL     1       3.633   3.348  -0.016  0.00  0.00    +0.044 A 
ATOM     39 CL   UNL     1       5.169   4.157  -0.026  0.00  0.00    -0.083 Cl
ENDBRANCH  31  35
ENDBRANCH  30  31
ENDBRANCH  27  30
ENDBRANCH   1  28
TORSDOF 9
