REMARK  Name = ZINC06108755
REMARK  4 active torsions:
REMARK  status: ('A' for Active; 'I' for Inactive)
REMARK    1  A    between atoms: C_9  and  S_13
REMARK    2  A    between atoms: S_13  and  C_14
REMARK    3  A    between atoms: C_14  and  C_15
REMARK    4  A    between atoms: N_17  and  C_18
REMARK                            x       y       z     vdW  Elec       q    Type
REMARK                         _______ _______ _______ _____ _____    ______ ____
ROOT
ATOM      1  C   UNL     1       4.362  -0.079   0.158  0.00  0.00    +0.005 C 
ATOM      2  C   UNL     1       5.170   0.789   1.128  0.00  0.00    +0.005 C 
ATOM      3  C   UNL     1       4.989   2.263   0.736  0.00  0.00    +0.043 C 
ATOM      4  C   UNL     1       3.528   2.522   0.527  0.00  0.00    -0.004 A 
ATOM      5  C   UNL     1       2.550   1.607   0.380  0.00  0.00    -0.025 A 
ATOM      6  C   UNL     1       1.189   2.114   0.188  0.00  0.00    +0.051 A 
ATOM      7  C   UNL     1      -0.017   1.379   0.010  0.00  0.00    +0.129 A 
ATOM      8  N   UNL     1      -1.154   2.033  -0.154  0.00  0.00    -0.207 NA
ATOM      9  C   UNL     1      -1.212   3.360  -0.148  0.00  0.00    +0.191 A 
ATOM     10  N   UNL     1      -0.121   4.096   0.014  0.00  0.00    -0.214 NA
ATOM     11  C   UNL     1       1.053   3.516   0.179  0.00  0.00    +0.115 A 
ATOM     12  S   UNL     1       2.712   4.093   0.422  0.00  0.00    -0.073 S 
ATOM     13  N   UNL     1       0.002  -0.004   0.002  0.00  0.00    -0.343 N 
ATOM     14  C   UNL     1       2.866   0.114   0.412  0.00  0.00    +0.037 C 
ATOM     15  H   UNL     1       0.773  -0.481   0.347  0.00  0.00    +0.144 HD
ATOM     16  H   UNL     1      -0.756  -0.497  -0.348  0.00  0.00    +0.144 HD
ENDROOT
BRANCH   9  17
ATOM     17  S   UNL     1      -2.768   4.157  -0.366  0.00  0.00    -0.077 S 
BRANCH  17  18
ATOM     18  C   UNL     1      -3.843   2.711  -0.531  0.00  0.00    +0.173 C 
BRANCH  18  19
ATOM     19  C   UNL     1      -5.266   3.162  -0.733  0.00  0.00    +0.224 C 
ATOM     20  O   UNL     1      -5.528   4.346  -0.762  0.00  0.00    -0.275 OA
ATOM     21  N   UNL     1      -6.248   2.251  -0.880  0.00  0.00    -0.310 N 
ATOM     22  H   UNL     1      -6.039   1.304  -0.857  0.00  0.00    +0.149 HD
BRANCH  21  23
ATOM     23  C   UNL     1      -7.632   2.691  -1.077  0.00  0.00    +0.095 C 
ATOM     24  C   UNL     1      -7.868   2.986  -2.567  0.00  0.00    +0.046 C 
ATOM     25  C   UNL     1      -9.399   3.141  -2.794  0.00  0.00    +0.168 C 
ATOM     26  S   UNL     1     -10.037   1.784  -1.724  0.00  0.00    -0.029 S 
ATOM     27  O   UNL     1     -10.184   0.608  -2.508  0.00  0.00    -0.174 OA
ATOM     28  O   UNL     1     -11.144   2.268  -0.975  0.00  0.00    -0.174 OA
ATOM     29  C   UNL     1      -8.597   1.578  -0.600  0.00  0.00    +0.188 C 
ENDBRANCH  21  23
ENDBRANCH  18  19
ENDBRANCH  17  18
ENDBRANCH   9  17
TORSDOF 4
