REMARK  Name = ZINC40399964
REMARK  9 active torsions:
REMARK  status: ('A' for Active; 'I' for Inactive)
REMARK    1  A    between atoms: C_1  and  C_2
REMARK    2  A    between atoms: C_2  and  N_3
REMARK    3  A    between atoms: C_11  and  C_32
REMARK    4  A    between atoms: C_13  and  S_15
REMARK    5  A    between atoms: S_15  and  C_16
REMARK    6  A    between atoms: C_16  and  C_17
REMARK    7  A    between atoms: C_21  and  C_23
REMARK    8  A    between atoms: N_25  and  C_26
REMARK    9  A    between atoms: C_26  and  C_27
REMARK                            x       y       z     vdW  Elec       q    Type
REMARK                         _______ _______ _______ _____ _____    ______ ____
ROOT
ATOM      1  N   UNL     1       0.789  -0.620   1.107  0.00  0.00    +0.382 N 
ATOM      2  C   UNL     1      -0.136  -0.313   2.205  0.00  0.00    -0.060 C 
ATOM      3  C   UNL     1       0.561  -0.570   3.545  0.00  0.00    +0.088 C 
ATOM      4  N   UNL     1       1.071  -1.950   3.549  0.00  0.00    -0.319 N 
ATOM      5  C   UNL     1       1.876  -2.394   2.400  0.00  0.00    +0.088 C 
ATOM      6  C   UNL     1       1.117  -2.051   1.114  0.00  0.00    -0.060 C 
ATOM      7  C   UNL     1       0.802  -2.807   4.604  0.00  0.00    +0.126 A 
ATOM      8  C   UNL     1       0.224  -2.322   5.778  0.00  0.00    +0.072 A 
ATOM      9  C   UNL     1      -0.027  -3.221   6.811  0.00  0.00    +0.077 A 
ATOM     10  N   UNL     1       0.291  -4.505   6.646  0.00  0.00    -0.222 NA
ATOM     11  C   UNL     1       0.839  -4.927   5.517  0.00  0.00    +0.191 A 
ATOM     12  N   UNL     1       1.087  -4.102   4.510  0.00  0.00    -0.207 NA
ATOM     13  H   UNL     1       1.635  -0.082   1.223  0.00  0.00    -0.082 HD
ENDROOT
BRANCH   9  14
ATOM     14  C   UNL     1      -0.640  -2.756   8.079  0.00  0.00    +0.001 A 
ATOM     15  C   UNL     1      -0.975  -1.413   8.243  0.00  0.00    +0.010 A 
ATOM     16  C   UNL     1      -1.545  -0.986   9.425  0.00  0.00    +0.001 A 
ATOM     17  C   UNL     1      -1.785  -1.887  10.446  0.00  0.00    +0.000 A 
ATOM     18  C   UNL     1      -1.455  -3.221  10.289  0.00  0.00    +0.001 A 
ATOM     19  C   UNL     1      -0.889  -3.661   9.109  0.00  0.00    +0.010 A 
ENDBRANCH   9  14
BRANCH   1  21
ATOM     20  C   UNL     1      -0.069   1.242  -0.233  0.00  0.00    -0.017 C 
ATOM     21  C   UNL     1       0.160  -0.270  -0.174  0.00  0.00    -0.082 C 
ENDBRANCH   1  21
BRANCH  11  22
ATOM     22  S   UNL     1       1.242  -6.634   5.345  0.00  0.00    -0.081 S 
BRANCH  22  23
ATOM     23  C   UNL     1       0.733  -7.366   6.925  0.00  0.00    +0.112 C 
BRANCH  23  24
ATOM     24  C   UNL     1       1.026  -8.844   6.912  0.00  0.00    -0.036 A 
ATOM     25  C   UNL     1       0.071  -9.733   6.450  0.00  0.00    +0.004 A 
ATOM     26  C   UNL     1       0.333 -11.091   6.434  0.00  0.00    +0.001 A 
ATOM     27  C   UNL     1       1.549 -11.568   6.880  0.00  0.00    +0.013 A 
ATOM     28  C   UNL     1       2.516 -10.677   7.346  0.00  0.00    +0.037 A 
ATOM     29  C   UNL     1       2.248  -9.307   7.354  0.00  0.00    +0.017 A 
BRANCH  28  30
ATOM     30  C   UNL     1       3.821 -11.181   7.825  0.00  0.00    +0.244 C 
ATOM     31  O   UNL     1       4.661 -10.402   8.231  0.00  0.00    -0.270 OA
ATOM     32  N   UNL     1       4.078 -12.504   7.811  0.00  0.00    -0.304 N 
ATOM     33  H   UNL     1       3.408 -13.125   7.488  0.00  0.00    +0.149 HD
BRANCH  32  34
ATOM     34  C   UNL     1       5.371 -13.003   8.286  0.00  0.00    +0.179 C 
BRANCH  34  35
ATOM     35  C   UNL     1       5.404 -14.505   8.166  0.00  0.00    +0.122 A 
ATOM     36  C   UNL     1       5.831 -15.200   7.097  0.00  0.00    +0.046 A 
ATOM     37  C   UNL     1       5.688 -16.570   7.415  0.00  0.00    +0.041 A 
ATOM     38  C   UNL     1       5.182 -16.631   8.659  0.00  0.00    +0.195 A 
ATOM     39  O   UNL     1       5.018 -15.377   9.112  0.00  0.00    -0.466 OA
ENDBRANCH  34  35
ENDBRANCH  32  34
ENDBRANCH  28  30
ENDBRANCH  23  24
ENDBRANCH  22  23
ENDBRANCH  11  22
TORSDOF 8
