REMARK  Name = ZINC25537780
REMARK  9 active torsions:
REMARK  status: ('A' for Active; 'I' for Inactive)
REMARK    1  A    between atoms: C_1  and  C_2
REMARK    2  A    between atoms: C_5  and  N_19
REMARK    3  A    between atoms: C_7  and  S_8
REMARK    4  A    between atoms: S_8  and  N_11
REMARK    5  A    between atoms: N_11  and  C_12
REMARK    6  A    between atoms: C_20  and  C_22
REMARK    7  A    between atoms: C_22  and  C_24
REMARK    8  A    between atoms: C_22  and  N_25
REMARK    9  A    between atoms: C_26  and  C_28
REMARK                            x       y       z     vdW  Elec       q    Type
REMARK                         _______ _______ _______ _____ _____    ______ ____
ROOT
ATOM      1  C   UNL     1      10.147   6.122  -2.837  0.00  0.00    +0.046 C 
ATOM      2  C   UNL     1       8.862   6.393  -2.099  0.00  0.00    -0.024 A 
ATOM      3  C   UNL     1       7.918   5.390  -1.966  0.00  0.00    +0.007 A 
ATOM      4  C   UNL     1       6.742   5.633  -1.286  0.00  0.00    +0.024 A 
ATOM      5  C   UNL     1       6.501   6.889  -0.744  0.00  0.00    +0.035 A 
ATOM      6  C   UNL     1       7.450   7.894  -0.879  0.00  0.00    +0.052 A 
ATOM      7  C   UNL     1       8.628   7.642  -1.556  0.00  0.00    +0.113 A 
ENDROOT
BRANCH   5   8
ATOM      8  N   UNL     1       5.307   7.141  -0.059  0.00  0.00    -0.284 N 
ATOM      9  C   UNL     1       4.167   6.534  -0.447  0.00  0.00    +0.237 C 
ATOM     10  O   UNL     1       4.155   5.848  -1.447  0.00  0.00    -0.273 OA
ATOM     11  H   UNL     1       5.298   7.833   0.795  0.00  0.00    +0.155 HD
BRANCH   9  12
ATOM     12  C   UNL     1       2.908   6.710   0.361  0.00  0.00    +0.156 C 
ATOM     13  C   UNL     1       3.137   6.191   1.782  0.00  0.00    +0.038 C 
BRANCH  12  14
ATOM     14  N   UNL     1       1.817   5.957  -0.263  0.00  0.00    -0.298 N 
ATOM     15  C   UNL     1       0.538   6.328  -0.059  0.00  0.00    +0.280 C 
ATOM     16  O   UNL     1       0.288   7.290   0.643  0.00  0.00    -0.267 OA
ATOM     17  H   UNL     1       2.043   5.087  -0.899  0.00  0.00    +0.150 HD
BRANCH  15  18
ATOM     18  C   UNL     1      -0.553   5.574  -0.685  0.00  0.00    +0.189 A 
ATOM     19  C   UNL     1      -1.887   5.841  -0.562  0.00  0.00    +0.054 A 
ATOM     20  C   UNL     1      -2.564   4.875  -1.322  0.00  0.00    +0.042 A 
ATOM     21  C   UNL     1      -1.626   4.070  -1.868  0.00  0.00    +0.196 A 
ATOM     22  O   UNL     1      -0.416   4.495  -1.482  0.00  0.00    -0.458 OA
ENDBRANCH  15  18
ENDBRANCH  12  14
ENDBRANCH   9  12
ENDBRANCH   5   8
BRANCH   7  23
ATOM     23  S   UNL     1       9.833   8.916  -1.728  0.00  0.00    +0.073 S 
ATOM     24  O   UNL     1       9.293  10.073  -1.104  0.00  0.00    -0.150 OA
ATOM     25  O   UNL     1      11.078   8.353  -1.338  0.00  0.00    -0.150 OA
BRANCH  23  26
ATOM     26  N   UNL     1       9.954   9.261  -3.343  0.00  0.00    -0.215 N 
ATOM     27  H   UNL     1      10.916   9.136  -3.861  0.00  0.00    +0.174 HD
BRANCH  26  28
ATOM     28  C   UNL     1       8.834   9.711  -4.047  0.00  0.00    +0.066 A 
ATOM     29  C   UNL     1       7.909  10.541  -3.426  0.00  0.00    +0.026 A 
ATOM     30  C   UNL     1       6.806  10.988  -4.127  0.00  0.00    +0.002 A 
ATOM     31  C   UNL     1       6.616  10.603  -5.441  0.00  0.00    +0.002 A 
ATOM     32  C   UNL     1       7.532   9.773  -6.061  0.00  0.00    +0.022 A 
ATOM     33  C   UNL     1       8.640   9.325  -5.368  0.00  0.00    +0.063 A 
ATOM     34 CL   UNL     1       9.789   8.282  -6.146  0.00  0.00    -0.082 Cl
ENDBRANCH  26  28
ENDBRANCH  23  26
ENDBRANCH   7  23
TORSDOF 7
