REMARK  Name = ZINC04225816
REMARK  4 active torsions:
REMARK  status: ('A' for Active; 'I' for Inactive)
REMARK    1  A    between atoms: C_1  and  C_2
REMARK    2  A    between atoms: C_3  and  N_9
REMARK    3  A    between atoms: C_10  and  C_12
REMARK    4  A    between atoms: N_18  and  C_21
REMARK                            x       y       z     vdW  Elec       q    Type
REMARK                         _______ _______ _______ _____ _____    ______ ____
ROOT
ATOM      1  C   UNL     1       2.313   5.460   0.532  0.00  0.00    +0.118 A 
ATOM      2  C   UNL     1       1.075   5.949   0.903  0.00  0.00    +0.106 A 
ATOM      3  N   UNL     1      -0.022   5.160   0.760  0.00  0.00    -0.313 N 
ATOM      4  H   UNL     1      -0.917   5.515   1.028  0.00  0.00    +0.170 HD
ATOM      5  C   UNL     1       0.069   3.915   0.266  0.00  0.00    +0.334 A 
ATOM      6  O   UNL     1      -0.943   3.250   0.159  0.00  0.00    -0.246 OA
ATOM      7  N   UNL     1       1.242   3.380  -0.112  0.00  0.00    -0.228 N 
ATOM      8  C   UNL     1       2.385   4.090  -0.000  0.00  0.00    +0.273 A 
ATOM      9  O   UNL     1       3.451   3.609  -0.337  0.00  0.00    -0.266 OA
ENDROOT
BRANCH   7  10
ATOM     10  C   UNL     1       1.281   2.074  -0.621  0.00  0.00    +0.056 A 
ATOM     11  C   UNL     1       1.420   0.996   0.243  0.00  0.00    +0.029 A 
ATOM     12  C   UNL     1       1.457  -0.290  -0.260  0.00  0.00    +0.042 A 
ATOM     13  C   UNL     1       1.357  -0.505  -1.624  0.00  0.00    +0.142 A 
ATOM     14  C   UNL     1       1.219   0.570  -2.488  0.00  0.00    +0.078 A 
ATOM     15  C   UNL     1       1.181   1.858  -1.988  0.00  0.00    +0.049 A 
ATOM     16 CL   UNL     1       1.095   0.298  -4.198  0.00  0.00    -0.081 Cl
ATOM     17  F   UNL     1       1.394  -1.764  -2.114  0.00  0.00    -0.204 F 
ENDBRANCH   7  10
BRANCH   1  19
ATOM     18  N   UNL     1       4.702   5.831   0.199  0.00  0.00    -0.281 N 
ATOM     19  C   UNL     1       3.524   6.282   0.671  0.00  0.00    +0.255 C 
ATOM     20  O   UNL     1       3.461   7.370   1.213  0.00  0.00    -0.270 OA
ATOM     21  H   UNL     1       4.742   4.989  -0.281  0.00  0.00    +0.155 HD
BRANCH  18  24
ATOM     22  C   UNL     1       7.176   4.436   0.386  0.00  0.00    +0.047 C 
ATOM     23  C   UNL     1       7.096   5.937   0.497  0.00  0.00    -0.011 A 
ATOM     24  C   UNL     1       5.868   6.578   0.400  0.00  0.00    +0.038 A 
ATOM     25  C   UNL     1       5.799   7.961   0.508  0.00  0.00    +0.023 A 
ATOM     26  C   UNL     1       6.951   8.696   0.707  0.00  0.00    +0.003 A 
ATOM     27  C   UNL     1       8.174   8.057   0.798  0.00  0.00    +0.020 A 
ATOM     28  C   UNL     1       8.247   6.678   0.690  0.00  0.00    +0.046 A 
ATOM     29 CL   UNL     1       9.784   5.880   0.805  0.00  0.00    -0.083 Cl
ENDBRANCH  18  24
ENDBRANCH   1  19
TORSDOF 3
