REMARK  Name = ZINC35709779
REMARK  13 active torsions:
REMARK  status: ('A' for Active; 'I' for Inactive)
REMARK    1  A    between atoms: C_1  and  C_2
REMARK    2  A    between atoms: C_2  and  C_3
REMARK    3  A    between atoms: C_3  and  C_5
REMARK    4  A    between atoms: C_3  and  N_6
REMARK    5  A    between atoms: N_6  and  C_7
REMARK    6  A    between atoms: C_9  and  C_10
REMARK    7  A    between atoms: C_15  and  C_38
REMARK    8  A    between atoms: C_16  and  C_29
REMARK    9  A    between atoms: C_17  and  C_20
REMARK   10  A    between atoms: C_23  and  C_26
REMARK   11  A    between atoms: C_26  and  C_27
REMARK   12  A    between atoms: C_26  and  C_28
REMARK   13  A    between atoms: N_31  and  C_32
REMARK                            x       y       z     vdW  Elec       q    Type
REMARK                         _______ _______ _______ _____ _____    ______ ____
ROOT
ATOM      1  C   UNL     1       5.152  -0.185  -4.245  0.00  0.00    +0.048 C 
ATOM      2  C   UNL     1       6.481   0.046  -4.327  0.00  0.00    +0.072 C 
ATOM      3  S   UNL     1       6.593   1.042  -5.799  0.00  0.00    -0.060 S 
ATOM      4  C   UNL     1       4.964   1.093  -6.200  0.00  0.00    +0.166 C 
ATOM      5  N   UNL     1       4.328   1.673  -7.197  0.00  0.00    -0.230 NA
ATOM      6  C   UNL     1       3.019   1.625  -7.387  0.00  0.00    +0.051 C 
ATOM      7  C   UNL     1       2.209   0.933  -6.510  0.00  0.00    +0.061 C 
ATOM      8  C   UNL     1       2.868   0.240  -5.338  0.00  0.00    +0.148 C 
ATOM      9  N   UNL     1       4.346   0.356  -5.228  0.00  0.00    -0.267 N 
ATOM     10  C   UNL     1       2.409   2.332  -8.570  0.00  0.00    +0.066 C 
ENDROOT
BRANCH   8  11
ATOM     11  C   UNL     1       2.527  -1.226  -5.414  0.00  0.00    -0.022 A 
ATOM     12  C   UNL     1       3.101  -2.018  -6.390  0.00  0.00    +0.006 A 
ATOM     13  C   UNL     1       2.788  -3.363  -6.460  0.00  0.00    +0.004 A 
ATOM     14  C   UNL     1       1.902  -3.915  -5.554  0.00  0.00    -0.045 A 
ATOM     15  C   UNL     1       1.329  -3.122  -4.578  0.00  0.00    +0.004 A 
ATOM     16  C   UNL     1       1.645  -1.778  -4.505  0.00  0.00    +0.006 A 
BRANCH  14  17
ATOM     17  C   UNL     1       1.561  -5.381  -5.631  0.00  0.00    +0.013 C 
ATOM     18  C   UNL     1       1.851  -6.044  -4.283  0.00  0.00    +0.012 C 
ATOM     19  C   UNL     1       0.077  -5.542  -5.970  0.00  0.00    +0.012 C 
ENDBRANCH  14  17
ENDBRANCH   8  11
BRANCH   7  20
ATOM     20  C   UNL     1       0.820   0.875  -6.698  0.00  0.00    +0.248 C 
ATOM     21  O   UNL     1       0.322   1.339  -7.710  0.00  0.00    -0.270 OA
ATOM     22  N   UNL     1       0.036   0.307  -5.760  0.00  0.00    -0.282 N 
ATOM     23  H   UNL     1       0.416   0.033  -4.911  0.00  0.00    +0.155 HD
BRANCH  22  24
ATOM     24  C   UNL     1      -1.325   0.112  -6.012  0.00  0.00    +0.034 A 
ATOM     25  C   UNL     1      -1.764  -0.149  -7.303  0.00  0.00    +0.023 A 
ATOM     26  C   UNL     1      -3.110  -0.342  -7.548  0.00  0.00    +0.002 A 
ATOM     27  C   UNL     1      -4.020  -0.274  -6.509  0.00  0.00    +0.000 A 
ATOM     28  C   UNL     1      -3.586  -0.013  -5.222  0.00  0.00    +0.002 A 
ATOM     29  C   UNL     1      -2.242   0.174  -4.970  0.00  0.00    +0.023 A 
ENDBRANCH  22  24
ENDBRANCH   7  20
BRANCH   1  32
ATOM     30  C   UNL     1       5.374  -1.411  -2.147  0.00  0.00    +0.239 C 
ATOM     31  O   UNL     1       6.711  -1.190  -2.196  0.00  0.00    -0.271 OA
ATOM     32  C   UNL     1       4.584  -0.988  -3.153  0.00  0.00    +0.091 C 
BRANCH  30  33
ATOM     33  N   UNL     1       4.821  -2.072  -1.063  0.00  0.00    -0.309 N 
ATOM     34  H   UNL     1       3.877  -2.296  -1.062  0.00  0.00    +0.149 HD
BRANCH  33  35
ATOM     35  C   UNL     1       5.662  -2.433   0.081  0.00  0.00    +0.070 C 
ATOM     36  C   UNL     1       5.703  -1.268   1.071  0.00  0.00    +0.028 C 
BRANCH  35  38
ATOM     37  C   UNL     1       5.154  -4.866  -0.179  0.00  0.00    +0.005 C 
ATOM     38  C   UNL     1       5.080  -3.669   0.771  0.00  0.00    +0.018 C 
ENDBRANCH  35  38
ENDBRANCH  33  35
ENDBRANCH  30  33
ENDBRANCH   1  32
TORSDOF 8
