REMARK  Name = ZINC63151109
REMARK  5 active torsions:
REMARK  status: ('A' for Active; 'I' for Inactive)
REMARK    1  A    between atoms: C_1  and  C_2
REMARK    2  A    between atoms: C_5  and  S_9
REMARK    3  A    between atoms: C_6  and  C_8
REMARK    4  A    between atoms: S_9  and  N_12
REMARK    5  A    between atoms: C_18  and  C_20
REMARK                            x       y       z     vdW  Elec       q    Type
REMARK                         _______ _______ _______ _____ _____    ______ ____
ROOT
ATOM      1  N   UNL     1       1.550  -4.924   0.422  0.00  0.00    -0.174 NA
ATOM      2  C   UNL     1       2.684  -4.965  -0.512  0.00  0.00    +0.128 C 
ATOM      3  C   UNL     1       3.828  -4.126   0.070  0.00  0.00    +0.125 C 
ATOM      4  N   UNL     1       4.045  -4.530   1.466  0.00  0.00    -0.295 N 
ATOM      5  C   UNL     1       2.910  -4.488   2.400  0.00  0.00    +0.125 C 
ATOM      6  C   UNL     1       1.768  -5.323   1.819  0.00  0.00    +0.128 C 
ATOM      7  C   UNL     1       5.262  -4.932   1.883  0.00  0.00    +0.245 C 
ATOM      8  O   UNL     1       5.459  -5.151   3.063  0.00  0.00    -0.270 OA
ENDROOT
BRANCH   7   9
ATOM      9  C   UNL     1       6.348  -5.106   0.914  0.00  0.00    +0.043 C 
ATOM     10  C   UNL     1       7.616  -5.587   1.161  0.00  0.00    +0.009 A 
ATOM     11  C   UNL     1       8.259  -6.043   2.338  0.00  0.00    +0.025 A 
ATOM     12  C   UNL     1       9.541  -6.469   2.291  0.00  0.00    +0.019 A 
ATOM     13  C   UNL     1      10.288  -6.482   1.100  0.00  0.00    +0.017 A 
ATOM     14  C   UNL     1       9.768  -6.067  -0.074  0.00  0.00    +0.027 A 
ATOM     15  C   UNL     1       8.377  -5.588  -0.112  0.00  0.00    +0.043 A 
ATOM     16  N   UNL     1       7.638  -5.140  -1.087  0.00  0.00    -0.380 N 
ATOM     17  C   UNL     1       6.309  -4.800  -0.567  0.00  0.00    +0.154 C 
ATOM     18 BR   UNL     1      10.360  -7.070   3.886  0.00  0.00    -0.050 Br
ATOM     19  H   UNL     1       7.920  -5.049  -2.010  0.00  0.00    +0.160 HD
ENDBRANCH   7   9
BRANCH   1  20
ATOM     20  S   UNL     1       0.054  -4.430  -0.090  0.00  0.00    +0.061 S 
ATOM     21  O   UNL     1      -0.881  -4.904   0.869  0.00  0.00    -0.153 OA
ATOM     22  O   UNL     1      -0.033  -4.763  -1.469  0.00  0.00    -0.153 OA
BRANCH  20  27
ATOM     23  C   UNL     1      -0.047   1.594   0.239  0.00  0.00    +0.044 C 
ATOM     24  C   UNL     1      -0.022   0.089   0.157  0.00  0.00    -0.050 A 
ATOM     25  C   UNL     1      -0.026  -0.535  -1.076  0.00  0.00    +0.005 A 
ATOM     26  C   UNL     1      -0.003  -1.915  -1.152  0.00  0.00    +0.029 A 
ATOM     27  C   UNL     1       0.026  -2.671   0.006  0.00  0.00    +0.108 A 
ATOM     28  C   UNL     1       0.031  -2.046   1.239  0.00  0.00    -0.024 A 
ATOM     29  C   UNL     1       0.012  -0.665   1.314  0.00  0.00    +0.008 A 
ATOM     30  C   UNL     1       0.061  -2.869   2.501  0.00  0.00    +0.046 C 
ENDBRANCH  20  27
ENDBRANCH   1  20
TORSDOF 3
