REMARK  Name = ZINC38990275
REMARK  10 active torsions:
REMARK  status: ('A' for Active; 'I' for Inactive)
REMARK    1  A    between atoms: C_1  and  C_2
REMARK    2  A    between atoms: C_4  and  C_8
REMARK    3  A    between atoms: C_12  and  S_16
REMARK    4  A    between atoms: N_14  and  N_15
REMARK    5  A    between atoms: S_16  and  C_17
REMARK    6  A    between atoms: C_17  and  C_18
REMARK    7  A    between atoms: N_20  and  C_21
REMARK    8  A    between atoms: C_24  and  O_27
REMARK    9  A    between atoms: O_27  and  C_28
REMARK   10  A    between atoms: C_28  and  C_29
REMARK                            x       y       z     vdW  Elec       q    Type
REMARK                         _______ _______ _______ _____ _____    ______ ____
ROOT
ATOM      1  C   UNL     1      -2.807  -5.473  -3.090  0.00  0.00    +0.168 C 
ENDROOT
BRANCH   1   2
ATOM      2  C   UNL     1      -3.748  -6.544  -3.578  0.00  0.00    +0.227 C 
ATOM      3  O   UNL     1      -3.308  -7.600  -3.980  0.00  0.00    -0.275 OA
ATOM      4  N   UNL     1      -5.078  -6.327  -3.568  0.00  0.00    -0.285 N 
ATOM      5  H   UNL     1      -5.434  -5.510  -3.184  0.00  0.00    +0.155 HD
BRANCH   4   6
ATOM      6  C   UNL     1      -5.947  -7.283  -4.111  0.00  0.00    +0.034 A 
ATOM      7  C   UNL     1      -7.099  -6.878  -4.772  0.00  0.00    +0.027 A 
ATOM      8  C   UNL     1      -7.955  -7.820  -5.308  0.00  0.00    +0.047 A 
ATOM      9  C   UNL     1      -7.665  -9.171  -5.184  0.00  0.00    +0.121 A 
ATOM     10  C   UNL     1      -6.515  -9.576  -4.522  0.00  0.00    +0.047 A 
ATOM     11  C   UNL     1      -5.655  -8.635  -3.992  0.00  0.00    +0.027 A 
BRANCH   9  12
ATOM     12  O   UNL     1      -8.509 -10.098  -5.711  0.00  0.00    -0.487 OA
BRANCH  12  13
ATOM     13  C   UNL     1      -8.148 -11.471  -5.546  0.00  0.00    +0.264 C 
BRANCH  13  14
ATOM     14  C   UNL     1      -9.193 -12.345  -6.190  0.00  0.00    -0.010 A 
ATOM     15  C   UNL     1     -10.281 -12.777  -5.454  0.00  0.00    +0.007 A 
ATOM     16  C   UNL     1     -11.240 -13.579  -6.045  0.00  0.00    +0.000 A 
ATOM     17  C   UNL     1     -11.111 -13.949  -7.370  0.00  0.00    +0.000 A 
ATOM     18  C   UNL     1     -10.024 -13.517  -8.106  0.00  0.00    +0.000 A 
ATOM     19  C   UNL     1      -9.067 -12.711  -7.517  0.00  0.00    +0.007 A 
ENDBRANCH  13  14
ENDBRANCH  12  13
ENDBRANCH   9  12
ENDBRANCH   4   6
ENDBRANCH   1   2
BRANCH   1  20
ATOM     20  S   UNL     1      -1.097  -6.062  -3.229  0.00  0.00    -0.115 S 
BRANCH  20  24
ATOM     21  C   UNL     1      -0.978  -2.952  -1.241  0.00  0.00    +0.185 C 
ATOM     22  N   UNL     1      -0.334  -2.359  -2.442  0.00  0.00    -0.234 NA
ATOM     23  N   UNL     1      -0.368  -3.462  -3.416  0.00  0.00    -0.228 NA
ATOM     24  C   UNL     1      -0.103  -4.676  -2.610  0.00  0.00    +0.214 C 
ATOM     25  N   UNL     1      -0.496  -4.353  -1.220  0.00  0.00    -0.197 NA
ATOM     26  H   UNL     1      -0.856  -1.564  -2.778  0.00  0.00    +0.143 HD
ATOM     27  H   UNL     1       0.338  -3.339  -4.127  0.00  0.00    +0.143 HD
BRANCH  21  31
ATOM     28  C   UNL     1      -0.023   1.479   0.069  0.00  0.00    +0.067 C 
ATOM     29  C   UNL     1      -0.001  -0.028   0.049  0.00  0.00    +0.058 C 
ATOM     30  C   UNL     1      -1.089  -0.801   0.044  0.00  0.00    +0.029 C 
ATOM     31  C   UNL     1      -0.533  -2.214   0.024  0.00  0.00    +0.186 C 
ATOM     32  N   UNL     1       0.923  -1.997   0.019  0.00  0.00    -0.177 NA
ATOM     33  N   UNL     1       1.122  -0.779   0.028  0.00  0.00    -0.159 NA
ENDBRANCH  21  31
BRANCH  25  34
ATOM     34  N   UNL     1       0.629  -4.503  -0.312  0.00  0.00    -0.264 NA
ATOM     35  H   UNL     1       0.957  -5.457  -0.298  0.00  0.00    +0.137 HD
ATOM     36  H   UNL     1       1.375  -3.868  -0.553  0.00  0.00    +0.137 HD
ENDBRANCH  25  34
ENDBRANCH  20  24
ENDBRANCH   1  20
TORSDOF 9
