REMARK  Name = ZINC19352635
REMARK  15 active torsions:
REMARK  status: ('A' for Active; 'I' for Inactive)
REMARK    1  A    between atoms: C_1  and  C_2
REMARK    2  A    between atoms: C_2  and  C_3
REMARK    3  A    between atoms: C_3  and  C_4
REMARK    4  A    between atoms: C_4  and  S_5
REMARK    5  A    between atoms: S_5  and  C_6
REMARK    6  A    between atoms: C_9  and  S_11
REMARK    7  A    between atoms: S_11  and  C_12
REMARK    8  A    between atoms: C_12  and  C_13
REMARK    9  A    between atoms: N_15  and  C_16
REMARK   10  A    between atoms: C_16  and  C_17
REMARK   11  A    between atoms: C_17  and  O_18
REMARK   12  A    between atoms: O_18  and  C_19
REMARK   13  A    between atoms: C_22  and  O_25
REMARK   14  A    between atoms: O_25  and  C_26
REMARK   15  A    between atoms: C_26  and  C_27
REMARK                            x       y       z     vdW  Elec       q    Type
REMARK                         _______ _______ _______ _____ _____    ______ ____
ROOT
ATOM      1  C   UNL     1       0.002  -0.004   0.002  0.00  0.00    +0.223 C 
ATOM      2  O   UNL     1       1.060  -0.596  -0.011  0.00  0.00    -0.275 OA
ATOM      3  N   UNL     1      -1.156  -0.694   0.009  0.00  0.00    -0.311 N 
ATOM      4  H   UNL     1      -2.116  -0.157   0.021  0.00  0.00    +0.149 HD
ENDROOT
BRANCH   1   5
ATOM      5  C   UNL     1      -0.018   1.503   0.010  0.00  0.00    +0.172 C 
BRANCH   5   6
ATOM      6  S   UNL     1       1.683   2.131  -0.003  0.00  0.00    -0.088 S 
BRANCH   6  10
ATOM      7  C   UNL     1       1.643   6.566   0.022  0.00  0.00    +0.159 A 
ATOM      8  N   UNL     1       0.464   5.976   0.030  0.00  0.00    -0.134 NA
ATOM      9  N   UNL     1       0.386   4.602   0.024  0.00  0.00    -0.134 NA
ATOM     10  C   UNL     1       1.492   3.882   0.009  0.00  0.00    +0.160 A 
ATOM     11  S   UNL     1       2.742   5.158   0.011  0.00  0.00    -0.033 S 
BRANCH   7  12
ATOM     12  S   UNL     1       2.032   8.285   0.029  0.00  0.00    -0.097 S 
BRANCH  12  13
ATOM     13  C   UNL     1       0.411   9.101   0.049  0.00  0.00    +0.076 C 
BRANCH  13  14
ATOM     14  C   UNL     1       0.605  10.618   0.056  0.00  0.00    +0.011 C 
BRANCH  14  16
ATOM     15  C   UNL     1      -0.569  12.824   0.080  0.00  0.00    +0.004 C 
ATOM     16  C   UNL     1      -0.762  11.306   0.073  0.00  0.00    -0.003 C 
ENDBRANCH  14  16
ENDBRANCH  13  14
ENDBRANCH  12  13
ENDBRANCH   7  12
ENDBRANCH   6  10
ENDBRANCH   5   6
ENDBRANCH   1   5
BRANCH   3  17
ATOM     17  C   UNL     1      -1.136  -2.159   0.001  0.00  0.00    +0.145 C 
BRANCH  17  18
ATOM     18  C   UNL     1      -2.571  -2.688   0.012  0.00  0.00    +0.247 C 
BRANCH  18  19
ATOM     19  O   UNL     1      -3.227  -2.312  -1.201  0.00  0.00    -0.490 OA
BRANCH  19  20
ATOM     20  C   UNL     1      -4.519  -2.707  -1.352  0.00  0.00    +0.121 A 
ATOM     21  C   UNL     1      -5.140  -3.446  -0.355  0.00  0.00    +0.049 A 
ATOM     22  C   UNL     1      -6.454  -3.844  -0.507  0.00  0.00    +0.049 A 
ATOM     23  C   UNL     1      -7.150  -3.513  -1.660  0.00  0.00    +0.121 A 
ATOM     24  C   UNL     1      -6.528  -2.778  -2.659  0.00  0.00    +0.049 A 
ATOM     25  C   UNL     1      -5.215  -2.377  -2.505  0.00  0.00    +0.049 A 
BRANCH  23  26
ATOM     26  O   UNL     1      -8.442  -3.908  -1.812  0.00  0.00    -0.492 OA
BRANCH  26  27
ATOM     27  C   UNL     1      -9.020  -4.661  -0.743  0.00  0.00    +0.225 C 
ATOM     28  C   UNL     1     -10.467  -5.013  -1.092  0.00  0.00    +0.048 C 
ENDBRANCH  26  27
ENDBRANCH  23  26
ENDBRANCH  19  20
ENDBRANCH  18  19
ENDBRANCH  17  18
ENDBRANCH   3  17
TORSDOF 13
