REMARK  Name = ZINC00484864
REMARK  2 active torsions:
REMARK  status: ('A' for Active; 'I' for Inactive)
REMARK    1  A    between atoms: C_3  and  N_21
REMARK    2  A    between atoms: C_5  and  C_6
REMARK                            x       y       z     vdW  Elec       q    Type
REMARK                         _______ _______ _______ _____ _____    ______ ____
ROOT
ATOM      1  C   UNL     1      -1.200   2.284   0.021  0.00  0.00    +0.196 C 
ATOM      2  N   UNL     1      -0.796   3.548   0.639  0.00  0.00    -0.321 N 
ATOM      3  C   UNL     1      -1.912   4.365   0.897  0.00  0.00    +0.052 A 
ATOM      4  C   UNL     1      -1.909   5.762   0.913  0.00  0.00    -0.016 A 
ATOM      5  C   UNL     1      -3.078   6.388   1.232  0.00  0.00    -0.004 A 
ATOM      6  S   UNL     1      -4.213   5.117   1.503  0.00  0.00    -0.087 S 
ATOM      7  C   UNL     1      -3.140   3.755   1.181  0.00  0.00    +0.095 A 
ATOM      8  C   UNL     1      -3.344   2.369   1.195  0.00  0.00    +0.254 C 
ATOM      9  O   UNL     1      -4.372   1.863   1.606  0.00  0.00    -0.270 OA
ATOM     10  N   UNL     1      -2.306   1.630   0.714  0.00  0.00    -0.288 N 
ATOM     11  C   UNL     1      -3.317   7.864   1.325  0.00  0.00    +0.043 C 
ATOM     12  C   UNL     1      -1.957   8.575   1.366  0.00  0.00    +0.005 C 
ATOM     13  C   UNL     1      -1.073   8.007   0.252  0.00  0.00    +0.005 C 
ATOM     14  C   UNL     1      -0.657   6.577   0.595  0.00  0.00    +0.038 C 
ATOM     15  H   UNL     1      -0.265   3.385   1.482  0.00  0.00    +0.148 HD
ATOM     16  H   UNL     1      -2.302   0.667   0.832  0.00  0.00    +0.151 HD
ENDROOT
BRANCH   1  21
ATOM     17  C   UNL     1       0.002  -0.004   0.002  0.00  0.00    +0.017 A 
ATOM     18  C   UNL     1       1.220  -0.658  -0.013  0.00  0.00    +0.041 A 
ATOM     19  C   UNL     1       2.360   0.076  -0.020  0.00  0.00    +0.164 A 
ATOM     20  S   UNL     1       1.725   1.744  -0.005  0.00  0.00    -0.066 S 
ATOM     21  C   UNL     1      -0.016   1.351   0.009  0.00  0.00    +0.030 A 
BRANCH  19  22
ATOM     22  N   UNL     1       3.766  -0.387  -0.037  0.00  0.00    +0.063 N 
ATOM     23  O   UNL     1       4.015  -1.579  -0.046  0.00  0.00    -0.126 OA
ATOM     24  O   UNL     1       4.674   0.425  -0.041  0.00  0.00    -0.126 OA
ENDBRANCH  19  22
ENDBRANCH   1  21
TORSDOF 2
