REMARK  Name = ZINC40795341
REMARK  6 active torsions:
REMARK  status: ('A' for Active; 'I' for Inactive)
REMARK    1  A    between atoms: C_4  and  O_7
REMARK    2  A    between atoms: O_7  and  C_8
REMARK    3  A    between atoms: C_8  and  C_9
REMARK    4  A    between atoms: N_11  and  N_12
REMARK    5  A    between atoms: C_14  and  N_31
REMARK    6  A    between atoms: C_15  and  N_19
REMARK                            x       y       z     vdW  Elec       q    Type
REMARK                         _______ _______ _______ _____ _____    ______ ____
ROOT
ATOM      1  N   UNL     1       6.405  -4.458  -0.162  0.00  0.00    -0.247 N 
ATOM      2  C   UNL     1       6.617  -5.832  -0.147  0.00  0.00    +0.161 A 
ATOM      3  C   UNL     1       7.914  -6.349  -0.159  0.00  0.00    +0.107 A 
ATOM      4  C   UNL     1       8.070  -7.736  -0.143  0.00  0.00    +0.147 A 
ATOM      5  N   UNL     1       6.986  -8.507  -0.116  0.00  0.00    -0.219 NA
ATOM      6  C   UNL     1       5.779  -7.978  -0.105  0.00  0.00    +0.225 A 
ATOM      7  N   UNL     1       5.588  -6.674  -0.115  0.00  0.00    -0.217 NA
ATOM      8  H   UNL     1       7.161  -3.851  -0.185  0.00  0.00    +0.172 HD
ENDROOT
BRANCH   4   9
ATOM      9  N   UNL     1       9.339  -8.303  -0.155  0.00  0.00    -0.311 N 
ATOM     10  C   UNL     1       9.995  -8.695   1.101  0.00  0.00    +0.125 C 
ATOM     11  C   UNL     1      10.387 -10.175   1.007  0.00  0.00    +0.125 C 
ATOM     12  N   UNL     1      11.097 -10.393  -0.262  0.00  0.00    -0.314 N 
ATOM     13  C   UNL     1      10.441 -10.000  -1.517  0.00  0.00    +0.125 C 
ATOM     14  C   UNL     1      10.047  -8.526  -1.423  0.00  0.00    +0.125 C 
ATOM     15  C   UNL     1      12.366 -10.960  -0.273  0.00  0.00    +0.099 A 
ATOM     16  C   UNL     1      12.913 -11.451   0.908  0.00  0.00    +0.042 A 
ATOM     17  C   UNL     1      14.177 -12.013   0.882  0.00  0.00    +0.005 A 
ATOM     18  C   UNL     1      14.853 -12.065  -0.330  0.00  0.00    +0.018 A 
ATOM     19  C   UNL     1      14.250 -11.560  -1.464  0.00  0.00    +0.084 A 
ATOM     20  N   UNL     1      13.041 -11.034  -1.410  0.00  0.00    -0.350 N 
ATOM     21  H   UNL     1      12.639 -10.689  -2.222  0.00  0.00    +0.166 HD
ENDBRANCH   4   9
BRANCH   1  24
ATOM     22  C   UNL     1       4.894  -2.619  -0.157  0.00  0.00    +0.267 C 
ATOM     23  O   UNL     1       5.839  -1.860  -0.186  0.00  0.00    -0.271 OA
ATOM     24  N   UNL     1       5.099  -3.951  -0.143  0.00  0.00    -0.232 N 
ATOM     25  H   UNL     1       4.343  -4.558  -0.119  0.00  0.00    +0.173 HD
BRANCH  22  26
ATOM     26  C   UNL     1       3.489  -2.073  -0.137  0.00  0.00    +0.326 C 
BRANCH  26  27
ATOM     27  O   UNL     1       3.533  -0.645  -0.158  0.00  0.00    -0.483 OA
BRANCH  27  31
ATOM     28  C   UNL     1      -0.084   1.340  -0.115  0.00  0.00    +0.000 A 
ATOM     29  C   UNL     1       1.098   2.058  -0.148  0.00  0.00    +0.004 A 
ATOM     30  C   UNL     1       2.310   1.396  -0.162  0.00  0.00    +0.045 A 
ATOM     31  C   UNL     1       2.341   0.009  -0.143  0.00  0.00    +0.121 A 
ATOM     32  C   UNL     1       1.155  -0.709  -0.111  0.00  0.00    +0.045 A 
ATOM     33  C   UNL     1      -0.055  -0.042  -0.097  0.00  0.00    +0.004 A 
ENDBRANCH  27  31
ENDBRANCH  26  27
ENDBRANCH  22  26
ENDBRANCH   1  24
BRANCH   3  34
ATOM     34  N   UNL     1       9.030  -5.497  -0.188  0.00  0.00    -0.353 N 
ATOM     35  H   UNL     1       8.907  -4.538  -0.273  0.00  0.00    +0.143 HD
ATOM     36  H   UNL     1       9.925  -5.867  -0.122  0.00  0.00    +0.143 HD
ENDBRANCH   3  34
TORSDOF 6
