REMARK  Name = ZINC05423545
REMARK  4 active torsions:
REMARK  status: ('A' for Active; 'I' for Inactive)
REMARK    1  A    between atoms: C_1  and  C_2
REMARK    2  A    between atoms: C_12  and  C_13
REMARK    3  A    between atoms: C_12  and  N_50
REMARK    4  A    between atoms: N_15  and  C_16
REMARK                            x       y       z     vdW  Elec       q    Type
REMARK                         _______ _______ _______ _____ _____    ______ ____
ROOT
ATOM      1  C   UNL     1      -2.030   4.827  -0.087  0.00  0.00    -0.008 C 
ATOM      2  C   UNL     1      -1.965   3.317   0.147  0.00  0.00    -0.040 C 
ATOM      3  C   UNL     1      -1.642   2.625  -1.151  0.00  0.00    -0.054 A 
ATOM      4  C   UNL     1      -2.280   3.062  -2.305  0.00  0.00    +0.051 A 
ATOM      5  C   UNL     1      -2.015   2.453  -3.518  0.00  0.00    +0.162 A 
ATOM      6  C   UNL     1      -1.111   1.402  -3.581  0.00  0.00    +0.162 A 
ATOM      7  C   UNL     1      -0.477   0.968  -2.432  0.00  0.00    +0.053 A 
ATOM      8  C   UNL     1      -0.742   1.583  -1.216  0.00  0.00    -0.044 A 
ATOM      9  C   UNL     1      -0.024   1.081   0.011  0.00  0.00    +0.017 C 
ATOM     10  C   UNL     1      -0.734   1.578   1.270  0.00  0.00    -0.073 C 
ATOM     11  O   UNL     1      -0.853   0.806  -4.782  0.00  0.00    -0.488 OA
ATOM     12  C   UNL     1      -1.928   0.055  -5.350  0.00  0.00    +0.232 C 
ATOM     13  C   UNL     1      -2.867   0.962  -6.128  0.00  0.00    +0.082 C 
ATOM     14  C   UNL     1      -3.573   1.969  -5.234  0.00  0.00    +0.232 C 
ATOM     15  O   UNL     1      -2.635   2.879  -4.656  0.00  0.00    -0.488 OA
ATOM     16  N   UNL     1      -0.915   3.038   1.141  0.00  0.00    +0.390 N 
ATOM     17  H   UNL     1      -0.033   3.459   0.825  0.00  0.00    -0.080 HD
ENDROOT
BRANCH  16  18
ATOM     18  C   UNL     1      -1.286   3.622   2.449  0.00  0.00    +0.020 C 
BRANCH  18  19
ATOM     19  C   UNL     1      -0.106   3.523   3.381  0.00  0.00    +0.201 C 
ATOM     20  O   UNL     1       0.925   3.009   3.002  0.00  0.00    -0.278 OA
ATOM     21  N   UNL     1      -0.197   4.004   4.637  0.00  0.00    -0.287 N 
ATOM     22  H   UNL     1      -0.998   4.474   4.919  0.00  0.00    +0.155 HD
BRANCH  21  23
ATOM     23  C   UNL     1       0.862   3.826   5.533  0.00  0.00    +0.036 A 
ATOM     24  C   UNL     1       0.605   3.623   6.883  0.00  0.00    +0.043 A 
ATOM     25  C   UNL     1       1.653   3.442   7.766  0.00  0.00    +0.044 A 
ATOM     26  C   UNL     1       2.959   3.473   7.307  0.00  0.00    +0.040 A 
ATOM     27  C   UNL     1       3.218   3.680   5.963  0.00  0.00    +0.044 A 
ATOM     28  C   UNL     1       2.173   3.856   5.076  0.00  0.00    +0.043 A 
ATOM     29 CL   UNL     1       4.857   3.718   5.392  0.00  0.00    -0.083 Cl
ATOM     30 CL   UNL     1       1.333   3.183   9.452  0.00  0.00    -0.083 Cl
ENDBRANCH  21  23
ENDBRANCH  18  19
ENDBRANCH  16  18
TORSDOF 3
