REMARK  Name = ZINC40713823
REMARK  1 active torsions:
REMARK  status: ('A' for Active; 'I' for Inactive)
REMARK    1  A    between atoms: C_6  and  N_7
REMARK                            x       y       z     vdW  Elec       q    Type
REMARK                         _______ _______ _______ _____ _____    ______ ____
ROOT
ATOM      1  C   UNL     1       1.019   1.428  -1.180  0.00  0.00    +0.043 A 
ATOM      2  C   UNL     1       1.155   2.060   0.050  0.00  0.00    +0.038 A 
ATOM      3  C   UNL     1       1.330   1.298   1.187  0.00  0.00    +0.128 A 
ATOM      4  N   UNL     1       1.369  -0.021   1.122  0.00  0.00    -0.237 NA
ATOM      5  C   UNL     1       1.244  -0.664  -0.026  0.00  0.00    +0.142 A 
ATOM      6  C   UNL     1       1.064   0.042  -1.219  0.00  0.00    +0.066 A 
ATOM      7  N   UNL     1       1.292  -2.056  -0.048  0.00  0.00    -0.310 N 
ATOM      8  C   UNL     1       0.062  -2.856   0.064  0.00  0.00    +0.107 C 
ATOM      9  C   UNL     1       0.223  -3.867   1.203  0.00  0.00    +0.019 C 
ATOM     10  C   UNL     1       1.498  -4.689   0.987  0.00  0.00    +0.007 C 
ATOM     11  C   UNL     1       2.704  -3.751   0.982  0.00  0.00    +0.010 C 
ATOM     12  C   UNL     1       2.568  -2.765  -0.188  0.00  0.00    +0.078 C 
ATOM     13  C   UNL     1       3.736  -1.780  -0.151  0.00  0.00    +0.023 C 
ATOM     14  C   UNL     1       5.048  -2.554  -0.306  0.00  0.00    +0.002 C 
ATOM     15  C   UNL     1       5.189  -3.569   0.828  0.00  0.00    +0.000 C 
ATOM     16  C   UNL     1       4.001  -4.541   0.811  0.00  0.00    +0.005 C 
ATOM     17 BR   UNL     1       1.103   3.947   0.164  0.00  0.00    -0.049 Br
ENDROOT
BRANCH   6  18
ATOM     18  N   UNL     1       0.932  -0.640  -2.435  0.00  0.00    -0.355 N 
ATOM     19  H   UNL     1       0.890  -0.143  -3.267  0.00  0.00    +0.142 HD
ATOM     20  H   UNL     1       0.882  -1.609  -2.445  0.00  0.00    +0.142 HD
ENDBRANCH   6  18
TORSDOF 1
