REMARK  Name = ZINC09242862
REMARK  3 active torsions:
REMARK  status: ('A' for Active; 'I' for Inactive)
REMARK    1  A    between atoms: C_1  and  C_2
REMARK    2  A    between atoms: C_2  and  N_4
REMARK    3  A    between atoms: N_6  and  C_17
REMARK                            x       y       z     vdW  Elec       q    Type
REMARK                         _______ _______ _______ _____ _____    ______ ____
ROOT
ATOM      1  N   UNL     1      -0.094  -0.680  -1.171  0.00  0.00    -0.159 NA
ATOM      2  C   UNL     1       0.073  -1.998  -1.171  0.00  0.00    +0.154 C 
ATOM      3  N   UNL     1       0.151  -2.846  -0.070  0.00  0.00    -0.275 N 
ATOM      4  C   UNL     1       0.583  -4.177  -0.366  0.00  0.00    +0.116 C 
ATOM      5  C   UNL     1       0.501  -5.336   0.613  0.00  0.00    +0.190 C 
ATOM      6  S   UNL     1       0.807  -6.755  -0.537  0.00  0.00    -0.028 S 
ATOM      7  O   UNL     1      -0.300  -7.645  -0.481  0.00  0.00    -0.174 OA
ATOM      8  O   UNL     1       2.119  -7.255  -0.318  0.00  0.00    -0.174 OA
ATOM      9  C   UNL     1       0.767  -5.840  -2.150  0.00  0.00    +0.182 C 
ATOM     10  C   UNL     1      -0.107  -4.647  -1.703  0.00  0.00    +0.097 C 
ATOM     11  S   UNL     1       0.242  -3.085  -2.595  0.00  0.00    -0.086 S 
ENDROOT
BRANCH   3  12
ATOM     12  C   UNL     1      -0.168  -2.428   1.227  0.00  0.00    +0.054 A 
ATOM     13  C   UNL     1      -1.454  -2.609   1.720  0.00  0.00    +0.026 A 
ATOM     14  C   UNL     1      -1.766  -2.195   3.000  0.00  0.00    +0.017 A 
ATOM     15  C   UNL     1      -0.800  -1.601   3.792  0.00  0.00    +0.019 A 
ATOM     16  C   UNL     1       0.482  -1.419   3.305  0.00  0.00    +0.037 A 
ATOM     17  C   UNL     1       0.802  -1.837   2.027  0.00  0.00    +0.063 A 
ATOM     18 CL   UNL     1       2.413  -1.616   1.419  0.00  0.00    -0.082 Cl
ATOM     19 BR   UNL     1      -1.232  -1.037   5.544  0.00  0.00    -0.050 Br
ENDBRANCH   3  12
BRANCH   1  21
ATOM     20  C   UNL     1       0.570   1.047   0.448  0.00  0.00    +0.111 C 
ATOM     21  C   UNL     1      -0.353  -0.043  -0.033  0.00  0.00    +0.235 C 
ATOM     22  O   UNL     1      -1.335  -0.340   0.620  0.00  0.00    -0.274 OA
ENDBRANCH   1  21
TORSDOF 2
