REMARK  Name = ZINC15813942
REMARK  7 active torsions:
REMARK  status: ('A' for Active; 'I' for Inactive)
REMARK    1  A    between atoms: C_1  and  C_2
REMARK    2  A    between atoms: C_2  and  C_4
REMARK    3  A    between atoms: C_2  and  S_15
REMARK    4  A    between atoms: N_6  and  C_7
REMARK    5  A    between atoms: C_8  and  C_12
REMARK    6  A    between atoms: S_15  and  C_16
REMARK    7  A    between atoms: N_26  and  C_27
REMARK                            x       y       z     vdW  Elec       q    Type
REMARK                         _______ _______ _______ _____ _____    ______ ____
ROOT
ATOM      1  C   UNL     1       2.952   4.237   1.184  0.00  0.00    +0.177 A 
ATOM      2  N   UNL     1       4.075   4.908   1.252  0.00  0.00    -0.223 NA
ATOM      3  C   UNL     1       4.726   5.309   0.142  0.00  0.00    +0.079 A 
ATOM      4  C   UNL     1       5.925   6.026   0.214  0.00  0.00    +0.028 A 
ATOM      5  C   UNL     1       6.552   6.413  -0.936  0.00  0.00    +0.002 A 
ATOM      6  C   UNL     1       6.016   6.106  -2.180  0.00  0.00    +0.001 A 
ATOM      7  C   UNL     1       4.846   5.407  -2.284  0.00  0.00    +0.015 A 
ATOM      8  C   UNL     1       4.185   4.998  -1.126  0.00  0.00    +0.065 A 
ATOM      9  C   UNL     1       2.927   4.241  -1.177  0.00  0.00    +0.267 A 
ATOM     10  O   UNL     1       2.414   3.939  -2.239  0.00  0.00    -0.267 OA
ATOM     11  N   UNL     1       2.358   3.894   0.001  0.00  0.00    -0.253 N 
ENDROOT
BRANCH  11  12
ATOM     12  C   UNL     1       1.155   3.174   0.008  0.00  0.00    +0.087 A 
ATOM     13  C   UNL     1      -0.058   3.847   0.023  0.00  0.00    +0.032 A 
ATOM     14  C   UNL     1      -1.242   3.136   0.031  0.00  0.00    +0.040 A 
ATOM     15  C   UNL     1      -1.221   1.752   0.017  0.00  0.00    +0.126 A 
ATOM     16  C   UNL     1      -0.013   1.076   0.008  0.00  0.00    +0.078 A 
ATOM     17  C   UNL     1       1.176   1.783   0.000  0.00  0.00    +0.150 A 
ATOM     18  F   UNL     1       2.355   1.125  -0.014  0.00  0.00    -0.203 F 
ATOM     19  F   UNL     1      -2.381   1.059   0.019  0.00  0.00    -0.205 F 
ENDBRANCH  11  12
BRANCH   1  20
ATOM     20  S   UNL     1       2.170   3.753   2.687  0.00  0.00    -0.075 S 
BRANCH  20  22
ATOM     21  C   UNL     1       3.343   5.966   3.778  0.00  0.00    +0.029 C 
ATOM     22  C   UNL     1       3.340   4.440   3.885  0.00  0.00    +0.137 C 
BRANCH  22  23
ATOM     23  C   UNL     1       2.929   4.036   5.278  0.00  0.00    +0.231 C 
ATOM     24  O   UNL     1       1.790   3.679   5.494  0.00  0.00    -0.274 OA
ATOM     25  N   UNL     1       3.827   4.071   6.282  0.00  0.00    -0.278 N 
ATOM     26  H   UNL     1       4.737   4.357   6.109  0.00  0.00    +0.155 HD
BRANCH  25  27
ATOM     27  C   UNL     1       3.449   3.699   7.563  0.00  0.00    +0.084 A 
ATOM     28  C   UNL     1       4.224   3.664   8.716  0.00  0.00    +0.065 A 
ATOM     29  C   UNL     1       3.566   3.235   9.928  0.00  0.00    +0.022 A 
ATOM     30  C   UNL     1       2.267   2.898   9.835  0.00  0.00    +0.048 A 
ATOM     31  S   UNL     1       1.898   3.159   8.113  0.00  0.00    -0.081 S 
BRANCH  28  32
ATOM     32  C   UNL     1       5.639   4.047   8.704  0.00  0.00    +0.244 C 
ATOM     33  O   UNL     1       6.163   4.407   7.666  0.00  0.00    -0.270 OA
ATOM     34  N   UNL     1       6.360   4.000   9.841  0.00  0.00    -0.325 N 
ATOM     35  H   UNL     1       5.943   3.713  10.669  0.00  0.00    +0.145 HD
ATOM     36  H   UNL     1       7.296   4.253   9.833  0.00  0.00    +0.145 HD
ENDBRANCH  28  32
ENDBRANCH  25  27
ENDBRANCH  22  23
ENDBRANCH  20  22
ENDBRANCH   1  20
TORSDOF 6
