REMARK  Name = ZINC13632602
REMARK  6 active torsions:
REMARK  status: ('A' for Active; 'I' for Inactive)
REMARK    1  A    between atoms: C_4  and  C_7
REMARK    2  A    between atoms: N_9  and  C_10
REMARK    3  A    between atoms: C_14  and  N_16
REMARK    4  A    between atoms: N_16  and  C_17
REMARK    5  A    between atoms: C_17  and  N_19
REMARK    6  A    between atoms: C_20  and  C_22
REMARK                            x       y       z     vdW  Elec       q    Type
REMARK                         _______ _______ _______ _____ _____    ______ ____
ROOT
ATOM      1  C   UNL     1       2.517  -0.058   0.223  0.00  0.00    +0.035 A 
ATOM      2  C   UNL     1       2.430   1.303  -0.047  0.00  0.00    +0.023 A 
ATOM      3  C   UNL     1       1.207   1.875  -0.337  0.00  0.00    +0.004 A 
ATOM      4  C   UNL     1       0.065   1.097  -0.361  0.00  0.00    +0.023 A 
ATOM      5  C   UNL     1       0.145  -0.264  -0.092  0.00  0.00    +0.034 A 
ATOM      6  C   UNL     1       1.372  -0.842   0.200  0.00  0.00    +0.046 A 
ENDROOT
BRANCH   1   9
ATOM      7  C   UNL     1       4.027  -1.892   0.109  0.00  0.00    +0.248 C 
ATOM      8  O   UNL     1       3.167  -2.550  -0.443  0.00  0.00    -0.270 OA
ATOM      9  N   UNL     1       3.756  -0.636   0.516  0.00  0.00    -0.281 N 
ATOM     10  H   UNL     1       4.420  -0.133   1.013  0.00  0.00    +0.155 HD
BRANCH   7  14
ATOM     11  C   UNL     1       7.884  -3.548   0.753  0.00  0.00    +0.000 A 
ATOM     12  C   UNL     1       6.908  -4.300   0.125  0.00  0.00    +0.001 A 
ATOM     13  C   UNL     1       5.653  -3.769  -0.087  0.00  0.00    +0.013 A 
ATOM     14  C   UNL     1       5.369  -2.468   0.334  0.00  0.00    +0.037 A 
ATOM     15  C   UNL     1       6.360  -1.712   0.962  0.00  0.00    +0.013 A 
ATOM     16  C   UNL     1       7.609  -2.258   1.173  0.00  0.00    +0.001 A 
ENDBRANCH   7  14
ENDBRANCH   1   9
BRANCH   5  17
ATOM     17  N   UNL     1      -1.011  -1.051  -0.117  0.00  0.00    -0.297 N 
ATOM     18  H   UNL     1      -1.676  -0.915  -0.810  0.00  0.00    +0.154 HD
BRANCH  17  19
ATOM     19  C   UNL     1      -1.202  -1.998   0.823  0.00  0.00    +0.141 C 
ATOM     20  S   UNL     1      -0.103  -2.142   2.128  0.00  0.00    -0.018 S 
BRANCH  19  21
ATOM     21  N   UNL     1      -2.257  -2.832   0.736  0.00  0.00    -0.261 N 
ATOM     22  C   UNL     1      -2.447  -3.779   1.675  0.00  0.00    +0.285 C 
ATOM     23  O   UNL     1      -1.666  -3.882   2.603  0.00  0.00    -0.266 OA
ATOM     24  H   UNL     1      -2.880  -2.750  -0.004  0.00  0.00    +0.157 HD
BRANCH  22  25
ATOM     25  C   UNL     1      -3.594  -4.685   1.580  0.00  0.00    +0.191 A 
ATOM     26  C   UNL     1      -3.900  -5.688   2.457  0.00  0.00    +0.056 A 
ATOM     27  C   UNL     1      -5.074  -6.293   1.984  0.00  0.00    +0.058 A 
ATOM     28  C   UNL     1      -5.425  -5.648   0.847  0.00  0.00    +0.171 A 
ATOM     29  O   UNL     1      -4.530  -4.680   0.608  0.00  0.00    -0.444 OA
ATOM     30 BR   UNL     1      -6.930  -6.047  -0.226  0.00  0.00    -0.008 Br
ENDBRANCH  22  25
ENDBRANCH  19  21
ENDBRANCH  17  19
ENDBRANCH   5  17
TORSDOF 6
