REMARK  Name = ZINC19529427
REMARK  4 active torsions:
REMARK  status: ('A' for Active; 'I' for Inactive)
REMARK    1  A    between atoms: C_11  and  C_13
REMARK    2  A    between atoms: C_13  and  N_14
REMARK    3  A    between atoms: N_17  and  S_20
REMARK    4  A    between atoms: S_20  and  C_23
REMARK                            x       y       z     vdW  Elec       q    Type
REMARK                         _______ _______ _______ _____ _____    ______ ____
ROOT
ATOM      1  N   UNL     1      -1.039   2.760   1.278  0.00  0.00    +0.387 N 
ATOM      2  C   UNL     1      -0.993   1.317   1.554  0.00  0.00    -0.061 C 
ATOM      3  C   UNL     1      -0.374   0.591   0.355  0.00  0.00    +0.091 C 
ATOM      4  N   UNL     1      -1.112   0.972  -0.859  0.00  0.00    -0.180 NA
ATOM      5  C   UNL     1      -1.314   2.403  -1.130  0.00  0.00    +0.091 C 
ATOM      6  C   UNL     1      -1.901   3.058   0.126  0.00  0.00    -0.061 C 
ATOM      7  H   UNL     1      -0.019   3.082   1.022  0.00  0.00    -0.081 HD
ENDROOT
BRANCH   4   8
ATOM      8  S   UNL     1      -1.700  -0.180  -1.893  0.00  0.00    +0.061 S 
ATOM      9  O   UNL     1      -1.835   0.444  -3.162  0.00  0.00    -0.153 OA
ATOM     10  O   UNL     1      -0.907  -1.344  -1.698  0.00  0.00    -0.153 OA
BRANCH   8  11
ATOM     11  C   UNL     1      -3.328  -0.584  -1.354  0.00  0.00    +0.107 A 
ATOM     12  C   UNL     1      -3.521  -1.605  -0.442  0.00  0.00    +0.028 A 
ATOM     13  C   UNL     1      -4.798  -1.919  -0.015  0.00  0.00    +0.003 A 
ATOM     14  C   UNL     1      -5.883  -1.218  -0.507  0.00  0.00    +0.020 A 
ATOM     15  C   UNL     1      -5.691  -0.199  -1.423  0.00  0.00    +0.043 A 
ATOM     16  C   UNL     1      -4.412   0.118  -1.846  0.00  0.00    +0.048 A 
ATOM     17 CL   UNL     1      -7.053   0.681  -2.041  0.00  0.00    -0.083 Cl
ENDBRANCH   8  11
ENDBRANCH   4   8
BRANCH   1  18
ATOM     18  C   UNL     1      -1.470   3.509   2.465  0.00  0.00    +0.019 C 
BRANCH  18  29
ATOM     19  C   UNL     1       2.336   2.653   6.479  0.00  0.00    +0.002 A 
ATOM     20  C   UNL     1       2.368   3.445   7.613  0.00  0.00    +0.001 A 
ATOM     21  C   UNL     1       1.383   4.390   7.820  0.00  0.00    +0.016 A 
ATOM     22  C   UNL     1       0.360   4.549   6.893  0.00  0.00    +0.029 A 
ATOM     23  C   UNL     1       0.327   3.759   5.748  0.00  0.00    +0.050 A 
ATOM     24  C   UNL     1       1.325   2.807   5.553  0.00  0.00    +0.024 A 
ATOM     25  N   UNL     1      -0.668   3.878   4.776  0.00  0.00    -0.271 N 
ATOM     26  C   UNL     1      -1.951   4.529   5.025  0.00  0.00    +0.124 C 
ATOM     27  C   UNL     1      -1.697   5.936   5.575  0.00  0.00    +0.094 C 
ATOM     28  S   UNL     1      -0.889   5.760   7.194  0.00  0.00    -0.122 S 
ATOM     29  C   UNL     1      -0.432   3.373   3.549  0.00  0.00    +0.203 C 
ATOM     30  O   UNL     1       0.616   2.808   3.317  0.00  0.00    -0.277 OA
ENDBRANCH  18  29
ENDBRANCH   1  18
TORSDOF 4
