REMARK  Name = ZINC11726401
REMARK  7 active torsions:
REMARK  status: ('A' for Active; 'I' for Inactive)
REMARK    1  A    between atoms: C_1  and  C_2
REMARK    2  A    between atoms: C_2  and  N_3
REMARK    3  A    between atoms: N_12  and  C_13
REMARK    4  A    between atoms: C_13  and  C_15
REMARK    5  A    between atoms: C_18  and  S_21
REMARK    6  A    between atoms: S_21  and  N_24
REMARK    7  A    between atoms: C_29  and  C_31
REMARK                            x       y       z     vdW  Elec       q    Type
REMARK                         _______ _______ _______ _____ _____    ______ ____
ROOT
ATOM      1  C   UNL     1      -4.083   0.757  -1.049  0.00  0.00    +0.039 A 
ATOM      2  C   UNL     1      -3.404  -0.448  -1.228  0.00  0.00    +0.015 A 
ATOM      3  C   UNL     1      -4.064  -1.644  -1.035  0.00  0.00    +0.029 A 
ATOM      4  C   UNL     1      -5.400  -1.650  -0.675  0.00  0.00    +0.106 A 
ATOM      5  C   UNL     1      -6.081  -0.458  -0.501  0.00  0.00    +0.029 A 
ATOM      6  C   UNL     1      -5.430   0.745  -0.686  0.00  0.00    +0.015 A 
ENDROOT
BRANCH   4   7
ATOM      7  S   UNL     1      -6.238  -3.182  -0.439  0.00  0.00    +0.061 S 
ATOM      8  O   UNL     1      -5.268  -4.107   0.032  0.00  0.00    -0.153 OA
ATOM      9  O   UNL     1      -7.425  -2.887   0.285  0.00  0.00    -0.153 OA
BRANCH   7  10
ATOM     10  N   UNL     1      -6.715  -3.715  -1.932  0.00  0.00    -0.174 NA
ATOM     11  C   UNL     1      -5.918  -4.710  -2.661  0.00  0.00    +0.110 C 
ATOM     12  C   UNL     1      -6.835  -5.880  -3.051  0.00  0.00    +0.017 C 
ATOM     13  C   UNL     1      -8.035  -5.341  -3.834  0.00  0.00    +0.003 C 
ATOM     14  C   UNL     1      -8.831  -4.378  -2.950  0.00  0.00    +0.020 C 
ATOM     15  C   UNL     1      -7.940  -3.196  -2.556  0.00  0.00    +0.077 C 
ATOM     16  C   UNL     1      -8.684  -2.302  -1.562  0.00  0.00    +0.026 C 
ENDBRANCH   7  10
ENDBRANCH   4   7
BRANCH   1  17
ATOM     17  C   UNL     1      -3.379   2.045  -1.248  0.00  0.00    +0.269 C 
ATOM     18  O   UNL     1      -3.976   3.096  -1.096  0.00  0.00    -0.268 OA
BRANCH  17  28
ATOM     19  N   UNL     1      -0.159   3.414  -2.127  0.00  0.00    -0.321 N 
ATOM     20  C   UNL     1       0.325   4.703  -2.267  0.00  0.00    +0.058 A 
ATOM     21  C   UNL     1       1.621   5.112  -2.620  0.00  0.00    +0.030 A 
ATOM     22  C   UNL     1       1.936   6.447  -2.715  0.00  0.00    +0.040 A 
ATOM     23  C   UNL     1       0.988   7.428  -2.467  0.00  0.00    +0.125 A 
ATOM     24  C   UNL     1      -0.299   7.051  -2.117  0.00  0.00    +0.055 A 
ATOM     25  C   UNL     1      -0.613   5.716  -2.022  0.00  0.00    +0.042 A 
ATOM     26  S   UNL     1      -2.088   4.816  -1.617  0.00  0.00    -0.052 S 
ATOM     27  C   UNL     1      -1.456   3.209  -1.775  0.00  0.00    +0.167 A 
ATOM     28  N   UNL     1      -2.088   2.054  -1.596  0.00  0.00    -0.152 NA
ATOM     29  F   UNL     1       1.315   8.735  -2.565  0.00  0.00    -0.205 F 
BRANCH  19  31
ATOM     30  C   UNL     1       0.397   1.161  -1.357  0.00  0.00    +0.027 C 
ATOM     31  C   UNL     1       0.727   2.271  -2.357  0.00  0.00    +0.121 C 
ENDBRANCH  19  31
ENDBRANCH  17  28
ENDBRANCH   1  17
TORSDOF 5
