REMARK  Name = ZINC16037572
REMARK  5 active torsions:
REMARK  status: ('A' for Active; 'I' for Inactive)
REMARK    1  A    between atoms: C_1  and  C_2
REMARK    2  A    between atoms: C_5  and  N_33
REMARK    3  A    between atoms: C_7  and  N_8
REMARK    4  A    between atoms: C_24  and  C_30
REMARK    5  A    between atoms: C_30  and  C_32
REMARK                            x       y       z     vdW  Elec       q    Type
REMARK                         _______ _______ _______ _____ _____    ______ ____
ROOT
ATOM      1  N   UNL     1       0.026  -0.013   2.419  0.00  0.00    -0.209 N 
ATOM      2  C   UNL     1      -1.110   0.340   3.089  0.00  0.00    +0.232 C 
ATOM      3  O   UNL     1      -2.224  -0.109   2.925  0.00  0.00    -0.274 OA
ATOM      4  C   UNL     1      -0.694   1.407   4.078  0.00  0.00    +0.115 C 
ATOM      5  C   UNL     1      -1.198   1.416   5.467  0.00  0.00    +0.117 C 
ATOM      6  C   UNL     1      -2.369   0.808   6.062  0.00  0.00    -0.019 A 
ATOM      7  C   UNL     1      -3.352   0.162   5.343  0.00  0.00    +0.006 A 
ATOM      8  C   UNL     1      -4.451  -0.387   5.974  0.00  0.00    +0.000 A 
ATOM      9  C   UNL     1      -4.585  -0.296   7.349  0.00  0.00    +0.001 A 
ATOM     10  C   UNL     1      -3.615   0.342   8.092  0.00  0.00    +0.008 A 
ATOM     11  C   UNL     1      -2.499   0.895   7.468  0.00  0.00    -0.019 A 
ATOM     12  C   UNL     1      -1.450   1.554   8.268  0.00  0.00    +0.023 C 
ATOM     13  C   UNL     1      -0.274   1.930   7.730  0.00  0.00    +0.072 C 
ATOM     14  N   UNL     1      -0.079   1.636   6.395  0.00  0.00    -0.317 N 
ATOM     15  C   UNL     1       1.174   1.430   5.624  0.00  0.00    +0.152 C 
ATOM     16  C   UNL     1       0.724   0.756   4.383  0.00  0.00    +0.117 C 
ATOM     17  C   UNL     1       1.171   0.377   3.068  0.00  0.00    +0.232 C 
ATOM     18  O   UNL     1       2.302   0.399   2.633  0.00  0.00    -0.274 OA
ENDROOT
BRANCH   1  25
ATOM     19  C   UNL     1      -0.018   1.503   0.010  0.00  0.00    +0.045 C 
ATOM     20  C   UNL     1       0.002  -0.004   0.002  0.00  0.00    -0.028 A 
ATOM     21  C   UNL     1       0.006  -0.689  -1.198  0.00  0.00    +0.007 A 
ATOM     22  C   UNL     1       0.024  -2.071  -1.206  0.00  0.00    +0.033 A 
ATOM     23  C   UNL     1       0.040  -2.773  -0.014  0.00  0.00    +0.128 A 
ATOM     24  C   UNL     1       0.036  -2.094   1.188  0.00  0.00    +0.057 A 
ATOM     25  C   UNL     1       0.023  -0.705   1.200  0.00  0.00    +0.049 A 
BRANCH  23  26
ATOM     26  N   UNL     1       0.059  -4.253  -0.028  0.00  0.00    +0.056 N 
ATOM     27  O   UNL     1       0.062  -4.848  -1.080  0.00  0.00    -0.126 OA
ATOM     28  O   UNL     1       0.072  -4.866   1.014  0.00  0.00    -0.126 OA
ENDBRANCH  23  26
ENDBRANCH   1  25
BRANCH  15  29
ATOM     29  C   UNL     1       1.812   2.752   5.282  0.00  0.00    +0.151 C 
ATOM     30  O   UNL     1       1.186   3.776   5.414  0.00  0.00    -0.296 OA
ATOM     31  C   UNL     1       3.231   2.796   4.777  0.00  0.00    +0.088 C 
ENDBRANCH  15  29
TORSDOF 3
