REMARK  Name = ZINC13577031
REMARK  6 active torsions:
REMARK  status: ('A' for Active; 'I' for Inactive)
REMARK    1  A    between atoms: C_1  and  C_2
REMARK    2  A    between atoms: C_2  and  N_3
REMARK    3  A    between atoms: C_12  and  C_15
REMARK    4  A    between atoms: C_18  and  C_20
REMARK    5  A    between atoms: N_26  and  C_29
REMARK    6  A    between atoms: C_29  and  C_30
REMARK                            x       y       z     vdW  Elec       q    Type
REMARK                         _______ _______ _______ _____ _____    ______ ____
ROOT
ATOM      1  N   UNL     1       0.655  -0.410  -1.299  0.00  0.00    -0.312 N 
ATOM      2  C   UNL     1      -0.047  -0.580  -2.480  0.00  0.00    +0.109 A 
ATOM      3  C   UNL     1       0.620  -0.714  -3.691  0.00  0.00    +0.057 A 
ATOM      4  C   UNL     1      -0.128  -0.873  -4.858  0.00  0.00    +0.263 A 
ATOM      5  O   UNL     1       0.429  -0.992  -5.939  0.00  0.00    -0.267 OA
ATOM      6  N   UNL     1      -1.475  -0.895  -4.778  0.00  0.00    -0.269 N 
ATOM      7  C   UNL     1      -2.214  -1.037  -5.914  0.00  0.00    +0.096 A 
ATOM      8  C   UNL     1      -3.564  -1.067  -5.861  0.00  0.00    +0.019 A 
ATOM      9  C   UNL     1      -4.224  -0.952  -4.630  0.00  0.00    +0.008 A 
ATOM     10  C   UNL     1      -3.496  -0.806  -3.488  0.00  0.00    -0.009 A 
ATOM     11  C   UNL     1      -2.090  -0.772  -3.562  0.00  0.00    +0.122 A 
ATOM     12  N   UNL     1      -1.379  -0.618  -2.450  0.00  0.00    -0.329 N 
ATOM     13  C   UNL     1      -4.189  -0.681  -2.155  0.00  0.00    +0.047 C 
ATOM     14  C   UNL     1       2.122  -0.697  -3.773  0.00  0.00    +0.071 C 
ATOM     15  C   UNL     1       2.715  -0.025  -2.532  0.00  0.00    +0.147 C 
ATOM     16  C   UNL     1       2.101  -0.668  -1.285  0.00  0.00    +0.096 C 
ATOM     17  C   UNL     1       2.357  -2.176  -1.308  0.00  0.00    +0.029 C 
ATOM     18  C   UNL     1       2.382   1.440  -2.547  0.00  0.00    +0.257 C 
ATOM     19  O   UNL     1       1.092   1.810  -2.555  0.00  0.00    -0.272 OA
ATOM     20  N   UNL     1       3.297   2.361  -2.553  0.00  0.00    -0.127 NA
ATOM     21  C   UNL     1       4.608   2.076  -2.544  0.00  0.00    +0.335 C 
ATOM     22  O   UNL     1       5.413   2.988  -2.556  0.00  0.00    -0.250 OA
ATOM     23  N   UNL     1       5.053   0.810  -2.524  0.00  0.00    -0.219 N 
ATOM     24  C   UNL     1       4.204  -0.230  -2.516  0.00  0.00    +0.241 C 
ATOM     25  O   UNL     1       4.648  -1.358  -2.495  0.00  0.00    -0.274 OA
ATOM     26  H   UNL     1      -1.837  -0.531  -1.599  0.00  0.00    +0.168 HD
ENDROOT
BRANCH   1  28
ATOM     27  C   UNL     1      -0.023   1.556  -0.013  0.00  0.00    +0.024 C 
ATOM     28  C   UNL     1      -0.033   0.028  -0.082  0.00  0.00    +0.103 C 
ENDBRANCH   1  28
BRANCH  23  29
ATOM     29  C   UNL     1       6.496   0.557  -2.511  0.00  0.00    +0.154 C 
BRANCH  29  30
ATOM     30  C   UNL     1       7.014   0.678  -1.101  0.00  0.00    -0.011 A 
ATOM     31  C   UNL     1       7.524   1.883  -0.654  0.00  0.00    +0.006 A 
ATOM     32  C   UNL     1       8.000   1.994   0.639  0.00  0.00    +0.000 A 
ATOM     33  C   UNL     1       7.965   0.902   1.486  0.00  0.00    +0.001 A 
ATOM     34  C   UNL     1       7.456  -0.303   1.040  0.00  0.00    +0.020 A 
ATOM     35  C   UNL     1       6.974  -0.414  -0.253  0.00  0.00    +0.046 A 
ATOM     36 CL   UNL     1       6.328  -1.925  -0.812  0.00  0.00    -0.083 Cl
ENDBRANCH  29  30
ENDBRANCH  23  29
TORSDOF 3
