REMARK  Name = ZINC13027515
REMARK  8 active torsions:
REMARK  status: ('A' for Active; 'I' for Inactive)
REMARK    1  A    between atoms: C_1  and  C_2
REMARK    2  A    between atoms: C_5  and  C_29
REMARK    3  A    between atoms: C_7  and  S_8
REMARK    4  A    between atoms: S_8  and  N_11
REMARK    5  A    between atoms: N_11  and  C_12
REMARK    6  A    between atoms: C_15  and  S_18
REMARK    7  A    between atoms: S_18  and  N_21
REMARK    8  A    between atoms: N_21  and  C_22
REMARK                            x       y       z     vdW  Elec       q    Type
REMARK                         _______ _______ _______ _____ _____    ______ ____
ROOT
ATOM      1  C   UNL     1       1.215   2.194   2.127  0.00  0.00    +0.048 A 
ATOM      2  C   UNL     1       0.966   2.117   0.762  0.00  0.00    +0.026 A 
ATOM      3  C   UNL     1       1.004   3.260  -0.011  0.00  0.00    +0.031 A 
ATOM      4  C   UNL     1       1.290   4.482   0.572  0.00  0.00    +0.110 A 
ATOM      5  C   UNL     1       1.538   4.562   1.930  0.00  0.00    +0.031 A 
ATOM      6  C   UNL     1       1.496   3.423   2.710  0.00  0.00    +0.026 A 
ENDROOT
BRANCH   4   7
ATOM      7  S   UNL     1       1.339   5.938  -0.418  0.00  0.00    +0.092 S 
ATOM      8  O   UNL     1       2.164   6.869   0.269  0.00  0.00    -0.148 OA
ATOM      9  O   UNL     1       1.610   5.516  -1.748  0.00  0.00    -0.148 OA
BRANCH   7  10
ATOM     10  N   UNL     1      -0.189   6.576  -0.426  0.00  0.00    -0.098 NA
BRANCH  10  11
ATOM     11  C   UNL     1      -0.453   7.748  -1.140  0.00  0.00    +0.074 A 
ATOM     12  C   UNL     1       0.564   8.376  -1.847  0.00  0.00    +0.028 A 
ATOM     13  C   UNL     1       0.300   9.534  -2.552  0.00  0.00    +0.022 A 
ATOM     14  C   UNL     1      -0.976  10.070  -2.553  0.00  0.00    +0.041 A 
ATOM     15  C   UNL     1      -1.991   9.446  -1.849  0.00  0.00    +0.022 A 
ATOM     16  C   UNL     1      -1.734   8.285  -1.147  0.00  0.00    +0.028 A 
ATOM     17 CL   UNL     1      -1.303  11.526  -3.439  0.00  0.00    -0.084 Cl
ENDBRANCH  10  11
ENDBRANCH   7  10
ENDBRANCH   4   7
BRANCH   1  18
ATOM     18  N   UNL     1       1.176   1.039   2.912  0.00  0.00    -0.216 N 
ATOM     19  H   UNL     1       1.882   0.866   3.554  0.00  0.00    +0.174 HD
BRANCH  18  20
ATOM     20  S   UNL     1      -0.075  -0.033   2.746  0.00  0.00    +0.073 S 
ATOM     21  O   UNL     1      -1.270   0.735   2.742  0.00  0.00    -0.150 OA
ATOM     22  O   UNL     1       0.158  -1.076   3.684  0.00  0.00    -0.150 OA
BRANCH  20  29
ATOM     23  C   UNL     1       2.240  -1.763   1.867  0.00  0.00    +0.046 C 
ATOM     24  C   UNL     1       1.166  -1.535   0.834  0.00  0.00    -0.024 A 
ATOM     25  C   UNL     1       1.283  -2.111  -0.419  0.00  0.00    +0.006 A 
ATOM     26  C   UNL     1       0.305  -1.905  -1.369  0.00  0.00    +0.015 A 
ATOM     27  C   UNL     1      -0.806  -1.114  -1.064  0.00  0.00    +0.065 A 
ATOM     28  C   UNL     1      -0.917  -0.537   0.203  0.00  0.00    +0.044 A 
ATOM     29  C   UNL     1       0.067  -0.755   1.145  0.00  0.00    +0.112 A 
BRANCH  27  30
ATOM     30  C   UNL     1      -1.856  -0.890  -2.076  0.00  0.00    +0.387 C 
ATOM     31  O   UNL     1      -1.756  -1.396  -3.184  0.00  0.00    -0.241 OA
ATOM     32  O   UNL     1      -2.827  -0.197  -1.806  0.00  0.00    -0.241 OA
ENDBRANCH  27  30
ENDBRANCH  20  29
ENDBRANCH  18  20
ENDBRANCH   1  18
TORSDOF 7
