REMARK  Name = ZINC39780133
REMARK  9 active torsions:
REMARK  status: ('A' for Active; 'I' for Inactive)
REMARK    1  A    between atoms: C_1  and  C_2
REMARK    2  A    between atoms: C_2  and  O_3
REMARK    3  A    between atoms: O_3  and  C_4
REMARK    4  A    between atoms: C_4  and  C_6
REMARK    5  A    between atoms: C_7  and  C_39
REMARK    6  A    between atoms: C_14  and  C_15
REMARK    7  A    between atoms: C_25  and  C_27
REMARK    8  A    between atoms: C_36  and  O_37
REMARK    9  A    between atoms: O_37  and  C_38
REMARK                            x       y       z     vdW  Elec       q    Type
REMARK                         _______ _______ _______ _____ _____    ______ ____
ROOT
ATOM      1  C   UNL     1       1.274  -2.320  -2.495  0.00  0.00    +0.085 C 
ATOM      2  C   UNL     1       1.669  -3.627  -2.482  0.00  0.00    +0.053 C 
ATOM      3  N   UNL     1       2.418  -4.116  -3.465  0.00  0.00    -0.228 NA
ATOM      4  C   UNL     1       2.835  -3.431  -4.497  0.00  0.00    +0.178 A 
ATOM      5  N   UNL     1       2.551  -2.100  -4.704  0.00  0.00    -0.275 N 
ATOM      6  C   UNL     1       3.035  -1.502  -5.800  0.00  0.00    +0.268 A 
ATOM      7  O   UNL     1       2.812  -0.328  -6.025  0.00  0.00    -0.266 OA
ATOM      8  C   UNL     1       3.851  -2.315  -6.725  0.00  0.00    +0.080 A 
ATOM      9  C   UNL     1       4.462  -1.951  -7.909  0.00  0.00    +0.026 C 
ATOM     10  S   UNL     1       3.833  -3.897  -5.898  0.00  0.00    -0.046 S 
ATOM     11  C   UNL     1       1.708  -1.457  -3.657  0.00  0.00    +0.166 C 
ATOM     12  C   UNL     1       1.252  -4.523  -1.344  0.00  0.00    +0.066 C 
ENDROOT
BRANCH   9  13
ATOM     13  C   UNL     1       5.195  -2.892  -8.636  0.00  0.00    -0.018 C 
ATOM     14  C   UNL     1       5.872  -2.688  -9.837  0.00  0.00    +0.003 A 
ATOM     15  C   UNL     1       6.034  -1.554 -10.662  0.00  0.00    +0.010 A 
ATOM     16  C   UNL     1       6.764  -1.650 -11.802  0.00  0.00    +0.001 A 
ATOM     17  C   UNL     1       7.367  -2.851 -12.189  0.00  0.00    +0.002 A 
ATOM     18  C   UNL     1       7.255  -3.978 -11.448  0.00  0.00    +0.026 A 
ATOM     19  C   UNL     1       6.506  -3.958 -10.239  0.00  0.00    +0.043 A 
ATOM     20  N   UNL     1       6.251  -4.899  -9.358  0.00  0.00    -0.380 N 
ATOM     21  C   UNL     1       5.427  -4.344  -8.280  0.00  0.00    +0.149 C 
ATOM     22  H   UNL     1       6.562  -5.816  -9.411  0.00  0.00    +0.160 HD
ENDBRANCH   9  13
BRANCH  11  23
ATOM     23  C   UNL     1       0.468  -0.917  -4.322  0.00  0.00    +0.029 A 
ATOM     24  C   UNL     1       0.117   0.435  -4.169  0.00  0.00    -0.009 A 
ATOM     25  C   UNL     1       0.904   1.310  -3.401  0.00  0.00    +0.009 A 
ATOM     26  C   UNL     1       0.534   2.614  -3.275  0.00  0.00    +0.001 A 
ATOM     27  C   UNL     1      -0.616   3.096  -3.897  0.00  0.00    +0.001 A 
ATOM     28  C   UNL     1      -1.402   2.278  -4.648  0.00  0.00    +0.008 A 
ATOM     29  C   UNL     1      -1.052   0.926  -4.802  0.00  0.00    -0.017 A 
ATOM     30  C   UNL     1      -1.841   0.052  -5.571  0.00  0.00    +0.012 A 
ATOM     31  C   UNL     1      -1.474  -1.251  -5.700  0.00  0.00    +0.046 A 
ATOM     32  C   UNL     1      -0.318  -1.737  -5.080  0.00  0.00    +0.126 A 
BRANCH  32  33
ATOM     33  O   UNL     1       0.026  -3.043  -5.232  0.00  0.00    -0.495 OA
ATOM     34  C   UNL     1      -0.835  -3.851  -6.037  0.00  0.00    +0.277 C 
ENDBRANCH  32  33
ENDBRANCH  11  23
BRANCH   1  35
ATOM     35  C   UNL     1       0.480  -1.794  -1.459  0.00  0.00    +0.339 C 
ATOM     36  O   UNL     1       0.033  -2.532  -0.600  0.00  0.00    -0.245 OA
BRANCH  35  37
ATOM     37  O   UNL     1       0.215  -0.470  -1.418  0.00  0.00    -0.462 OA
BRANCH  37  39
ATOM     38  C   UNL     1      -0.787   1.508  -0.458  0.00  0.00    +0.048 C 
ATOM     39  C   UNL     1      -0.597  -0.005  -0.338  0.00  0.00    +0.229 C 
ENDBRANCH  37  39
ENDBRANCH  35  37
ENDBRANCH   1  35
TORSDOF 6
