REMARK  Name = ZINC39293289
REMARK  3 active torsions:
REMARK  status: ('A' for Active; 'I' for Inactive)
REMARK    1  A    between atoms: C_1  and  O_2
REMARK    2  A    between atoms: O_2  and  C_3
REMARK    3  A    between atoms: C_26  and  O_29
REMARK                            x       y       z     vdW  Elec       q    Type
REMARK                         _______ _______ _______ _____ _____    ______ ____
ROOT
ATOM      1  C   UNL     1      -0.700  -1.192  -0.484  0.00  0.00    +0.162 A 
ATOM      2  C   UNL     1      -1.759  -0.287  -0.467  0.00  0.00    +0.050 A 
ATOM      3  C   UNL     1      -3.081  -0.694  -0.354  0.00  0.00    +0.009 A 
ATOM      4  C   UNL     1      -3.382  -2.026  -0.228  0.00  0.00    -0.022 A 
ATOM      5  C   UNL     1      -2.337  -2.929  -0.172  0.00  0.00    +0.016 A 
ATOM      6  C   UNL     1      -1.003  -2.548  -0.359  0.00  0.00    +0.167 A 
ATOM      7  O   UNL     1      -0.203  -3.648  -0.453  0.00  0.00    -0.484 OA
ATOM      8  C   UNL     1      -0.865  -4.704   0.207  0.00  0.00    +0.191 C 
ATOM      9  C   UNL     1      -2.366  -4.407  -0.004  0.00  0.00    +0.056 C 
ATOM     10  C   UNL     1      -2.892  -5.019  -1.309  0.00  0.00    +0.038 C 
ATOM     11  C   UNL     1      -4.413  -4.883  -1.314  0.00  0.00    +0.108 C 
ATOM     12  N   UNL     1      -4.899  -3.515  -1.325  0.00  0.00    -0.311 N 
ATOM     13  C   UNL     1      -4.778  -2.616  -0.161  0.00  0.00    +0.142 C 
ATOM     14  C   UNL     1      -5.501  -3.034  -2.476  0.00  0.00    +0.126 A 
ATOM     15  C   UNL     1      -5.430  -3.757  -3.669  0.00  0.00    +0.063 A 
ATOM     16  C   UNL     1      -6.046  -3.236  -4.789  0.00  0.00    +0.117 A 
ATOM     17  N   UNL     1      -6.680  -2.075  -4.698  0.00  0.00    -0.226 NA
ATOM     18  C   UNL     1      -6.729  -1.416  -3.557  0.00  0.00    +0.224 A 
ATOM     19  N   UNL     1      -6.160  -1.879  -2.461  0.00  0.00    -0.202 NA
ATOM     20 CL   UNL     1      -7.573   0.100  -3.493  0.00  0.00    -0.041 Cl
ATOM     21  C   UNL     1      -3.048  -5.012   1.180  0.00  0.00    -0.013 C 
ATOM     22  C   UNL     1      -2.654  -6.251   1.446  0.00  0.00    +0.001 C 
ATOM     23  C   UNL     1      -1.662  -7.006   0.622  0.00  0.00    +0.141 C 
ATOM     24  C   UNL     1      -0.629  -6.146  -0.125  0.00  0.00    +0.081 C 
ENDROOT
BRANCH   1  26
ATOM     25  C   UNL     1       0.794   0.640  -0.743  0.00  0.00    +0.277 C 
ATOM     26  O   UNL     1       0.585  -0.768  -0.622  0.00  0.00    -0.491 OA
ENDBRANCH   1  26
BRANCH  23  27
ATOM     27  O   UNL     1      -0.978  -7.926   1.474  0.00  0.00    -0.388 OA
ATOM     28  H   UNL     1      -1.557  -8.571   1.903  0.00  0.00    +0.210 HD
ENDBRANCH  23  27
TORSDOF 2
