REMARK  Name = ZINC12972057
REMARK  10 active torsions:
REMARK  status: ('A' for Active; 'I' for Inactive)
REMARK    1  A    between atoms: C_1  and  C_2
REMARK    2  A    between atoms: C_2  and  C_4
REMARK    3  A    between atoms: C_2  and  N_54
REMARK    4  A    between atoms: C_9  and  N_54
REMARK    5  A    between atoms: C_10  and  C_11
REMARK    6  A    between atoms: C_10  and  N_54
REMARK    7  A    between atoms: N_13  and  C_14
REMARK    8  A    between atoms: C_18  and  C_20
REMARK    9  A    between atoms: N_22  and  C_23
REMARK   10  A    between atoms: C_27  and  C_29
REMARK                            x       y       z     vdW  Elec       q    Type
REMARK                         _______ _______ _______ _____ _____    ______ ____
ROOT
ATOM      1  C   UNL     1       2.230   9.479   0.480  0.00  0.00    +0.034 A 
ATOM      2  C   UNL     1       1.007  10.139   0.499  0.00  0.00    +0.023 A 
ATOM      3  C   UNL     1      -0.172   9.422   0.413  0.00  0.00    +0.003 A 
ATOM      4  C   UNL     1      -0.142   8.046   0.309  0.00  0.00    +0.013 A 
ATOM      5  C   UNL     1       1.081   7.374   0.290  0.00  0.00    +0.039 A 
ATOM      6  C   UNL     1       2.271   8.097   0.382  0.00  0.00    +0.036 A 
ENDROOT
BRANCH   1   9
ATOM      7  C   UNL     1       4.513   9.801  -0.108  0.00  0.00    +0.201 C 
ATOM      8  O   UNL     1       4.490   8.756  -0.723  0.00  0.00    -0.278 OA
ATOM      9  N   UNL     1       3.421  10.210   0.567  0.00  0.00    -0.287 N 
ATOM     10  H   UNL     1       3.459  11.010   1.114  0.00  0.00    +0.155 HD
BRANCH   7  11
ATOM     11  C   UNL     1       5.763  10.643  -0.100  0.00  0.00    +0.019 C 
BRANCH  11  13
ATOM     12  C   UNL     1       6.421   9.939  -2.321  0.00  0.00    -0.095 C 
ATOM     13  N   UNL     1       6.804   9.958  -0.894  0.00  0.00    +0.388 N 
ATOM     14  H   UNL     1       6.896   8.991  -0.560  0.00  0.00    -0.081 HD
BRANCH  13  16
ATOM     15  C   UNL     1       9.128  10.013  -1.668  0.00  0.00    -0.008 C 
ATOM     16  C   UNL     1       8.101  10.647  -0.728  0.00  0.00    -0.034 C 
BRANCH  16  17
ATOM     17  C   UNL     1       8.559  10.485   0.699  0.00  0.00    -0.024 A 
ATOM     18  C   UNL     1       9.090  11.411   1.535  0.00  0.00    +0.009 A 
ATOM     19  C   UNL     1       9.441  11.032   2.817  0.00  0.00    +0.008 A 
ATOM     20  C   UNL     1       9.245   9.747   3.200  0.00  0.00    +0.045 A 
ATOM     21  S   UNL     1       8.537   9.027   1.728  0.00  0.00    -0.103 S 
ENDBRANCH  16  17
ENDBRANCH  13  16
ENDBRANCH  11  13
ENDBRANCH   7  11
ENDBRANCH   1   9
BRANCH   5  22
ATOM     22  C   UNL     1       1.116   5.900   0.179  0.00  0.00    +0.248 C 
ATOM     23  O   UNL     1       2.182   5.317   0.162  0.00  0.00    -0.270 OA
ATOM     24  N   UNL     1      -0.035   5.203   0.096  0.00  0.00    -0.281 N 
ATOM     25  H   UNL     1      -0.881   5.672   0.024  0.00  0.00    +0.155 HD
BRANCH  24  26
ATOM     26  C   UNL     1      -0.008   3.805   0.114  0.00  0.00    +0.034 A 
ATOM     27  C   UNL     1      -1.031   3.082  -0.487  0.00  0.00    +0.023 A 
ATOM     28  C   UNL     1      -1.002   1.702  -0.467  0.00  0.00    +0.002 A 
ATOM     29  C   UNL     1       0.044   1.039   0.150  0.00  0.00    +0.012 A 
ATOM     30  C   UNL     1       1.060   1.756   0.754  0.00  0.00    +0.057 A 
ATOM     31  C   UNL     1       1.040   3.137   0.733  0.00  0.00    +0.035 A 
BRANCH  30  32
ATOM     32  C   UNL     1       2.194   1.030   1.430  0.00  0.00    +0.417 C 
ATOM     33  F   UNL     1       1.998  -0.350   1.316  0.00  0.00    -0.166 F 
ATOM     34  F   UNL     1       3.403   1.381   0.820  0.00  0.00    -0.166 F 
ATOM     35  F   UNL     1       2.235   1.385   2.783  0.00  0.00    -0.166 F 
ENDBRANCH  30  32
ENDBRANCH  24  26
ENDBRANCH   5  22
TORSDOF 8
