REMARK  Name = ZINC40266661
REMARK  5 active torsions:
REMARK  status: ('A' for Active; 'I' for Inactive)
REMARK    1  A    between atoms: C_1  and  O_2
REMARK    2  A    between atoms: O_2  and  C_3
REMARK    3  A    between atoms: C_6  and  C_10
REMARK    4  A    between atoms: C_8  and  O_9
REMARK    5  A    between atoms: N_20  and  C_21
REMARK                            x       y       z     vdW  Elec       q    Type
REMARK                         _______ _______ _______ _____ _____    ______ ____
ROOT
ATOM      1  C   UNL     1       2.590  -2.548   4.315  0.00  0.00    +0.080 C 
ATOM      2  C   UNL     1       4.054  -2.103   4.371  0.00  0.00    +0.110 C 
ATOM      3  C   UNL     1       4.185  -0.715   4.930  0.00  0.00    +0.219 C 
ATOM      4  O   UNL     1       5.035   0.022   4.477  0.00  0.00    -0.275 OA
ATOM      5  N   UNL     1       3.386  -0.262   5.921  0.00  0.00    -0.270 N 
ATOM      6  C   UNL     1       2.329  -1.074   6.334  0.00  0.00    +0.133 A 
ATOM      7  C   UNL     1       1.922  -2.155   5.609  0.00  0.00    +0.089 A 
ATOM      8  N   UNL     1       0.902  -2.723   6.249  0.00  0.00    -0.238 NA
ATOM      9  C   UNL     1       0.649  -2.051   7.343  0.00  0.00    +0.205 A 
ATOM     10  N   UNL     1       1.529  -1.006   7.431  0.00  0.00    -0.287 N 
ATOM     11  H   UNL     1       3.543   0.602   6.333  0.00  0.00    +0.156 HD
ENDROOT
BRANCH  10  12
ATOM     12  C   UNL     1       1.593  -0.050   8.454  0.00  0.00    +0.050 A 
ATOM     13  C   UNL     1       2.808   0.236   9.063  0.00  0.00    +0.026 A 
ATOM     14  C   UNL     1       2.868   1.178  10.072  0.00  0.00    +0.003 A 
ATOM     15  C   UNL     1       1.721   1.836  10.475  0.00  0.00    +0.015 A 
ATOM     16  C   UNL     1       0.509   1.553   9.871  0.00  0.00    +0.020 A 
ATOM     17  C   UNL     1       0.444   0.616   8.857  0.00  0.00    +0.041 A 
ATOM     18 BR   UNL     1      -1.058   2.454  10.426  0.00  0.00    -0.050 Br
ENDBRANCH  10  12
BRANCH   1  22
ATOM     19  C   UNL     1       0.626  -0.619   1.042  0.00  0.00    +0.161 A 
ATOM     20  C   UNL     1       1.202   0.137   2.051  0.00  0.00    +0.049 A 
ATOM     21  C   UNL     1       1.836  -0.490   3.108  0.00  0.00    +0.008 A 
ATOM     22  C   UNL     1       1.897  -1.870   3.161  0.00  0.00    -0.034 A 
ATOM     23  C   UNL     1       1.325  -2.630   2.158  0.00  0.00    +0.053 A 
ATOM     24  C   UNL     1       0.683  -2.008   1.099  0.00  0.00    +0.159 A 
BRANCH  19  26
ATOM     25  C   UNL     1      -0.017   1.425   0.010  0.00  0.00    +0.277 C 
ATOM     26  O   UNL     1       0.002  -0.004   0.002  0.00  0.00    -0.491 OA
ENDBRANCH  19  26
BRANCH  24  27
ATOM     27  O   UNL     1       0.115  -2.754   0.114  0.00  0.00    -0.503 OA
ATOM     28  H   UNL     1       0.711  -2.957  -0.620  0.00  0.00    +0.292 HD
ENDBRANCH  24  27
ENDBRANCH   1  22
TORSDOF 4
