REMARK  Name = ZINC03553172
REMARK  15 active torsions:
REMARK  status: ('A' for Active; 'I' for Inactive)
REMARK    1  A    between atoms: C_1  and  C_2
REMARK    2  A    between atoms: C_2  and  C_3
REMARK    3  A    between atoms: C_3  and  C_5
REMARK    4  A    between atoms: C_3  and  N_69
REMARK    5  A    between atoms: C_8  and  S_17
REMARK    6  A    between atoms: N_9  and  C_10
REMARK    7  A    between atoms: C_10  and  C_11
REMARK    8  A    between atoms: S_17  and  C_18
REMARK    9  A    between atoms: C_18  and  C_19
REMARK   10  A    between atoms: C_27  and  C_31
REMARK   11  A    between atoms: C_28  and  C_30
REMARK   12  A    between atoms: C_31  and  C_32
REMARK   13  A    between atoms: C_31  and  C_33
REMARK   14  A    between atoms: C_34  and  N_69
REMARK   15  A    between atoms: C_35  and  N_69
REMARK                            x       y       z     vdW  Elec       q    Type
REMARK                         _______ _______ _______ _____ _____    ______ ____
ROOT
ATOM      1  C   UNL     1       0.085   2.484  -0.152  0.00  0.00    +0.121 A 
ATOM      2  N   UNL     1      -0.426   1.314  -0.412  0.00  0.00    -0.135 NA
ATOM      3  N   UNL     1       0.511   0.450  -0.580  0.00  0.00    -0.123 NA
ATOM      4  C   UNL     1       1.681   1.028  -0.435  0.00  0.00    +0.192 A 
ATOM      5  N   UNL     1       1.446   2.344  -0.157  0.00  0.00    -0.303 N 
ENDROOT
BRANCH   1   6
ATOM      6  C   UNL     1      -0.681   3.756   0.101  0.00  0.00    +0.000 C 
BRANCH   6   9
ATOM      7  C   UNL     1      -1.199   3.951  -2.256  0.00  0.00    -0.096 C 
ATOM      8  C   UNL     1      -2.726   2.799  -0.771  0.00  0.00    -0.096 C 
ATOM      9  N   UNL     1      -1.765   3.915  -0.891  0.00  0.00    +0.383 N 
ATOM     10  H   UNL     1      -2.256   4.799  -0.710  0.00  0.00    -0.082 HD
ENDBRANCH   6   9
BRANCH   6  12
ATOM     11  C   UNL     1      -2.014   5.033   1.785  0.00  0.00    +0.002 C 
ATOM     12  C   UNL     1      -1.292   3.714   1.503  0.00  0.00    -0.011 C 
ENDBRANCH   6  12
ENDBRANCH   1   6
BRANCH   5  13
ATOM     13  C   UNL     1       2.443   3.389   0.086  0.00  0.00    +0.160 C 
BRANCH  13  14
ATOM     14  C   UNL     1       2.760   3.449   1.558  0.00  0.00    -0.028 A 
ATOM     15  C   UNL     1       2.032   4.282   2.388  0.00  0.00    +0.005 A 
ATOM     16  C   UNL     1       2.319   4.334   3.739  0.00  0.00    +0.000 A 
ATOM     17  C   UNL     1       3.340   3.562   4.259  0.00  0.00    +0.000 A 
ATOM     18  C   UNL     1       4.072   2.733   3.428  0.00  0.00    +0.000 A 
ATOM     19  C   UNL     1       3.781   2.677   2.078  0.00  0.00    +0.005 A 
ENDBRANCH  13  14
ENDBRANCH   5  13
BRANCH   4  20
ATOM     20  S   UNL     1       3.257   0.251  -0.571  0.00  0.00    -0.081 S 
BRANCH  20  21
ATOM     21  C   UNL     1       2.741  -1.443  -0.943  0.00  0.00    +0.113 C 
BRANCH  21  22
ATOM     22  C   UNL     1       3.960  -2.315  -1.107  0.00  0.00    -0.020 A 
ATOM     23  C   UNL     1       4.502  -2.961  -0.044  0.00  0.00    +0.097 A 
ATOM     24  C   UNL     1       5.644  -3.772  -0.225  0.00  0.00    +0.338 A 
ATOM     25  O   UNL     1       6.122  -4.346   0.737  0.00  0.00    -0.245 OA
ATOM     26  O   UNL     1       6.217  -3.925  -1.429  0.00  0.00    -0.422 OA
ATOM     27  C   UNL     1       5.727  -3.309  -2.526  0.00  0.00    +0.140 A 
ATOM     28  C   UNL     1       4.588  -2.492  -2.420  0.00  0.00    +0.022 A 
ATOM     29  C   UNL     1       4.075  -1.858  -3.556  0.00  0.00    +0.016 A 
ATOM     30  C   UNL     1       4.688  -2.045  -4.774  0.00  0.00    -0.041 A 
ATOM     31  C   UNL     1       5.808  -2.857  -4.878  0.00  0.00    -0.044 A 
ATOM     32  C   UNL     1       6.332  -3.479  -3.764  0.00  0.00    +0.050 A 
ATOM     33  C   UNL     1       6.467  -3.050  -6.220  0.00  0.00    +0.044 C 
BRANCH  30  34
ATOM     34  C   UNL     1       4.139  -1.364  -6.002  0.00  0.00    +0.013 C 
ATOM     35  C   UNL     1       2.743  -1.910  -6.306  0.00  0.00    +0.012 C 
ATOM     36  C   UNL     1       4.056   0.143  -5.754  0.00  0.00    +0.012 C 
ENDBRANCH  30  34
ENDBRANCH  21  22
ENDBRANCH  20  21
ENDBRANCH   4  20
TORSDOF 9
