REMARK  Name = ZINC48255538
REMARK  10 active torsions:
REMARK  status: ('A' for Active; 'I' for Inactive)
REMARK    1  A    between atoms: C_1  and  C_2
REMARK    2  A    between atoms: C_5  and  N_25
REMARK    3  A    between atoms: C_7  and  N_8
REMARK    4  A    between atoms: N_11  and  C_12
REMARK    5  A    between atoms: C_12  and  C_13
REMARK    6  A    between atoms: C_13  and  C_15
REMARK    7  A    between atoms: C_13  and  N_20
REMARK    8  A    between atoms: C_26  and  C_28
REMARK    9  A    between atoms: C_28  and  C_29
REMARK   10  A    between atoms: C_28  and  C_30
REMARK                            x       y       z     vdW  Elec       q    Type
REMARK                         _______ _______ _______ _____ _____    ______ ____
ROOT
ATOM      1  N   UNL     1       1.143  -1.829   2.473  0.00  0.00    -0.269 N 
ATOM      2  C   UNL     1       1.741  -2.943   2.940  0.00  0.00    +0.304 C 
ATOM      3  O   UNL     1       1.930  -3.888   2.199  0.00  0.00    -0.253 OA
ATOM      4  N   UNL     1       2.129  -3.009   4.229  0.00  0.00    -0.300 N 
ATOM      5  H   UNL     1       1.049  -1.052   3.046  0.00  0.00    +0.156 HD
ATOM      6  H   UNL     1       1.979  -2.255   4.820  0.00  0.00    +0.150 HD
ENDROOT
BRANCH   1  13
ATOM      7  C   UNL     1      -1.088  -0.158   1.912  0.00  0.00    +0.045 C 
ATOM      8  C   UNL     1      -0.430  -0.991   0.843  0.00  0.00    -0.029 A 
ATOM      9  C   UNL     1      -0.906  -0.951  -0.454  0.00  0.00    +0.007 A 
ATOM     10  C   UNL     1      -0.305  -1.713  -1.437  0.00  0.00    +0.024 A 
ATOM     11  C   UNL     1       0.779  -2.523  -1.125  0.00  0.00    +0.035 A 
ATOM     12  C   UNL     1       1.260  -2.566   0.176  0.00  0.00    +0.047 A 
ATOM     13  C   UNL     1       0.658  -1.794   1.160  0.00  0.00    +0.039 A 
BRANCH  11  14
ATOM     14  N   UNL     1       1.387  -3.296  -2.121  0.00  0.00    -0.285 N 
ATOM     15  C   UNL     1       1.455  -2.833  -3.385  0.00  0.00    +0.220 C 
ATOM     16  O   UNL     1       1.072  -1.711  -3.641  0.00  0.00    -0.275 OA
ATOM     17  H   UNL     1       1.759  -4.164  -1.901  0.00  0.00    +0.155 HD
BRANCH  15  18
ATOM     18  C   UNL     1       2.006  -3.710  -4.479  0.00  0.00    +0.069 C 
ATOM     19  C   UNL     1       1.156  -4.976  -4.595  0.00  0.00    +0.017 C 
ATOM     20  C   UNL     1       1.972  -2.950  -5.807  0.00  0.00    +0.017 C 
ENDBRANCH  15  18
ENDBRANCH  11  14
ENDBRANCH   1  13
BRANCH   4  21
ATOM     21  C   UNL     1       2.779  -4.219   4.737  0.00  0.00    +0.095 C 
BRANCH  21  22
ATOM     22  C   UNL     1       3.233  -3.987   6.180  0.00  0.00    -0.013 C 
BRANCH  22  23
ATOM     23  N   UNL     1       3.793  -5.232   6.723  0.00  0.00    +0.386 N 
ATOM     24  C   UNL     1       4.156  -5.049   8.152  0.00  0.00    -0.078 C 
ATOM     25  C   UNL     1       4.175  -6.498   8.701  0.00  0.00    -0.020 C 
ATOM     26  C   UNL     1       2.995  -7.165   7.957  0.00  0.00    -0.020 C 
ATOM     27  C   UNL     1       2.774  -6.303   6.700  0.00  0.00    -0.078 C 
ATOM     28  H   UNL     1       4.603  -5.511   6.191  0.00  0.00    -0.081 HD
ENDBRANCH  22  23
BRANCH  22  29
ATOM     29  C   UNL     1       4.284  -2.908   6.209  0.00  0.00    -0.022 A 
ATOM     30  C   UNL     1       4.154  -1.598   6.529  0.00  0.00    +0.009 A 
ATOM     31  C   UNL     1       5.269  -0.783   6.487  0.00  0.00    +0.008 A 
ATOM     32  C   UNL     1       6.461  -1.319   6.126  0.00  0.00    +0.045 A 
ATOM     33  S   UNL     1       6.026  -3.026   5.838  0.00  0.00    -0.103 S 
ENDBRANCH  22  29
ENDBRANCH  21  22
ENDBRANCH   4  21
TORSDOF 7
