REMARK  Name = ZINC39469403
REMARK  6 active torsions:
REMARK  status: ('A' for Active; 'I' for Inactive)
REMARK    1  A    between atoms: C_1  and  C_2
REMARK    2  A    between atoms: C_2  and  O_3
REMARK    3  A    between atoms: O_3  and  P_4
REMARK    4  A    between atoms: C_12  and  O_24
REMARK    5  A    between atoms: C_13  and  S_22
REMARK    6  A    between atoms: S_22  and  C_23
REMARK                            x       y       z     vdW  Elec       q    Type
REMARK                         _______ _______ _______ _____ _____    ______ ____
ROOT
ATOM      1  P   UNL     1       0.906  -2.042   1.476  0.00  0.00    +0.421 P 
ATOM      2  O   UNL     1      -0.340  -2.793   1.205  0.00  0.00    -0.239 OA
ATOM      3  N   UNL     1       2.149  -2.644   0.572  0.00  0.00    -0.156 NA
ATOM      4  N   UNL     1       2.755  -3.805   1.008  0.00  0.00    -0.228 NA
ATOM      5  C   UNL     1       3.867  -4.090   0.085  0.00  0.00    +0.111 C 
ATOM      6  C   UNL     1       4.574  -5.384   0.462  0.00  0.00    +0.038 C 
ATOM      7  C   UNL     1       3.628  -6.551   0.375  0.00  0.00    +0.025 C 
ATOM      8  C   UNL     1       3.896  -7.666   1.058  0.00  0.00    +0.126 C 
ATOM      9  C   UNL     1       5.126  -7.735   1.879  0.00  0.00    +0.045 C 
ATOM     10  C   UNL     1       5.715  -6.605   2.284  0.00  0.00    -0.005 C 
ATOM     11  C   UNL     1       5.102  -5.281   1.896  0.00  0.00    +0.023 C 
ATOM     12  C   UNL     1       3.929  -4.973   2.827  0.00  0.00    +0.031 C 
ATOM     13  C   UNL     1       3.220  -3.685   2.393  0.00  0.00    +0.100 C 
ATOM     14  C   UNL     1       2.051  -3.465   3.362  0.00  0.00    +0.191 C 
ATOM     15  O   UNL     1       1.364  -2.248   3.023  0.00  0.00    -0.294 OA
ATOM     16  H   UNL     1       2.443  -2.198  -0.237  0.00  0.00    +0.153 HD
ENDROOT
BRANCH   9  17
ATOM     17  S   UNL     1       5.809  -9.298   2.321  0.00  0.00    -0.125 S 
ATOM     18  C   UNL     1       7.274  -8.874   3.304  0.00  0.00    +0.090 C 
ENDBRANCH   9  17
BRANCH   8  19
ATOM     19  O   UNL     1       3.050  -8.727   1.000  0.00  0.00    -0.506 OA
ATOM     20  H   UNL     1       3.332  -9.485   1.529  0.00  0.00    +0.292 HD
ENDBRANCH   8  19
BRANCH   1  21
ATOM     21  O   UNL     1       0.693  -0.477   1.160  0.00  0.00    -0.296 OA
BRANCH  21  23
ATOM     22  C   UNL     1      -0.019   1.526   0.010  0.00  0.00    +0.035 C 
ATOM     23  C   UNL     1       0.002  -0.004   0.002  0.00  0.00    +0.168 C 
ENDBRANCH  21  23
ENDBRANCH   1  21
TORSDOF 4
