REMARK  Name = ZINC65272174
REMARK  4 active torsions:
REMARK  status: ('A' for Active; 'I' for Inactive)
REMARK    1  A    between atoms: C_1  and  N_2
REMARK    2  A    between atoms: C_5  and  N_8
REMARK    3  A    between atoms: C_9  and  C_11
REMARK    4  A    between atoms: C_22  and  C_26
REMARK                            x       y       z     vdW  Elec       q    Type
REMARK                         _______ _______ _______ _____ _____    ______ ____
ROOT
ATOM      1  C   UNL     1       2.031  -6.286   0.609  0.00  0.00    +0.078 C 
ATOM      2  C   UNL     1       0.698  -6.701   1.236  0.00  0.00    +0.032 C 
ATOM      3  C   UNL     1       0.573  -8.227   1.197  0.00  0.00    +0.108 C 
ATOM      4  N   UNL     1       1.754  -8.815   1.843  0.00  0.00    -0.310 N 
ATOM      5  C   UNL     1       3.089  -8.414   1.377  0.00  0.00    +0.108 C 
ATOM      6  C   UNL     1       3.185  -6.886   1.415  0.00  0.00    +0.032 C 
ATOM      7  C   UNL     1       1.613  -9.727   2.870  0.00  0.00    +0.163 A 
ATOM      8  N   UNL     1       2.547 -10.343   3.559  0.00  0.00    -0.223 NA
ATOM      9  C   UNL     1       2.259 -11.218   4.545  0.00  0.00    +0.099 A 
ATOM     10  C   UNL     1       3.159 -11.947   5.361  0.00  0.00    +0.032 A 
ATOM     11  C   UNL     1       2.666 -12.790   6.312  0.00  0.00    +0.030 A 
ATOM     12  C   UNL     1       1.288 -12.939   6.485  0.00  0.00    +0.073 A 
ATOM     13  N   UNL     1       0.445 -12.253   5.718  0.00  0.00    -0.238 NA
ATOM     14  C   UNL     1       0.884 -11.436   4.796  0.00  0.00    +0.130 A 
ATOM     15  S   UNL     1       0.114 -10.363   3.605  0.00  0.00    -0.033 S 
ENDROOT
BRANCH  12  16
ATOM     16  C   UNL     1       0.766 -13.859   7.522  0.00  0.00    +0.007 A 
ATOM     17  C   UNL     1      -0.600 -14.102   7.636  0.00  0.00    +0.017 A 
ATOM     18  C   UNL     1      -1.038 -14.949   8.595  0.00  0.00    +0.046 A 
ATOM     19  S   UNL     1       0.482 -15.445   9.386  0.00  0.00    -0.104 S 
ATOM     20  C   UNL     1       1.615 -14.495   8.386  0.00  0.00    +0.055 A 
ENDBRANCH  12  16
BRANCH   1  22
ATOM     21  N   UNL     1       1.228  -4.036  -0.035  0.00  0.00    -0.312 N 
ATOM     22  C   UNL     1       2.142  -4.783   0.615  0.00  0.00    +0.216 C 
ATOM     23  O   UNL     1       3.055  -4.245   1.206  0.00  0.00    -0.276 OA
ATOM     24  H   UNL     1       0.498  -4.467  -0.508  0.00  0.00    +0.149 HD
BRANCH  21  29
ATOM     25  C   UNL     1      -0.018   1.465   0.010  0.00  0.00    -0.096 C 
ATOM     26  N   UNL     1       0.002  -0.004   0.002  0.00  0.00    +0.378 N 
ATOM     27  C   UNL     1       0.681  -0.476  -1.210  0.00  0.00    -0.077 C 
ATOM     28  C   UNL     1       0.634  -2.005  -1.264  0.00  0.00    +0.003 C 
ATOM     29  C   UNL     1       1.336  -2.575  -0.029  0.00  0.00    +0.069 C 
ATOM     30  C   UNL     1       0.666  -2.018   1.230  0.00  0.00    +0.003 C 
ATOM     31  C   UNL     1       0.712  -0.489   1.192  0.00  0.00    -0.077 C 
ATOM     32  H   UNL     1      -0.945  -0.352   0.012  0.00  0.00    -0.082 HD
ENDBRANCH  21  29
ENDBRANCH   1  22
TORSDOF 3
