REMARK  Name = ZINC59170701
REMARK  8 active torsions:
REMARK  status: ('A' for Active; 'I' for Inactive)
REMARK    1  A    between atoms: C_1  and  C_2
REMARK    2  A    between atoms: C_5  and  S_8
REMARK    3  A    between atoms: S_8  and  N_11
REMARK    4  A    between atoms: N_11  and  N_12
REMARK    5  A    between atoms: C_14  and  C_25
REMARK    6  A    between atoms: C_20  and  O_23
REMARK    7  A    between atoms: O_23  and  C_24
REMARK    8  A    between atoms: N_27  and  C_28
REMARK                            x       y       z     vdW  Elec       q    Type
REMARK                         _______ _______ _______ _____ _____    ______ ____
ROOT
ATOM      1  N   UNL     1       2.930  -5.417   1.387  0.00  0.00    -0.260 N 
ATOM      2  C   UNL     1       4.194  -5.552   1.100  0.00  0.00    +0.225 A 
ATOM      3  C   UNL     1       4.629  -6.008  -0.241  0.00  0.00    +0.099 A 
ATOM      4  C   UNL     1       5.875  -5.613  -0.665  0.00  0.00    +0.030 A 
ATOM      5  C   UNL     1       6.669  -4.774   0.241  0.00  0.00    +0.022 A 
ATOM      6  C   UNL     1       7.816  -4.117  -0.216  0.00  0.00    +0.012 A 
ATOM      7  C   UNL     1       8.545  -3.332   0.650  0.00  0.00    +0.004 A 
ATOM      8  C   UNL     1       8.149  -3.189   1.971  0.00  0.00    +0.049 A 
ATOM      9  C   UNL     1       7.016  -3.835   2.439  0.00  0.00    +0.163 A 
ATOM     10  C   UNL     1       6.269  -4.633   1.580  0.00  0.00    +0.179 A 
ATOM     11  O   UNL     1       5.159  -5.272   2.023  0.00  0.00    -0.434 OA
ATOM     12  H   UNL     1       2.653  -5.285   2.307  0.00  0.00    +0.189 HD
ENDROOT
BRANCH   3  13
ATOM     13  C   UNL     1       3.763  -6.850  -1.083  0.00  0.00    +0.253 C 
ATOM     14  O   UNL     1       3.546  -8.005  -0.768  0.00  0.00    -0.270 OA
ATOM     15  N   UNL     1       3.211  -6.341  -2.201  0.00  0.00    -0.279 N 
ATOM     16  H   UNL     1       3.329  -5.403  -2.417  0.00  0.00    +0.155 HD
BRANCH  15  17
ATOM     17  C   UNL     1       2.467  -7.167  -3.052  0.00  0.00    +0.069 A 
ATOM     18  C   UNL     1       1.834  -8.296  -2.549  0.00  0.00    +0.026 A 
ATOM     19  C   UNL     1       1.101  -9.108  -3.391  0.00  0.00    +0.002 A 
ATOM     20  C   UNL     1       0.995  -8.800  -4.735  0.00  0.00    +0.003 A 
ATOM     21  C   UNL     1       1.623  -7.677  -5.242  0.00  0.00    +0.040 A 
ATOM     22  C   UNL     1       2.354  -6.855  -4.403  0.00  0.00    +0.144 A 
ATOM     23  F   UNL     1       2.963  -5.755  -4.897  0.00  0.00    -0.204 F 
ENDBRANCH  15  17
ENDBRANCH   3  13
BRANCH   1  24
ATOM     24  N   UNL     1       1.972  -5.462   0.366  0.00  0.00    -0.157 N 
ATOM     25  H   UNL     1       2.252  -5.458  -0.563  0.00  0.00    +0.194 HD
BRANCH  24  26
ATOM     26  S   UNL     1       0.361  -5.523   0.745  0.00  0.00    +0.085 S 
ATOM     27  O   UNL     1       0.192  -6.624   1.627  0.00  0.00    -0.149 OA
ATOM     28  O   UNL     1      -0.349  -5.414  -0.481  0.00  0.00    -0.149 OA
BRANCH  26  33
ATOM     29  C   UNL     1      -0.917  -0.555   3.922  0.00  0.00    +0.044 C 
ATOM     30  C   UNL     1      -0.598  -1.796   3.128  0.00  0.00    -0.050 A 
ATOM     31  C   UNL     1      -0.711  -1.784   1.751  0.00  0.00    +0.005 A 
ATOM     32  C   UNL     1      -0.418  -2.922   1.023  0.00  0.00    +0.029 A 
ATOM     33  C   UNL     1      -0.011  -4.072   1.672  0.00  0.00    +0.110 A 
ATOM     34  C   UNL     1       0.103  -4.084   3.050  0.00  0.00    +0.029 A 
ATOM     35  C   UNL     1      -0.186  -2.945   3.778  0.00  0.00    +0.005 A 
ENDBRANCH  26  33
ENDBRANCH  24  26
ENDBRANCH   1  24
BRANCH   9  36
ATOM     36  O   UNL     1       6.635  -3.689   3.737  0.00  0.00    -0.491 OA
ATOM     37  C   UNL     1       7.450  -2.855   4.562  0.00  0.00    +0.277 C 
ENDBRANCH   9  36
TORSDOF 6
