REMARK  Name = ZINC36564552
REMARK  24 active torsions:
REMARK  status: ('A' for Active; 'I' for Inactive)
REMARK    1  A    between atoms: C_1  and  C_2
REMARK    2  A    between atoms: C_2  and  C_3
REMARK    3  A    between atoms: C_3  and  C_4
REMARK    4  A    between atoms: C_4  and  C_5
REMARK    5  A    between atoms: C_5  and  C_7
REMARK    6  A    between atoms: C_5  and  C_9
REMARK    7  A    between atoms: C_7  and  C_8
REMARK    8  A    between atoms: N_11  and  C_12
REMARK    9  A    between atoms: N_11  and  C_15
REMARK   10  A    between atoms: C_12  and  C_13
REMARK   11  A    between atoms: C_13  and  C_14
REMARK   12  A    between atoms: C_15  and  C_17
REMARK   13  A    between atoms: C_15  and  C_22
REMARK   14  A    between atoms: C_18  and  C_19
REMARK   15  A    between atoms: C_19  and  C_20
REMARK   16  A    between atoms: C_20  and  C_21
REMARK   17  A    between atoms: N_24  and  C_25
REMARK   18  A    between atoms: C_25  and  C_26
REMARK   19  A    between atoms: C_25  and  C_27
REMARK   20  A    between atoms: C_25  and  C_28
REMARK   21  A    between atoms: C_28  and  C_29
REMARK   22  A    between atoms: C_29  and  C_30
REMARK   23  A    between atoms: C_29  and  C_31
REMARK   24  A    between atoms: C_29  and  C_32
REMARK                            x       y       z     vdW  Elec       q    Type
REMARK                         _______ _______ _______ _____ _____    ______ ____
ROOT
ATOM      1  C   UNL     1       1.620  -7.323  -4.802  0.00  0.00    +0.185 C 
ENDROOT
BRANCH   1   2
ATOM      2  C   UNL     1       0.791  -6.451  -5.710  0.00  0.00    +0.238 C 
ATOM      3  O   UNL     1       0.789  -5.248  -5.558  0.00  0.00    -0.273 OA
ATOM      4  N   UNL     1       0.052  -7.008  -6.689  0.00  0.00    -0.308 N 
ATOM      5  H   UNL     1       0.054  -7.971  -6.810  0.00  0.00    +0.149 HD
BRANCH   4   6
ATOM      6  C   UNL     1      -0.753  -6.161  -7.572  0.00  0.00    +0.030 C 
ATOM      7  C   UNL     1      -1.830  -5.449  -6.751  0.00  0.00    +0.031 C 
ATOM      8  C   UNL     1       0.148  -5.121  -8.242  0.00  0.00    +0.031 C 
BRANCH   6   9
ATOM      9  C   UNL     1      -1.418  -7.027  -8.644  0.00  0.00    +0.031 C 
BRANCH   9  10
ATOM     10  C   UNL     1      -0.345  -7.608  -9.567  0.00  0.00    -0.036 C 
ATOM     11  C   UNL     1       0.826  -8.123  -8.728  0.00  0.00    +0.010 C 
ATOM     12  C   UNL     1      -0.940  -8.762 -10.376  0.00  0.00    +0.010 C 
ATOM     13  C   UNL     1       0.151  -6.519 -10.521  0.00  0.00    +0.010 C 
ENDBRANCH   9  10
ENDBRANCH   6   9
ENDBRANCH   4   6
ENDBRANCH   1   2
BRANCH   1  16
ATOM     14  C   UNL     1       2.176  -6.714  -2.509  0.00  0.00    +0.219 C 
ATOM     15  O   UNL     1       2.831  -6.085  -1.706  0.00  0.00    -0.275 OA
ATOM     16  N   UNL     1       2.324  -6.485  -3.829  0.00  0.00    -0.286 N 
BRANCH  14  17
ATOM     17  C   UNL     1       1.195  -7.754  -2.031  0.00  0.00    +0.075 C 
BRANCH  17  18
ATOM     18  C   UNL     1       0.615  -7.325  -0.681  0.00  0.00    +0.009 C 
ATOM     19  C   UNL     1      -0.226  -6.061  -0.866  0.00  0.00    +0.004 C 
ENDBRANCH  17  18
BRANCH  17  20
ATOM     20  C   UNL     1       1.911  -9.097  -1.875  0.00  0.00    +0.013 C 
BRANCH  20  21
ATOM     21  C   UNL     1       0.892 -10.179  -1.510  0.00  0.00    +0.000 C 
BRANCH  21  23
ATOM     22  C   UNL     1       0.589 -12.604  -0.990  0.00  0.00    +0.004 C 
ATOM     23  C   UNL     1       1.608 -11.522  -1.355  0.00  0.00    -0.003 C 
ENDBRANCH  21  23
ENDBRANCH  20  21
ENDBRANCH  17  20
ENDBRANCH  14  17
BRANCH  16  24
ATOM     24  C   UNL     1       3.190  -5.396  -4.290  0.00  0.00    +0.108 C 
BRANCH  24  25
ATOM     25  C   UNL     1       2.523  -4.052  -3.990  0.00  0.00    +0.016 C 
ATOM     26  C   UNL     1       3.360  -2.922  -4.593  0.00  0.00    +0.005 C 
ENDBRANCH  24  25
ENDBRANCH  16  24
ENDBRANCH   1  16
BRANCH   1  27
ATOM     27  C   UNL     1       2.623  -8.091  -5.622  0.00  0.00    +0.000 C 
ATOM     28  C   UNL     1       3.904  -7.968  -5.375  0.00  0.00    -0.029 C 
BRANCH  28  29
ATOM     29  C   UNL     1       4.913  -8.631  -6.276  0.00  0.00    +0.027 C 
BRANCH  29  30
ATOM     30  C   UNL     1       5.905  -7.585  -6.789  0.00  0.00    +0.001 C 
ATOM     31  C   UNL     1       6.929  -8.258  -7.704  0.00  0.00    +0.004 C 
ENDBRANCH  29  30
ENDBRANCH  28  29
ENDBRANCH   1  27
TORSDOF 15
