REMARK  Name = ZINC56353454
REMARK  8 active torsions:
REMARK  status: ('A' for Active; 'I' for Inactive)
REMARK    1  A    between atoms: C_1  and  C_2
REMARK    2  A    between atoms: C_2  and  C_3
REMARK    3  A    between atoms: C_2  and  N_11
REMARK    4  A    between atoms: C_12  and  C_14
REMARK    5  A    between atoms: C_14  and  C_15
REMARK    6  A    between atoms: C_14  and  N_16
REMARK    7  A    between atoms: C_17  and  C_19
REMARK    8  A    between atoms: C_23  and  N_25
REMARK                            x       y       z     vdW  Elec       q    Type
REMARK                         _______ _______ _______ _____ _____    ______ ____
ROOT
ATOM      1  C   UNL     1       0.712  -1.094  -3.598  0.00  0.00    +0.156 C 
ATOM      2  C   UNL     1       1.849  -0.133  -3.948  0.00  0.00    +0.038 C 
ENDROOT
BRANCH   1   4
ATOM      3  N   UNL     1       0.688  -0.476  -1.203  0.00  0.00    -0.307 N 
ATOM      4  C   UNL     1       0.006  -0.608  -2.358  0.00  0.00    +0.234 C 
ATOM      5  O   UNL     1      -1.175  -0.336  -2.400  0.00  0.00    -0.274 OA
ATOM      6  H   UNL     1       1.632  -0.695  -1.170  0.00  0.00    +0.149 HD
BRANCH   3   8
ATOM      7  C   UNL     1      -0.019   1.526   0.010  0.00  0.00    +0.033 C 
ATOM      8  C   UNL     1       0.002  -0.004   0.002  0.00  0.00    +0.100 C 
BRANCH   8   9
ATOM      9  C   UNL     1       0.731  -0.503   1.223  0.00  0.00    -0.026 A 
ATOM     10  C   UNL     1       2.113  -0.513   1.246  0.00  0.00    +0.008 A 
ATOM     11  C   UNL     1       2.783  -0.970   2.365  0.00  0.00    +0.040 A 
ATOM     12  C   UNL     1       2.070  -1.419   3.464  0.00  0.00    +0.142 A 
ATOM     13  C   UNL     1       0.685  -1.408   3.440  0.00  0.00    +0.076 A 
ATOM     14  C   UNL     1       0.017  -0.945   2.321  0.00  0.00    +0.028 A 
ATOM     15 CL   UNL     1      -0.212  -1.970   4.816  0.00  0.00    -0.081 Cl
ATOM     16  F   UNL     1       2.724  -1.866   4.558  0.00  0.00    -0.204 F 
ENDBRANCH   8   9
ENDBRANCH   3   8
ENDBRANCH   1   4
BRANCH   1  17
ATOM     17  N   UNL     1      -0.240  -1.150  -4.711  0.00  0.00    -0.300 N 
ATOM     18  C   UNL     1      -0.021  -1.989  -5.743  0.00  0.00    +0.245 C 
ATOM     19  O   UNL     1       0.966  -2.699  -5.751  0.00  0.00    -0.270 OA
ATOM     20  H   UNL     1      -1.027  -0.584  -4.705  0.00  0.00    +0.150 HD
BRANCH  18  21
ATOM     21  C   UNL     1      -0.981  -2.046  -6.866  0.00  0.00    +0.039 A 
ATOM     22  C   UNL     1      -2.112  -1.227  -6.863  0.00  0.00    +0.013 A 
ATOM     23  C   UNL     1      -3.003  -1.285  -7.914  0.00  0.00    +0.003 A 
ATOM     24  C   UNL     1      -2.779  -2.151  -8.970  0.00  0.00    +0.033 A 
ATOM     25  C   UNL     1      -1.660  -2.965  -8.978  0.00  0.00    +0.127 A 
ATOM     26  C   UNL     1      -0.757  -2.913  -7.936  0.00  0.00    +0.045 A 
BRANCH  25  27
ATOM     27  N   UNL     1      -1.428  -3.889 -10.111  0.00  0.00    +0.056 N 
ATOM     28  O   UNL     1      -2.216  -3.932 -11.027  0.00  0.00    -0.126 OA
ATOM     29  O   UNL     1      -0.451  -4.601 -10.120  0.00  0.00    -0.126 OA
ENDBRANCH  25  27
ENDBRANCH  18  21
ENDBRANCH   1  17
TORSDOF 6
