REMARK  Name = ZINC08997163
REMARK  3 active torsions:
REMARK  status: ('A' for Active; 'I' for Inactive)
REMARK    1  A    between atoms: C_2  and  N_9
REMARK    2  A    between atoms: N_21  and  C_22
REMARK    3  A    between atoms: C_22  and  C_24
REMARK                            x       y       z     vdW  Elec       q    Type
REMARK                         _______ _______ _______ _____ _____    ______ ____
ROOT
ATOM      1  N   UNL     1      -2.073   1.194   1.188  0.00  0.00    -0.276 N 
ATOM      2  C   UNL     1      -0.628   1.406   1.204  0.00  0.00    +0.116 C 
ATOM      3  C   UNL     1       0.246   0.581   2.161  0.00  0.00    +0.190 C 
ATOM      4  S   UNL     1       1.848   0.558   1.231  0.00  0.00    -0.028 S 
ATOM      5  O   UNL     1       2.234  -0.791   1.006  0.00  0.00    -0.174 OA
ATOM      6  O   UNL     1       2.759   1.454   1.854  0.00  0.00    -0.174 OA
ATOM      7  C   UNL     1       1.268   1.300  -0.372  0.00  0.00    +0.182 C 
ATOM      8  C   UNL     1      -0.188   0.953  -0.240  0.00  0.00    +0.097 C 
ATOM      9  S   UNL     1      -1.480   1.835  -1.132  0.00  0.00    -0.086 S 
ATOM     10  C   UNL     1      -2.660   1.892   0.127  0.00  0.00    +0.154 C 
ATOM     11  N   UNL     1      -3.856   2.468   0.096  0.00  0.00    -0.157 NA
ENDROOT
BRANCH   1  13
ATOM     12  C   UNL     1      -2.850   0.789   3.438  0.00  0.00    +0.043 A 
ATOM     13  C   UNL     1      -2.772   0.404   2.106  0.00  0.00    +0.039 A 
ATOM     14  C   UNL     1      -3.395  -0.764   1.687  0.00  0.00    +0.043 A 
ATOM     15  C   UNL     1      -4.080  -1.546   2.597  0.00  0.00    +0.044 A 
ATOM     16  C   UNL     1      -4.156  -1.160   3.924  0.00  0.00    +0.040 A 
ATOM     17  C   UNL     1      -3.542   0.007   4.344  0.00  0.00    +0.044 A 
ATOM     18 CL   UNL     1      -3.640   0.488   6.009  0.00  0.00    -0.083 Cl
ATOM     19 CL   UNL     1      -4.853  -3.010   2.075  0.00  0.00    -0.083 Cl
ENDBRANCH   1  13
BRANCH  11  20
ATOM     20  C   UNL     1      -4.264   3.096  -1.004  0.00  0.00    +0.267 C 
ATOM     21  O   UNL     1      -3.542   3.142  -1.980  0.00  0.00    -0.271 OA
BRANCH  20  22
ATOM     22  C   UNL     1      -5.621   3.751  -1.038  0.00  0.00    +0.206 C 
ATOM     23  C   UNL     1      -6.735   2.686  -0.917  0.00  0.00    +0.043 C 
ATOM     24  C   UNL     1      -7.850   3.202  -1.853  0.00  0.00    +0.031 C 
ATOM     25  C   UNL     1      -7.279   4.516  -2.429  0.00  0.00    +0.161 C 
ATOM     26  O   UNL     1      -5.846   4.375  -2.321  0.00  0.00    -0.367 OA
ENDBRANCH  20  22
ENDBRANCH  11  20
TORSDOF 3
