REMARK  Name = ZINC20153510
REMARK  7 active torsions:
REMARK  status: ('A' for Active; 'I' for Inactive)
REMARK    1  A    between atoms: C_1  and  C_2
REMARK    2  A    between atoms: C_2  and  N_3
REMARK    3  A    between atoms: C_11  and  C_35
REMARK    4  A    between atoms: C_14  and  N_19
REMARK    5  A    between atoms: N_19  and  C_20
REMARK    6  A    between atoms: C_20  and  N_22
REMARK    7  A    between atoms: N_25  and  C_28
REMARK                            x       y       z     vdW  Elec       q    Type
REMARK                         _______ _______ _______ _____ _____    ______ ____
ROOT
ATOM      1  N   UNL     1     -13.034  -2.357  -9.722  0.00  0.00    +0.382 N 
ATOM      2  C   UNL     1     -13.471  -2.288  -8.320  0.00  0.00    -0.060 C 
ATOM      3  C   UNL     1     -12.259  -2.023  -7.424  0.00  0.00    +0.088 C 
ATOM      4  N   UNL     1     -11.270  -3.094  -7.612  0.00  0.00    -0.319 N 
ATOM      5  C   UNL     1     -10.834  -3.163  -9.014  0.00  0.00    +0.088 C 
ATOM      6  C   UNL     1     -12.046  -3.428  -9.910  0.00  0.00    -0.060 C 
ATOM      7  C   UNL     1     -10.187  -2.925  -6.761  0.00  0.00    +0.122 A 
ATOM      8  C   UNL     1      -9.137  -3.854  -6.798  0.00  0.00    +0.047 A 
ATOM      9  C   UNL     1      -8.067  -3.701  -5.969  0.00  0.00    -0.038 A 
ATOM     10  C   UNL     1      -8.054  -2.598  -5.091  0.00  0.00    +0.005 A 
ATOM     11  C   UNL     1      -6.982  -2.382  -4.212  0.00  0.00    +0.033 A 
ATOM     12  C   UNL     1      -7.004  -1.292  -3.370  0.00  0.00    +0.033 A 
ATOM     13  C   UNL     1      -8.087  -0.406  -3.382  0.00  0.00    +0.025 A 
ATOM     14  C   UNL     1      -9.134  -0.593  -4.229  0.00  0.00    +0.030 A 
ATOM     15  C   UNL     1      -9.144  -1.694  -5.102  0.00  0.00    +0.073 A 
ATOM     16  N   UNL     1     -10.169  -1.897  -5.940  0.00  0.00    -0.232 NA
ATOM     17  C   UNL     1      -6.927  -4.687  -5.989  0.00  0.00    +0.044 C 
ATOM     18  H   UNL     1     -12.553  -1.402  -9.975  0.00  0.00    -0.082 HD
ENDROOT
BRANCH   1  20
ATOM     19  C   UNL     1     -13.725  -2.355 -12.071  0.00  0.00    -0.017 C 
ATOM     20  C   UNL     1     -14.181  -2.536 -10.622  0.00  0.00    -0.082 C 
ENDBRANCH   1  20
BRANCH  12  21
ATOM     21  N   UNL     1      -5.938  -1.072  -2.491  0.00  0.00    -0.297 N 
ATOM     22  H   UNL     1      -5.049  -1.719  -2.531  0.00  0.00    +0.154 HD
BRANCH  21  23
ATOM     23  C   UNL     1      -5.999  -0.068  -1.594  0.00  0.00    +0.137 C 
ATOM     24  S   UNL     1      -5.176   1.403  -1.897  0.00  0.00    -0.018 S 
BRANCH  23  25
ATOM     25  N   UNL     1      -6.709  -0.221  -0.459  0.00  0.00    -0.309 N 
ATOM     26  C   UNL     1      -6.702   0.819   0.582  0.00  0.00    +0.125 C 
ATOM     27  C   UNL     1      -6.369   0.161   1.925  0.00  0.00    +0.124 C 
ATOM     28  N   UNL     1      -7.298  -0.952   2.165  0.00  0.00    -0.327 N 
ATOM     29  C   UNL     1      -7.146  -2.001   1.148  0.00  0.00    +0.124 C 
ATOM     30  C   UNL     1      -7.511  -1.432  -0.227  0.00  0.00    +0.125 C 
BRANCH  28  31
ATOM     31  C   UNL     1      -7.133  -1.473   3.450  0.00  0.00    +0.031 A 
ATOM     32  C   UNL     1      -7.920  -2.537   3.877  0.00  0.00    +0.023 A 
ATOM     33  C   UNL     1      -7.751  -3.054   5.146  0.00  0.00    +0.003 A 
ATOM     34  C   UNL     1      -6.804  -2.511   5.995  0.00  0.00    +0.020 A 
ATOM     35  C   UNL     1      -6.023  -1.448   5.577  0.00  0.00    +0.043 A 
ATOM     36  C   UNL     1      -6.187  -0.927   4.307  0.00  0.00    +0.043 A 
ATOM     37 CL   UNL     1      -4.836  -0.771   6.646  0.00  0.00    -0.083 Cl
ENDBRANCH  28  31
ENDBRANCH  23  25
ENDBRANCH  21  23
ENDBRANCH  12  21
TORSDOF 5
