REMARK  Name = ZINC09719911
REMARK  9 active torsions:
REMARK  status: ('A' for Active; 'I' for Inactive)
REMARK    1  A    between atoms: C_1  and  C_2
REMARK    2  A    between atoms: N_5  and  C_8
REMARK    3  A    between atoms: C_11  and  N_29
REMARK    4  A    between atoms: C_13  and  C_14
REMARK    5  A    between atoms: C_14  and  O_16
REMARK    6  A    between atoms: O_16  and  C_17
REMARK    7  A    between atoms: C_17  and  C_18
REMARK    8  A    between atoms: N_20  and  C_21
REMARK    9  A    between atoms: C_22  and  C_26
REMARK                            x       y       z     vdW  Elec       q    Type
REMARK                         _______ _______ _______ _____ _____    ______ ____
ROOT
ATOM      1  C   UNL     1      -3.699   1.501  -0.211  0.00  0.00    +0.342 C 
ATOM      2  O   UNL     1      -3.884   2.702  -0.209  0.00  0.00    -0.245 OA
ENDROOT
BRANCH   1   8
ATOM      3  C   UNL     1      -6.131   1.080   0.149  0.00  0.00    +0.044 A 
ATOM      4  C   UNL     1      -7.201   0.200   0.258  0.00  0.00    +0.026 A 
ATOM      5  C   UNL     1      -6.992  -1.159   0.145  0.00  0.00    +0.034 A 
ATOM      6  C   UNL     1      -5.719  -1.657  -0.084  0.00  0.00    +0.127 A 
ATOM      7  C   UNL     1      -4.647  -0.801  -0.200  0.00  0.00    +0.049 A 
ATOM      8  C   UNL     1      -4.841   0.579  -0.088  0.00  0.00    +0.082 A 
BRANCH   3  13
ATOM      9  C   UNL     1      -7.879   6.399   0.799  0.00  0.00    +0.007 C 
ATOM     10  C   UNL     1      -7.844   4.872   0.704  0.00  0.00    -0.011 C 
ATOM     11  C   UNL     1      -6.881   4.316   1.756  0.00  0.00    +0.022 C 
ATOM     12  C   UNL     1      -6.804   2.794   1.617  0.00  0.00    +0.105 C 
ATOM     13  N   UNL     1      -6.337   2.448   0.268  0.00  0.00    -0.329 N 
ATOM     14  C   UNL     1      -7.271   2.931  -0.757  0.00  0.00    +0.105 C 
ATOM     15  C   UNL     1      -7.362   4.457  -0.688  0.00  0.00    +0.022 C 
ENDBRANCH   3  13
BRANCH   6  16
ATOM     16  N   UNL     1      -5.511  -3.118  -0.203  0.00  0.00    +0.056 N 
ATOM     17  O   UNL     1      -4.394  -3.559  -0.404  0.00  0.00    -0.126 OA
ATOM     18  O   UNL     1      -6.457  -3.878  -0.101  0.00  0.00    -0.126 OA
ENDBRANCH   6  16
ENDBRANCH   1   8
BRANCH   1  19
ATOM     19  O   UNL     1      -2.448   1.012  -0.325  0.00  0.00    -0.452 OA
BRANCH  19  20
ATOM     20  C   UNL     1      -1.371   1.979  -0.442  0.00  0.00    +0.328 C 
BRANCH  20  21
ATOM     21  C   UNL     1      -0.055   1.253  -0.559  0.00  0.00    +0.255 C 
ATOM     22  O   UNL     1      -0.028   0.041  -0.545  0.00  0.00    -0.272 OA
ATOM     23  N   UNL     1       1.091   1.951  -0.685  0.00  0.00    -0.277 N 
ATOM     24  H   UNL     1       1.069   2.921  -0.696  0.00  0.00    +0.155 HD
BRANCH  23  25
ATOM     25  C   UNL     1       2.301   1.284  -0.798  0.00  0.00    +0.084 A 
ATOM     26  C   UNL     1       3.574   1.822  -0.940  0.00  0.00    +0.065 A 
ATOM     27  C   UNL     1       4.668   0.886  -1.032  0.00  0.00    +0.022 A 
ATOM     28  C   UNL     1       4.362  -0.423  -0.984  0.00  0.00    +0.048 A 
ATOM     29  S   UNL     1       2.591  -0.423  -0.805  0.00  0.00    -0.081 S 
BRANCH  26  30
ATOM     30  C   UNL     1       3.795   3.271  -0.990  0.00  0.00    +0.244 C 
ATOM     31  O   UNL     1       2.851   4.034  -0.906  0.00  0.00    -0.270 OA
ATOM     32  N   UNL     1       5.044   3.757  -1.129  0.00  0.00    -0.325 N 
ATOM     33  H   UNL     1       5.797   3.149  -1.196  0.00  0.00    +0.145 HD
ATOM     34  H   UNL     1       5.191   4.716  -1.162  0.00  0.00    +0.145 HD
ENDBRANCH  26  30
ENDBRANCH  23  25
ENDBRANCH  20  21
ENDBRANCH  19  20
ENDBRANCH   1  19
TORSDOF 8
