REMARK  Name = ZINC64541193
REMARK  9 active torsions:
REMARK  status: ('A' for Active; 'I' for Inactive)
REMARK    1  A    between atoms: C_1  and  C_2
REMARK    2  A    between atoms: C_3  and  C_8
REMARK    3  A    between atoms: C_4  and  C_7
REMARK    4  A    between atoms: C_8  and  C_9
REMARK    5  A    between atoms: C_9  and  N_10
REMARK    6  A    between atoms: C_11  and  C_13
REMARK    7  A    between atoms: C_13  and  C_15
REMARK    8  A    between atoms: C_13  and  C_16
REMARK    9  A    between atoms: C_22  and  C_24
REMARK                            x       y       z     vdW  Elec       q    Type
REMARK                         _______ _______ _______ _____ _____    ______ ____
ROOT
ATOM      1  C   UNL     1       4.005   1.182  -7.017  0.00  0.00    +0.004 C 
ATOM      2  C   UNL     1       3.991   1.663  -8.469  0.00  0.00    +0.023 C 
ATOM      3  C   UNL     1       5.432   1.810  -8.968  0.00  0.00    +0.108 C 
ATOM      4  N   UNL     1       6.164   2.691  -8.047  0.00  0.00    -0.300 N 
ATOM      5  C   UNL     1       6.165   2.369  -6.614  0.00  0.00    +0.108 C 
ATOM      6  C   UNL     1       4.716   2.216  -6.141  0.00  0.00    +0.023 C 
ATOM      7  C   UNL     1       6.822   3.773  -8.509  0.00  0.00    +0.242 C 
ATOM      8  O   UNL     1       6.813   4.027  -9.695  0.00  0.00    -0.273 OA
ENDROOT
BRANCH   7   9
ATOM      9  C   UNL     1       7.567   4.667  -7.552  0.00  0.00    +0.190 C 
ATOM     10  C   UNL     1       6.607   5.288  -6.563  0.00  0.00    +0.016 C 
ATOM     11  C   UNL     1       6.696   6.626  -6.744  0.00  0.00    -0.002 A 
ATOM     12  C   UNL     1       6.028   7.763  -6.100  0.00  0.00    +0.029 A 
ATOM     13  C   UNL     1       6.331   9.018  -6.504  0.00  0.00    +0.042 A 
ATOM     14  C   UNL     1       7.267   9.258  -7.521  0.00  0.00    +0.022 A 
ATOM     15  C   UNL     1       7.922   8.265  -8.159  0.00  0.00    +0.027 A 
ATOM     16  C   UNL     1       7.680   6.906  -7.814  0.00  0.00    +0.043 A 
ATOM     17  N   UNL     1       8.180   5.785  -8.277  0.00  0.00    -0.370 N 
ATOM     18 CL   UNL     1       5.542  10.365  -5.746  0.00  0.00    -0.084 Cl
ATOM     19  H   UNL     1       8.843   5.708  -8.981  0.00  0.00    +0.161 HD
ENDBRANCH   7   9
BRANCH   1  20
ATOM     20  C   UNL     1       2.567   1.001  -6.526  0.00  0.00    +0.075 C 
ATOM     21  C   UNL     1       1.856  -0.033  -7.401  0.00  0.00    +0.017 C 
BRANCH  20  23
ATOM     22  N   UNL     1       1.419   0.296  -4.451  0.00  0.00    -0.315 N 
ATOM     23  C   UNL     1       2.581   0.525  -5.096  0.00  0.00    +0.216 C 
ATOM     24  O   UNL     1       3.636   0.348  -4.526  0.00  0.00    -0.276 OA
ATOM     25  H   UNL     1       0.575   0.437  -4.908  0.00  0.00    +0.149 HD
BRANCH  22  26
ATOM     26  C   UNL     1       1.433  -0.167  -3.061  0.00  0.00    +0.109 C 
BRANCH  26  27
ATOM     27  C   UNL     1      -0.005  -0.348  -2.571  0.00  0.00    +0.059 C 
BRANCH  27  30
ATOM     28  C   UNL     1      -0.018   1.503   0.010  0.00  0.00    +0.069 C 
ATOM     29  C   UNL     1       0.002  -0.004   0.002  0.00  0.00    +0.084 A 
ATOM     30  C   UNL     1       0.008  -0.824  -1.141  0.00  0.00    +0.019 A 
ATOM     31  C   UNL     1       0.027  -2.108  -0.735  0.00  0.00    +0.138 A 
ATOM     32  O   UNL     1       0.034  -2.119   0.606  0.00  0.00    -0.359 OA
ATOM     33  N   UNL     1       0.023  -0.775   1.052  0.00  0.00    -0.083 NA
ATOM     34  C   UNL     1       0.039  -3.320  -1.631  0.00  0.00    +0.089 C 
ENDBRANCH  27  30
ENDBRANCH  26  27
ENDBRANCH  22  26
ENDBRANCH  20  23
ENDBRANCH   1  20
TORSDOF 6
