REMARK  Name = ZINC20436902
REMARK  5 active torsions:
REMARK  status: ('A' for Active; 'I' for Inactive)
REMARK    1  A    between atoms: C_4  and  N_11
REMARK    2  A    between atoms: C_5  and  C_7
REMARK    3  A    between atoms: C_12  and  C_14
REMARK    4  A    between atoms: C_14  and  N_15
REMARK    5  A    between atoms: N_15  and  C_16
REMARK                            x       y       z     vdW  Elec       q    Type
REMARK                         _______ _______ _______ _____ _____    ______ ____
ROOT
ATOM      1  N   UNL     1       2.473   1.171  -0.021  0.00  0.00    -0.273 N 
ATOM      2  C   UNL     1       3.067   0.719  -1.178  0.00  0.00    +0.136 C 
ATOM      3  N   UNL     1       2.770   1.059  -2.392  0.00  0.00    -0.362 N 
ATOM      4  C   UNL     1       3.457   0.497  -3.539  0.00  0.00    +0.117 C 
ATOM      5  C   UNL     1       2.411  -0.141  -4.485  0.00  0.00    +0.191 C 
ATOM      6  S   UNL     1       3.331  -1.597  -5.143  0.00  0.00    -0.028 S 
ATOM      7  O   UNL     1       4.156  -1.184  -6.224  0.00  0.00    -0.174 OA
ATOM      8  O   UNL     1       2.430  -2.683  -5.317  0.00  0.00    -0.174 OA
ATOM      9  C   UNL     1       4.380  -1.906  -3.656  0.00  0.00    +0.182 C 
ATOM     10  C   UNL     1       4.580  -0.470  -3.136  0.00  0.00    +0.099 C 
ATOM     11  S   UNL     1       4.396  -0.462  -1.312  0.00  0.00    -0.085 S 
ATOM     12  H   UNL     1       1.974   1.796  -2.578  0.00  0.00    +0.162 HD
ENDROOT
BRANCH   1  13
ATOM     13  C   UNL     1       2.976   0.776   1.224  0.00  0.00    +0.036 A 
ATOM     14  C   UNL     1       3.089  -0.573   1.532  0.00  0.00    +0.026 A 
ATOM     15  C   UNL     1       3.590  -0.961   2.759  0.00  0.00    +0.040 A 
ATOM     16  C   UNL     1       3.969  -0.005   3.687  0.00  0.00    +0.124 A 
ATOM     17  C   UNL     1       3.852   1.341   3.384  0.00  0.00    +0.040 A 
ATOM     18  C   UNL     1       3.357   1.733   2.156  0.00  0.00    +0.026 A 
ATOM     19  F   UNL     1       4.455  -0.387   4.888  0.00  0.00    -0.205 F 
ENDBRANCH   1  13
BRANCH   1  20
ATOM     20  C   UNL     1       1.316   2.067  -0.093  0.00  0.00    +0.208 C 
BRANCH  20  22
ATOM     21  N   UNL     1      -1.147   1.865  -0.196  0.00  0.00    -0.284 N 
ATOM     22  C   UNL     1       0.050   1.250  -0.124  0.00  0.00    +0.235 C 
ATOM     23  O   UNL     1       0.109   0.039  -0.089  0.00  0.00    -0.274 OA
ATOM     24  H   UNL     1      -1.204   2.963  -0.165  0.00  0.00    +0.155 HD
BRANCH  21  28
ATOM     25  C   UNL     1      -4.631  -0.394  -0.536  0.00  0.00    +0.001 A 
ATOM     26  C   UNL     1      -3.509  -0.942   0.058  0.00  0.00    +0.002 A 
ATOM     27  C   UNL     1      -2.351  -0.198   0.168  0.00  0.00    +0.024 A 
ATOM     28  C   UNL     1      -2.317   1.106  -0.310  0.00  0.00    +0.045 A 
ATOM     29  C   UNL     1      -3.446   1.654  -0.905  0.00  0.00    +0.076 A 
ATOM     30  C   UNL     1      -4.600   0.902  -1.016  0.00  0.00    +0.014 A 
BRANCH  29  31
ATOM     31  C   UNL     1      -3.412   3.066  -1.430  0.00  0.00    +0.419 C 
ATOM     32  F   UNL     1      -4.657   3.389  -1.981  0.00  0.00    -0.166 F 
ATOM     33  F   UNL     1      -3.123   3.946  -0.382  0.00  0.00    -0.166 F 
ATOM     34  F   UNL     1      -2.425   3.174  -2.416  0.00  0.00    -0.166 F 
ENDBRANCH  29  31
ENDBRANCH  21  28
ENDBRANCH  20  22
ENDBRANCH   1  20
TORSDOF 5
