REMARK  Name = ZINC16218272
REMARK  10 active torsions:
REMARK  status: ('A' for Active; 'I' for Inactive)
REMARK    1  A    between atoms: C_4  and  O_7
REMARK    2  A    between atoms: O_7  and  C_8
REMARK    3  A    between atoms: C_11  and  N_14
REMARK    4  A    between atoms: N_14  and  C_15
REMARK    5  A    between atoms: C_15  and  N_17
REMARK    6  A    between atoms: N_17  and  N_18
REMARK    7  A    between atoms: N_18  and  C_19
REMARK    8  A    between atoms: C_22  and  S_28
REMARK    9  A    between atoms: C_24  and  N_25
REMARK   10  A    between atoms: S_28  and  N_31
REMARK                            x       y       z     vdW  Elec       q    Type
REMARK                         _______ _______ _______ _____ _____    ______ ____
ROOT
ATOM      1  N   UNL     1       1.773   2.957   0.760  0.00  0.00    -0.248 N 
ATOM      2  H   UNL     1       2.618   2.539   0.532  0.00  0.00    +0.172 HD
ENDROOT
BRANCH   1   3
ATOM      3  C   UNL     1       0.683   2.196   0.981  0.00  0.00    +0.151 C 
ATOM      4  S   UNL     1       0.790   0.491   0.859  0.00  0.00    -0.017 S 
BRANCH   3   5
ATOM      5  N   UNL     1      -0.493   2.776   1.293  0.00  0.00    -0.296 N 
ATOM      6  H   UNL     1      -0.538   3.735   1.432  0.00  0.00    +0.154 HD
BRANCH   5  10
ATOM      7  C   UNL     1      -3.935   0.451   1.657  0.00  0.00    +0.129 A 
ATOM      8  C   UNL     1      -2.732  -0.005   2.175  0.00  0.00    +0.048 A 
ATOM      9  C   UNL     1      -1.591   0.764   2.055  0.00  0.00    +0.027 A 
ATOM     10  C   UNL     1      -1.649   1.995   1.415  0.00  0.00    +0.033 A 
ATOM     11  C   UNL     1      -2.855   2.454   0.901  0.00  0.00    +0.027 A 
ATOM     12  C   UNL     1      -3.993   1.681   1.017  0.00  0.00    +0.048 A 
BRANCH   7  13
ATOM     13  O   UNL     1      -5.057  -0.307   1.776  0.00  0.00    -0.456 OA
BRANCH  13  17
ATOM     14  C   UNL     1      -6.340  -2.399  -1.540  0.00  0.00    +0.000 A 
ATOM     15  C   UNL     1      -7.107  -2.393  -0.389  0.00  0.00    +0.004 A 
ATOM     16  C   UNL     1      -6.679  -1.693   0.723  0.00  0.00    +0.046 A 
ATOM     17  C   UNL     1      -5.480  -0.996   0.683  0.00  0.00    +0.128 A 
ATOM     18  C   UNL     1      -4.715  -1.000  -0.475  0.00  0.00    +0.046 A 
ATOM     19  C   UNL     1      -5.145  -1.706  -1.582  0.00  0.00    +0.004 A 
ENDBRANCH  13  17
ENDBRANCH   7  13
ENDBRANCH   5  10
ENDBRANCH   3   5
ENDBRANCH   1   3
BRANCH   1  20
ATOM     20  N   UNL     1       1.685   4.352   0.860  0.00  0.00    -0.263 N 
ATOM     21  H   UNL     1       0.840   4.769   1.088  0.00  0.00    +0.170 HD
BRANCH  20  22
ATOM     22  C   UNL     1       2.814   5.141   0.631  0.00  0.00    +0.075 A 
ATOM     23  C   UNL     1       4.005   4.551   0.227  0.00  0.00    +0.028 A 
ATOM     24  C   UNL     1       5.120   5.334   0.001  0.00  0.00    +0.030 A 
ATOM     25  C   UNL     1       5.052   6.704   0.177  0.00  0.00    +0.107 A 
ATOM     26  C   UNL     1       3.868   7.294   0.580  0.00  0.00    +0.063 A 
ATOM     27  C   UNL     1       2.748   6.518   0.802  0.00  0.00    +0.150 A 
BRANCH  27  28
ATOM     28  N   UNL     1       1.480   7.151   1.228  0.00  0.00    +0.058 N 
ATOM     29  O   UNL     1       0.418   6.737   0.798  0.00  0.00    -0.126 OA
ATOM     30  O   UNL     1       1.498   8.087   2.007  0.00  0.00    -0.126 OA
ENDBRANCH  27  28
BRANCH  25  31
ATOM     31  S   UNL     1       6.477   7.699  -0.112  0.00  0.00    +0.056 S 
ATOM     32  O   UNL     1       6.304   8.887   0.648  0.00  0.00    -0.153 OA
ATOM     33  O   UNL     1       7.605   6.850   0.047  0.00  0.00    -0.153 OA
BRANCH  31  34
ATOM     34  N   UNL     1       6.444   8.149  -1.706  0.00  0.00    -0.204 NA
ATOM     35  H   UNL     1       6.836   8.994  -1.979  0.00  0.00    +0.144 HD
ATOM     36  H   UNL     1       6.034   7.569  -2.365  0.00  0.00    +0.144 HD
ENDBRANCH  31  34
ENDBRANCH  25  31
ENDBRANCH  20  22
ENDBRANCH   1  20
TORSDOF 10
