REMARK  Name = ZINC08010325
REMARK  7 active torsions:
REMARK  status: ('A' for Active; 'I' for Inactive)
REMARK    1  A    between atoms: C_1  and  C_2
REMARK    2  A    between atoms: C_5  and  C_9
REMARK    3  A    between atoms: C_10  and  C_11
REMARK    4  A    between atoms: N_13  and  C_14
REMARK    5  A    between atoms: C_17  and  C_24
REMARK    6  A    between atoms: C_18  and  S_20
REMARK    7  A    between atoms: S_20  and  N_23
REMARK                            x       y       z     vdW  Elec       q    Type
REMARK                         _______ _______ _______ _____ _____    ______ ____
ROOT
ATOM      1  C   UNL     1      -2.492  -2.862   0.013  0.00  0.00    +0.241 C 
ATOM      2  O   UNL     1      -3.556  -2.271   0.036  0.00  0.00    -0.270 OA
ATOM      3  N   UNL     1      -2.470  -4.210   0.004  0.00  0.00    -0.282 N 
ATOM      4  H   UNL     1      -1.626  -4.680  -0.082  0.00  0.00    +0.155 HD
ENDROOT
BRANCH   3   5
ATOM      5  C   UNL     1      -3.663  -4.930   0.117  0.00  0.00    +0.036 A 
ATOM      6  C   UNL     1      -3.685  -6.138   0.803  0.00  0.00    +0.024 A 
ATOM      7  C   UNL     1      -4.866  -6.844   0.917  0.00  0.00    +0.007 A 
ATOM      8  C   UNL     1      -6.025  -6.354   0.342  0.00  0.00    -0.024 A 
ATOM      9  C   UNL     1      -6.005  -5.155  -0.346  0.00  0.00    +0.110 A 
ATOM     10  C   UNL     1      -4.828  -4.441  -0.460  0.00  0.00    +0.052 A 
ATOM     11  C   UNL     1      -7.311  -7.130   0.464  0.00  0.00    +0.046 C 
BRANCH   9  12
ATOM     12  S   UNL     1      -7.484  -4.536  -1.078  0.00  0.00    +0.056 S 
ATOM     13  O   UNL     1      -8.492  -4.608  -0.079  0.00  0.00    -0.153 OA
ATOM     14  O   UNL     1      -7.138  -3.319  -1.725  0.00  0.00    -0.153 OA
BRANCH  12  15
ATOM     15  N   UNL     1      -7.921  -5.598  -2.271  0.00  0.00    -0.204 NA
ATOM     16  H   UNL     1      -8.857  -5.715  -2.497  0.00  0.00    +0.144 HD
ATOM     17  H   UNL     1      -7.242  -6.104  -2.743  0.00  0.00    +0.144 HD
ENDBRANCH  12  15
ENDBRANCH   9  12
ENDBRANCH   3   5
BRANCH   1  19
ATOM     18  C   UNL     1      -1.259  -0.761   0.006  0.00  0.00    +0.014 C 
ATOM     19  C   UNL     1      -1.237  -2.110  -0.004  0.00  0.00    +0.068 C 
BRANCH  18  24
ATOM     20  C   UNL     1       3.671   2.195  -0.060  0.00  0.00    +0.044 C 
ATOM     21  C   UNL     1       2.378   1.421  -0.042  0.00  0.00    -0.049 A 
ATOM     22  C   UNL     1       2.405   0.036  -0.052  0.00  0.00    +0.004 A 
ATOM     23  C   UNL     1       1.227  -0.680  -0.037  0.00  0.00    +0.009 A 
ATOM     24  C   UNL     1       0.002  -0.004  -0.011  0.00  0.00    -0.011 A 
ATOM     25  C   UNL     1      -0.016   1.395  -0.001  0.00  0.00    +0.025 A 
ATOM     26  C   UNL     1       1.172   2.097  -0.017  0.00  0.00    +0.019 A 
ATOM     27 BR   UNL     1      -1.665   2.321   0.025  0.00  0.00    -0.050 Br
ENDBRANCH  18  24
ENDBRANCH   1  19
TORSDOF 5
