REMARK  Name = ZINC09405811
REMARK  5 active torsions:
REMARK  status: ('A' for Active; 'I' for Inactive)
REMARK    1  A    between atoms: C_1  and  C_2
REMARK    2  A    between atoms: C_19  and  C_22
REMARK    3  A    between atoms: N_24  and  C_25
REMARK    4  A    between atoms: C_28  and  C_31
REMARK    5  A    between atoms: C_31  and  C_33
REMARK                            x       y       z     vdW  Elec       q    Type
REMARK                         _______ _______ _______ _____ _____    ______ ____
ROOT
ATOM      1  C   UNL     1       1.200   0.287  -3.004  0.00  0.00    +0.053 C 
ATOM      2  C   UNL     1       2.331  -0.480  -2.315  0.00  0.00    +0.188 C 
ATOM      3  C   UNL     1       2.680   0.204  -0.986  0.00  0.00    +0.159 C 
ATOM      4  N   UNL     1       3.736  -0.594  -0.339  0.00  0.00    -0.248 N 
ATOM      5  C   UNL     1       3.611  -1.994  -0.376  0.00  0.00    +0.081 A 
ATOM      6  C   UNL     1       4.400  -2.784   0.445  0.00  0.00    +0.047 A 
ATOM      7  C   UNL     1       4.277  -4.162   0.400  0.00  0.00    +0.043 A 
ATOM      8  C   UNL     1       3.369  -4.748  -0.464  0.00  0.00    +0.024 A 
ATOM      9  C   UNL     1       2.580  -3.964  -1.283  0.00  0.00    +0.049 A 
ATOM     10  C   UNL     1       2.695  -2.583  -1.243  0.00  0.00    +0.142 A 
ATOM     11  O   UNL     1       1.908  -1.819  -2.047  0.00  0.00    -0.486 OA
ATOM     12 CL   UNL     1       5.263  -5.154   1.428  0.00  0.00    -0.083 Cl
ATOM     13  C   UNL     1       4.784  -0.004   0.269  0.00  0.00    +0.309 C 
ATOM     14  O   UNL     1       5.722  -0.675   0.652  0.00  0.00    -0.252 OA
ATOM     15  N   UNL     1       4.792   1.332   0.451  0.00  0.00    -0.285 N 
ATOM     16  C   UNL     1       3.536   2.093   0.468  0.00  0.00    +0.110 C 
ATOM     17  C   UNL     1       3.630   3.231  -0.547  0.00  0.00    +0.032 C 
ATOM     18  C   UNL     1       4.877   4.069  -0.256  0.00  0.00    +0.078 C 
ATOM     19  C   UNL     1       6.125   3.194  -0.392  0.00  0.00    +0.032 C 
ATOM     20  C   UNL     1       6.059   2.055   0.630  0.00  0.00    +0.110 C 
ENDROOT
BRANCH  18  21
ATOM     21  C   UNL     1       4.955   5.211  -1.236  0.00  0.00    +0.220 C 
ATOM     22  O   UNL     1       5.914   5.314  -1.972  0.00  0.00    -0.275 OA
ATOM     23  N   UNL     1       3.959   6.117  -1.297  0.00  0.00    -0.285 N 
ATOM     24  H   UNL     1       3.225   6.073  -0.664  0.00  0.00    +0.155 HD
BRANCH  23  25
ATOM     25  C   UNL     1       3.983   7.116  -2.268  0.00  0.00    +0.033 A 
ATOM     26  C   UNL     1       2.794   7.553  -2.844  0.00  0.00    +0.024 A 
ATOM     27  C   UNL     1       2.813   8.539  -3.796  0.00  0.00    +0.013 A 
ATOM     28  C   UNL     1       4.032   9.099  -4.197  0.00  0.00    +0.017 A 
ATOM     29  C   UNL     1       5.227   8.652  -3.619  0.00  0.00    +0.013 A 
ATOM     30  C   UNL     1       5.198   7.669  -2.663  0.00  0.00    +0.024 A 
BRANCH  28  31
ATOM     31  C   UNL     1       4.058  10.152  -5.220  0.00  0.00    +0.160 C 
ATOM     32  O   UNL     1       5.115  10.635  -5.566  0.00  0.00    -0.292 OA
ATOM     33  C   UNL     1       2.771  10.631  -5.841  0.00  0.00    +0.091 C 
ENDBRANCH  28  31
ENDBRANCH  23  25
ENDBRANCH  18  21
TORSDOF 3
