REMARK  Name = ZINC27102325
REMARK  5 active torsions:
REMARK  status: ('A' for Active; 'I' for Inactive)
REMARK    1  A    between atoms: C_1  and  C_2
REMARK    2  A    between atoms: C_2  and  C_4
REMARK    3  A    between atoms: C_2  and  N_12
REMARK    4  A    between atoms: C_13  and  C_15
REMARK    5  A    between atoms: C_15  and  N_16
REMARK                            x       y       z     vdW  Elec       q    Type
REMARK                         _______ _______ _______ _____ _____    ______ ____
ROOT
ATOM      1  N   UNL     1      -1.156  -0.694   0.009  0.00  0.00    -0.307 N 
ATOM      2  C   UNL     1       0.002  -0.004   0.002  0.00  0.00    +0.231 C 
ATOM      3  O   UNL     1       1.060  -0.596  -0.011  0.00  0.00    -0.274 OA
ATOM      4  H   UNL     1      -2.116  -0.157   0.021  0.00  0.00    +0.149 HD
ENDROOT
BRANCH   1   6
ATOM      5  C   UNL     1      -1.017  -2.659  -1.440  0.00  0.00    +0.033 C 
ATOM      6  C   UNL     1      -1.136  -2.159   0.001  0.00  0.00    +0.100 C 
BRANCH   6   7
ATOM      7  C   UNL     1      -2.411  -2.682   0.611  0.00  0.00    -0.025 A 
ATOM      8  C   UNL     1      -2.376  -3.781   1.449  0.00  0.00    +0.008 A 
ATOM      9  C   UNL     1      -3.543  -4.262   2.010  0.00  0.00    +0.041 A 
ATOM     10  C   UNL     1      -4.750  -3.643   1.733  0.00  0.00    +0.158 A 
ATOM     11  C   UNL     1      -4.786  -2.541   0.893  0.00  0.00    +0.159 A 
ATOM     12  C   UNL     1      -3.614  -2.058   0.337  0.00  0.00    +0.046 A 
ATOM     13  F   UNL     1      -5.962  -1.935   0.622  0.00  0.00    -0.202 F 
ATOM     14  F   UNL     1      -5.892  -4.113   2.281  0.00  0.00    -0.202 F 
ENDBRANCH   6   7
ENDBRANCH   1   6
BRANCH   2  15
ATOM     15  C   UNL     1      -0.018   1.503   0.010  0.00  0.00    +0.213 C 
BRANCH  15  16
ATOM     16  N   UNL     1       1.356   2.010  -0.000  0.00  0.00    -0.215 N 
ATOM     17  C   UNL     1       2.057   2.278  -1.121  0.00  0.00    +0.247 C 
ATOM     18  O   UNL     1       1.684   2.151  -2.268  0.00  0.00    -0.273 OA
ATOM     19  C   UNL     1       3.405   2.771  -0.647  0.00  0.00    +0.113 C 
ATOM     20  C   UNL     1       3.644   4.201  -1.119  0.00  0.00    +0.035 C 
ATOM     21  C   UNL     1       5.000   4.691  -0.605  0.00  0.00    +0.003 C 
ATOM     22  C   UNL     1       6.105   3.772  -1.129  0.00  0.00    +0.000 C 
ATOM     23  C   UNL     1       5.865   2.347  -0.626  0.00  0.00    +0.003 C 
ATOM     24  C   UNL     1       4.512   1.847  -1.140  0.00  0.00    +0.035 C 
ATOM     25  N   UNL     1       3.307   2.722   0.818  0.00  0.00    -0.285 N 
ATOM     26  C   UNL     1       2.071   2.270   1.102  0.00  0.00    +0.310 C 
ATOM     27  O   UNL     1       1.652   2.112   2.232  0.00  0.00    -0.252 OA
ATOM     28  H   UNL     1       4.163   3.028   1.437  0.00  0.00    +0.151 HD
ENDBRANCH  15  16
ENDBRANCH   2  15
TORSDOF 4
