REMARK  Name = ZINC40152299
REMARK  10 active torsions:
REMARK  status: ('A' for Active; 'I' for Inactive)
REMARK    1  A    between atoms: C_1  and  C_2
REMARK    2  A    between atoms: C_2  and  N_3
REMARK    3  A    between atoms: N_3  and  C_4
REMARK    4  A    between atoms: N_3  and  C_6
REMARK    5  A    between atoms: C_4  and  C_5
REMARK    6  A    between atoms: C_6  and  C_8
REMARK    7  A    between atoms: C_6  and  C_28
REMARK    8  A    between atoms: C_8  and  N_9
REMARK    9  A    between atoms: N_12  and  C_13
REMARK   10  A    between atoms: C_16  and  C_19
REMARK                            x       y       z     vdW  Elec       q    Type
REMARK                         _______ _______ _______ _____ _____    ______ ____
ROOT
ATOM      1  N   UNL     1      -1.843  -1.415  -1.045  0.00  0.00    -0.300 N 
ATOM      2  C   UNL     1      -3.148  -1.741  -1.125  0.00  0.00    +0.304 C 
ATOM      3  O   UNL     1      -3.550  -2.421  -2.050  0.00  0.00    -0.253 OA
ATOM      4  N   UNL     1      -4.009  -1.315  -0.179  0.00  0.00    -0.269 N 
ATOM      5  H   UNL     1      -1.523  -0.873  -0.307  0.00  0.00    +0.150 HD
ATOM      6  H   UNL     1      -3.702  -0.718   0.522  0.00  0.00    +0.156 HD
ENDROOT
BRANCH   4   7
ATOM      7  C   UNL     1      -5.339  -1.730  -0.208  0.00  0.00    +0.035 A 
ATOM      8  C   UNL     1      -5.658  -3.006  -0.662  0.00  0.00    +0.024 A 
ATOM      9  C   UNL     1      -6.971  -3.420  -0.693  0.00  0.00    +0.015 A 
ATOM     10  C   UNL     1      -7.984  -2.557  -0.266  0.00  0.00    +0.037 A 
ATOM     11  C   UNL     1      -7.660  -1.276   0.190  0.00  0.00    +0.015 A 
ATOM     12  C   UNL     1      -6.345  -0.870   0.222  0.00  0.00    +0.024 A 
BRANCH  10  13
ATOM     13  C   UNL     1      -9.392  -2.996  -0.298  0.00  0.00    +0.247 C 
ATOM     14  O   UNL     1     -10.266  -2.216  -0.624  0.00  0.00    -0.270 OA
ATOM     15  N   UNL     1      -9.710  -4.263   0.035  0.00  0.00    -0.298 N 
ATOM     16  C   UNL     1     -11.077  -4.703  -0.137  0.00  0.00    +0.108 C 
ATOM     17  C   UNL     1     -11.883  -4.409   1.153  0.00  0.00    +0.019 C 
ATOM     18  C   UNL     1     -11.467  -5.317   2.233  0.00  0.00    +0.002 C 
ATOM     19  C   UNL     1     -10.009  -5.163   2.656  0.00  0.00    +0.002 C 
ATOM     20  C   UNL     1      -9.135  -5.994   1.749  0.00  0.00    +0.019 C 
ATOM     21  C   UNL     1      -8.648  -5.146   0.554  0.00  0.00    +0.108 C 
ENDBRANCH  10  13
ENDBRANCH   4   7
BRANCH   1  22
ATOM     22  C   UNL     1      -0.908  -1.879  -2.072  0.00  0.00    +0.095 C 
BRANCH  22  23
ATOM     23  C   UNL     1       0.450  -1.203  -1.869  0.00  0.00    -0.020 C 
BRANCH  23  24
ATOM     24  C   UNL     1       1.532  -2.056  -2.479  0.00  0.00    -0.052 A 
ATOM     25  C   UNL     1       2.362  -2.816  -1.677  0.00  0.00    +0.009 A 
ATOM     26  C   UNL     1       3.325  -3.573  -2.257  0.00  0.00    +0.045 A 
ATOM     27  S   UNL     1       3.077  -3.221  -3.990  0.00  0.00    -0.105 S 
ATOM     28  C   UNL     1       1.702  -2.094  -3.823  0.00  0.00    +0.047 A 
ENDBRANCH  23  24
BRANCH  23  29
ATOM     29  N   UNL     1       0.442   0.115  -2.517  0.00  0.00    +0.385 N 
ATOM     30  H   UNL     1       0.386  -0.002  -3.518  0.00  0.00    -0.081 HD
BRANCH  29  32
ATOM     31  C   UNL     1      -0.720   2.262  -2.715  0.00  0.00    -0.017 C 
ATOM     32  C   UNL     1      -0.718   0.885  -2.048  0.00  0.00    -0.081 C 
ENDBRANCH  29  32
BRANCH  29  33
ATOM     33  C   UNL     1       1.677   0.835  -2.177  0.00  0.00    -0.081 C 
ATOM     34  C   UNL     1       2.867   0.156  -2.858  0.00  0.00    -0.017 C 
ENDBRANCH  29  33
ENDBRANCH  23  29
ENDBRANCH  22  23
ENDBRANCH   1  22
TORSDOF 8
