REMARK  Name = ZINC40055597
REMARK  6 active torsions:
REMARK  status: ('A' for Active; 'I' for Inactive)
REMARK    1  A    between atoms: C_1  and  C_2
REMARK    2  A    between atoms: C_5  and  C_8
REMARK    3  A    between atoms: C_16  and  C_32
REMARK    4  A    between atoms: C_27  and  C_29
REMARK    5  A    between atoms: C_29  and  C_30
REMARK    6  A    between atoms: C_29  and  C_31
REMARK                            x       y       z     vdW  Elec       q    Type
REMARK                         _______ _______ _______ _____ _____    ______ ____
ROOT
ATOM      1  C   UNL     1       0.059  -4.275  -0.021  0.00  0.00    +0.151 C 
ATOM      2  C   UNL     1       1.443  -4.774   0.237  0.00  0.00    +0.072 A 
ATOM      3  C   UNL     1       2.692  -4.592  -0.510  0.00  0.00    +0.199 A 
ATOM      4  O   UNL     1       2.807  -3.808  -1.436  0.00  0.00    -0.287 OA
ATOM      5  C   UNL     1       3.802  -5.453  -0.031  0.00  0.00    +0.066 A 
ATOM      6  C   UNL     1       4.989  -5.544  -0.758  0.00  0.00    +0.035 A 
ATOM      7  C   UNL     1       6.007  -6.352  -0.302  0.00  0.00    +0.045 A 
ATOM      8  C   UNL     1       5.850  -7.071   0.876  0.00  0.00    -0.029 A 
ATOM      9  C   UNL     1       4.684  -6.988   1.603  0.00  0.00    +0.051 A 
ATOM     10  C   UNL     1       3.639  -6.175   1.163  0.00  0.00    +0.140 A 
ATOM     11  O   UNL     1       2.508  -6.104   1.901  0.00  0.00    -0.450 OA
ATOM     12  C   UNL     1       1.411  -5.514   1.386  0.00  0.00    +0.199 A 
ATOM     13  C   UNL     1       0.028  -5.522   1.892  0.00  0.00    +0.289 C 
ATOM     14  O   UNL     1      -0.341  -6.095   2.898  0.00  0.00    -0.266 OA
ATOM     15  N   UNL     1      -0.769  -4.800   1.076  0.00  0.00    -0.230 N 
ATOM     16  C   UNL     1      -2.132  -4.588   1.243  0.00  0.00    +0.191 A 
ATOM     17  N   UNL     1      -2.987  -3.903   0.495  0.00  0.00    -0.125 NA
ATOM     18  N   UNL     1      -4.208  -3.812   0.795  0.00  0.00    -0.144 NA
ATOM     19  C   UNL     1      -4.713  -4.389   1.868  0.00  0.00    +0.106 A 
ATOM     20  S   UNL     1      -3.240  -5.168   2.524  0.00  0.00    -0.035 S 
ATOM     21  C   UNL     1       6.969  -7.954   1.365  0.00  0.00    +0.045 C 
ATOM     22 CL   UNL     1       7.488  -6.471  -1.199  0.00  0.00    -0.083 Cl
ENDROOT
BRANCH   1  27
ATOM     23  C   UNL     1      -0.018   1.503   0.010  0.00  0.00    +0.044 C 
ATOM     24  C   UNL     1       0.002  -0.004   0.002  0.00  0.00    -0.050 A 
ATOM     25  C   UNL     1       0.006  -0.689  -1.199  0.00  0.00    +0.004 A 
ATOM     26  C   UNL     1       0.025  -2.071  -1.206  0.00  0.00    +0.006 A 
ATOM     27  C   UNL     1       0.040  -2.768  -0.013  0.00  0.00    -0.022 A 
ATOM     28  C   UNL     1       0.037  -2.084   1.188  0.00  0.00    +0.006 A 
ATOM     29  C   UNL     1       0.023  -0.702   1.195  0.00  0.00    +0.004 A 
ENDBRANCH   1  27
BRANCH  19  30
ATOM     30  C   UNL     1      -6.126  -4.396   2.390  0.00  0.00    +0.040 C 
ATOM     31  C   UNL     1      -6.571  -2.961   2.677  0.00  0.00    +0.014 C 
ATOM     32  C   UNL     1      -7.053  -5.018   1.344  0.00  0.00    +0.014 C 
ENDBRANCH  19  30
TORSDOF 2
