REMARK  Name = ZINC56355661
REMARK  3 active torsions:
REMARK  status: ('A' for Active; 'I' for Inactive)
REMARK    1  A    between atoms: C_1  and  C_2
REMARK    2  A    between atoms: C_5  and  C_7
REMARK    3  A    between atoms: N_17  and  C_18
REMARK                            x       y       z     vdW  Elec       q    Type
REMARK                         _______ _______ _______ _____ _____    ______ ____
ROOT
ATOM      1  C   UNL     1       0.924  -4.585  -0.278  0.00  0.00    +0.253 C 
ATOM      2  O   UNL     1       0.290  -5.423   0.336  0.00  0.00    -0.269 OA
ATOM      3  N   UNL     1       2.257  -4.720  -0.421  0.00  0.00    -0.294 N 
ATOM      4  C   UNL     1       3.069  -3.610  -0.941  0.00  0.00    +0.127 C 
ATOM      5  C   UNL     1       4.182  -3.303   0.069  0.00  0.00    +0.128 C 
ATOM      6  N   UNL     1       4.850  -4.561   0.430  0.00  0.00    -0.282 N 
ATOM      7  C   UNL     1       4.037  -5.671   0.949  0.00  0.00    +0.128 C 
ATOM      8  C   UNL     1       2.925  -5.976  -0.055  0.00  0.00    +0.127 C 
ATOM      9  C   UNL     1       6.183  -4.696   0.286  0.00  0.00    +0.307 C 
ATOM     10  O   UNL     1       6.856  -3.746  -0.063  0.00  0.00    -0.252 OA
ATOM     11  N   UNL     1       6.770  -5.885   0.530  0.00  0.00    -0.267 N 
ATOM     12  H   UNL     1       6.241  -6.629   0.856  0.00  0.00    +0.156 HD
ENDROOT
BRANCH  11  13
ATOM     13  C   UNL     1       8.146  -6.044   0.312  0.00  0.00    +0.070 A 
ATOM     14  C   UNL     1       8.999  -4.956   0.429  0.00  0.00    +0.029 A 
ATOM     15  C   UNL     1      10.354  -5.115   0.214  0.00  0.00    +0.040 A 
ATOM     16  C   UNL     1      10.863  -6.360  -0.117  0.00  0.00    +0.126 A 
ATOM     17  C   UNL     1      10.015  -7.448  -0.234  0.00  0.00    +0.078 A 
ATOM     18  C   UNL     1       8.659  -7.295  -0.014  0.00  0.00    +0.147 A 
ATOM     19  F   UNL     1       7.832  -8.357  -0.123  0.00  0.00    -0.203 F 
ATOM     20  F   UNL     1      12.189  -6.512  -0.326  0.00  0.00    -0.205 F 
ENDBRANCH  11  13
BRANCH   1  25
ATOM     21  C   UNL     1      -0.684   0.006  -2.958  0.00  0.00    +0.051 C 
ATOM     22  C   UNL     1      -0.511  -1.247  -2.140  0.00  0.00    -0.013 A 
ATOM     23  C   UNL     1      -1.441  -1.889  -1.391  0.00  0.00    +0.011 A 
ATOM     24  C   UNL     1      -1.082  -3.029  -0.712  0.00  0.00    +0.021 A 
ATOM     25  C   UNL     1       0.237  -3.429  -0.861  0.00  0.00    +0.074 A 
ATOM     26  S   UNL     1       0.878  -2.174  -1.953  0.00  0.00    -0.089 S 
ENDBRANCH   1  25
TORSDOF 2
