REMARK  Name = ZINC35551335
REMARK  7 active torsions:
REMARK  status: ('A' for Active; 'I' for Inactive)
REMARK    1  A    between atoms: C_1  and  C_2
REMARK    2  A    between atoms: C_5  and  N_9
REMARK    3  A    between atoms: C_7  and  C_8
REMARK    4  A    between atoms: C_19  and  C_35
REMARK    5  A    between atoms: C_20  and  C_34
REMARK    6  A    between atoms: C_22  and  C_24
REMARK    7  A    between atoms: C_28  and  C_30
REMARK                            x       y       z     vdW  Elec       q    Type
REMARK                         _______ _______ _______ _____ _____    ______ ____
ROOT
ATOM      1  N   UNL     1       0.132  -4.204   0.126  0.00  0.00    -0.269 N 
ATOM      2  C   UNL     1      -0.035  -4.843  -1.049  0.00  0.00    +0.307 C 
ATOM      3  O   UNL     1      -0.109  -4.206  -2.083  0.00  0.00    -0.252 OA
ATOM      4  N   UNL     1      -0.120  -6.188  -1.079  0.00  0.00    -0.282 N 
ATOM      5  C   UNL     1      -0.217  -6.959   0.168  0.00  0.00    +0.128 C 
ATOM      6  C   UNL     1      -1.468  -7.843   0.102  0.00  0.00    +0.125 C 
ATOM      7  N   UNL     1      -1.466  -8.564  -1.179  0.00  0.00    -0.312 N 
ATOM      8  C   UNL     1      -1.369  -7.793  -2.426  0.00  0.00    +0.125 C 
ATOM      9  C   UNL     1      -0.123  -6.909  -2.360  0.00  0.00    +0.128 C 
ATOM     10  C   UNL     1      -1.553  -9.947  -1.209  0.00  0.00    +0.128 A 
ATOM     11  C   UNL     1      -2.799 -10.579  -1.186  0.00  0.00    +0.008 A 
ATOM     12  C   UNL     1      -2.838 -11.960  -1.218  0.00  0.00    +0.021 A 
ATOM     13  N   UNL     1      -1.703 -12.639  -1.270  0.00  0.00    -0.343 N 
ATOM     14  C   UNL     1      -0.534 -12.013  -1.290  0.00  0.00    +0.140 A 
ATOM     15  N   UNL     1      -0.454 -10.690  -1.267  0.00  0.00    -0.214 NA
ATOM     16  C   UNL     1      -4.159 -12.685  -1.195  0.00  0.00    +0.064 C 
ATOM     17  C   UNL     1      -4.071  -9.773  -1.127  0.00  0.00    +0.049 C 
ATOM     18  H   UNL     1       0.319  -4.711   0.931  0.00  0.00    +0.156 HD
ATOM     19  H   UNL     1      -1.726 -13.609  -1.292  0.00  0.00    +0.167 HD
ENDROOT
BRANCH   1  24
ATOM     20  C   UNL     1      -0.261   1.451   0.360  0.00  0.00    +0.044 C 
ATOM     21  C   UNL     1      -0.157  -0.051   0.298  0.00  0.00    -0.047 A 
ATOM     22  C   UNL     1       0.167  -0.671  -0.895  0.00  0.00    +0.005 A 
ATOM     23  C   UNL     1       0.264  -2.048  -0.955  0.00  0.00    +0.023 A 
ATOM     24  C   UNL     1       0.035  -2.809   0.183  0.00  0.00    +0.035 A 
ATOM     25  C   UNL     1      -0.290  -2.183   1.380  0.00  0.00    +0.027 A 
ATOM     26  C   UNL     1      -0.379  -0.806   1.435  0.00  0.00    -0.046 A 
ATOM     27  C   UNL     1      -0.726  -0.125   2.734  0.00  0.00    +0.044 C 
ENDBRANCH   1  24
BRANCH  14  28
ATOM     28  C   UNL     1       0.714 -12.813  -1.347  0.00  0.00    +0.018 A 
ATOM     29  C   UNL     1       0.651 -14.205  -1.384  0.00  0.00    +0.011 A 
ATOM     30  C   UNL     1       1.816 -14.944  -1.437  0.00  0.00    +0.001 A 
ATOM     31  C   UNL     1       3.043 -14.305  -1.453  0.00  0.00    +0.012 A 
ATOM     32  C   UNL     1       3.111 -12.924  -1.417  0.00  0.00    +0.055 A 
ATOM     33  C   UNL     1       1.952 -12.175  -1.369  0.00  0.00    +0.024 A 
BRANCH  32  34
ATOM     34  C   UNL     1       4.451 -12.236  -1.435  0.00  0.00    +0.417 C 
ATOM     35  F   UNL     1       5.468 -13.196  -1.489  0.00  0.00    -0.166 F 
ATOM     36  F   UNL     1       4.534 -11.405  -2.557  0.00  0.00    -0.166 F 
ATOM     37  F   UNL     1       4.597 -11.469  -0.274  0.00  0.00    -0.166 F 
ENDBRANCH  32  34
ENDBRANCH  14  28
TORSDOF 3
