REMARK  Name = ZINC25220318
REMARK  3 active torsions:
REMARK  status: ('A' for Active; 'I' for Inactive)
REMARK    1  A    between atoms: C_2  and  C_26
REMARK    2  A    between atoms: N_11  and  C_14
REMARK    3  A    between atoms: C_14  and  C_15
REMARK                            x       y       z     vdW  Elec       q    Type
REMARK                         _______ _______ _______ _____ _____    ______ ____
ROOT
ATOM      1  C   UNL     1       1.812   1.372   1.012  0.00  0.00    +0.037 A 
ATOM      2  C   UNL     1       1.176   2.040  -0.027  0.00  0.00    +0.074 A 
ATOM      3  C   UNL     1       0.547   1.310  -1.015  0.00  0.00    +0.125 A 
ATOM      4  N   UNL     1       0.543  -0.009  -0.984  0.00  0.00    -0.238 NA
ATOM      5  C   UNL     1       1.138  -0.683  -0.013  0.00  0.00    +0.140 A 
ATOM      6  C   UNL     1       1.792  -0.011   1.017  0.00  0.00    +0.081 A 
ATOM      7 CL   UNL     1       2.571  -0.898   2.291  0.00  0.00    -0.080 Cl
ATOM      8  N   UNL     1       1.111  -2.073  -0.020  0.00  0.00    -0.318 N 
ATOM      9  C   UNL     1       1.749  -2.606  -1.232  0.00  0.00    +0.088 C 
ATOM     10  C   UNL     1       1.769  -4.135  -1.164  0.00  0.00    -0.059 C 
ATOM     11  N   UNL     1       0.394  -4.635  -1.034  0.00  0.00    +0.384 N 
ATOM     12  C   UNL     1      -0.245  -4.102   0.177  0.00  0.00    -0.059 C 
ATOM     13  C   UNL     1      -0.265  -2.573   0.110  0.00  0.00    +0.088 C 
ATOM     14  H   UNL     1      -0.180  -4.282  -1.904  0.00  0.00    -0.081 HD
ENDROOT
BRANCH   2  15
ATOM     15  C   UNL     1       1.172   3.546  -0.074  0.00  0.00    +0.419 C 
ATOM     16  F   UNL     1       0.473   3.975  -1.207  0.00  0.00    -0.166 F 
ATOM     17  F   UNL     1       0.551   4.047   1.075  0.00  0.00    -0.166 F 
ATOM     18  F   UNL     1       2.489   4.014  -0.134  0.00  0.00    -0.166 F 
ENDBRANCH   2  15
BRANCH  11  19
ATOM     19  C   UNL     1       0.364  -6.104  -1.043  0.00  0.00    -0.042 C 
BRANCH  19  20
ATOM     20  C   UNL     1       0.799  -6.607  -2.395  0.00  0.00    -0.046 A 
ATOM     21  C   UNL     1       2.059  -7.154  -2.555  0.00  0.00    +0.052 A 
ATOM     22  C   UNL     1       2.461  -7.619  -3.797  0.00  0.00    +0.162 A 
ATOM     23  C   UNL     1       1.595  -7.536  -4.881  0.00  0.00    +0.163 A 
ATOM     24  C   UNL     1       0.333  -6.985  -4.715  0.00  0.00    +0.065 A 
ATOM     25  C   UNL     1      -0.064  -6.527  -3.472  0.00  0.00    +0.023 A 
ATOM     26 BR   UNL     1      -1.788  -5.784  -3.247  0.00  0.00    -0.050 Br
ATOM     27  O   UNL     1       1.969  -7.990  -6.109  0.00  0.00    -0.485 OA
ATOM     28  C   UNL     1       3.371  -8.191  -6.321  0.00  0.00    +0.270 C 
ATOM     29  C   UNL     1       3.937  -8.944  -5.110  0.00  0.00    +0.270 C 
ATOM     30  O   UNL     1       3.706  -8.152  -3.940  0.00  0.00    -0.485 OA
ENDBRANCH  19  20
ENDBRANCH  11  19
TORSDOF 3
