REMARK  Name = ZINC44812361
REMARK  6 active torsions:
REMARK  status: ('A' for Active; 'I' for Inactive)
REMARK    1  A    between atoms: C_1  and  C_2
REMARK    2  A    between atoms: C_5  and  C_8
REMARK    3  A    between atoms: C_10  and  C_13
REMARK    4  A    between atoms: C_13  and  N_14
REMARK    5  A    between atoms: C_18  and  C_21
REMARK    6  A    between atoms: N_23  and  C_24
REMARK                            x       y       z     vdW  Elec       q    Type
REMARK                         _______ _______ _______ _____ _____    ______ ____
ROOT
ATOM      1  N   UNL     1      -1.278  -7.866   1.976  0.00  0.00    +0.386 N 
ATOM      2  C   UNL     1      -1.949  -6.794   2.721  0.00  0.00    -0.078 C 
ATOM      3  C   UNL     1      -3.410  -7.177   2.966  0.00  0.00    -0.018 C 
ATOM      4  C   UNL     1      -3.463  -8.475   3.777  0.00  0.00    +0.009 C 
ATOM      5  C   UNL     1      -2.696  -9.566   3.025  0.00  0.00    +0.059 C 
ATOM      6  C   UNL     1      -1.261  -9.095   2.778  0.00  0.00    -0.065 C 
ATOM      7  H   UNL     1      -1.773  -8.034   1.113  0.00  0.00    -0.081 HD
ENDROOT
BRANCH   5   8
ATOM      8  C   UNL     1      -2.678 -10.828   3.850  0.00  0.00    +0.219 C 
ATOM      9  O   UNL     1      -1.620 -11.306   4.202  0.00  0.00    -0.275 OA
ATOM     10  N   UNL     1      -3.836 -11.424   4.195  0.00  0.00    -0.284 N 
ATOM     11  H   UNL     1      -4.682 -11.007   3.969  0.00  0.00    +0.155 HD
BRANCH  10  12
ATOM     12  C   UNL     1      -3.817 -12.644   4.880  0.00  0.00    +0.053 A 
ATOM     13  C   UNL     1      -2.815 -12.909   5.804  0.00  0.00    +0.044 A 
ATOM     14  C   UNL     1      -2.800 -14.115   6.479  0.00  0.00    +0.043 A 
ATOM     15  C   UNL     1      -3.783 -15.058   6.235  0.00  0.00    +0.021 A 
ATOM     16  C   UNL     1      -4.782 -14.798   5.316  0.00  0.00    +0.023 A 
ATOM     17  C   UNL     1      -4.806 -13.591   4.642  0.00  0.00    +0.062 A 
ATOM     18 CL   UNL     1      -6.065 -13.263   3.493  0.00  0.00    -0.082 Cl
ATOM     19 CL   UNL     1      -1.547 -14.447   7.633  0.00  0.00    -0.083 Cl
ENDBRANCH  10  12
ENDBRANCH   5   8
BRANCH   1  20
ATOM     20  C   UNL     1       0.102  -7.461   1.676  0.00  0.00    +0.022 C 
BRANCH  20  23
ATOM     21  C   UNL     1       0.060  -4.222   0.038  0.00  0.00    +0.202 A 
ATOM     22  N   UNL     1       0.070  -5.021   1.120  0.00  0.00    -0.193 NA
ATOM     23  C   UNL     1       0.086  -6.270   0.752  0.00  0.00    +0.211 A 
ATOM     24  O   UNL     1       0.087  -6.319  -0.587  0.00  0.00    -0.340 OA
ATOM     25  N   UNL     1       0.065  -4.972  -1.036  0.00  0.00    -0.056 NA
BRANCH  21  30
ATOM     26  C   UNL     1      -0.019   1.536   0.115  0.00  0.00    +0.044 C 
ATOM     27  C   UNL     1       0.002   0.030   0.095  0.00  0.00    -0.050 A 
ATOM     28  C   UNL     1       0.006  -0.643  -1.113  0.00  0.00    +0.004 A 
ATOM     29  C   UNL     1       0.025  -2.023  -1.138  0.00  0.00    +0.012 A 
ATOM     30  C   UNL     1       0.040  -2.738   0.058  0.00  0.00    +0.022 A 
ATOM     31  C   UNL     1       0.035  -2.055   1.272  0.00  0.00    +0.012 A 
ATOM     32  C   UNL     1       0.022  -0.675   1.285  0.00  0.00    +0.004 A 
ENDBRANCH  21  30
ENDBRANCH  20  23
ENDBRANCH   1  20
TORSDOF 5
