REMARK  Name = ZINC09830100
REMARK  4 active torsions:
REMARK  status: ('A' for Active; 'I' for Inactive)
REMARK    1  A    between atoms: C_1  and  C_2
REMARK    2  A    between atoms: C_8  and  C_13
REMARK    3  A    between atoms: N_15  and  C_16
REMARK    4  A    between atoms: C_21  and  C_22
REMARK                            x       y       z     vdW  Elec       q    Type
REMARK                         _______ _______ _______ _____ _____    ______ ____
ROOT
ATOM      1  C   UNL     1       4.279  -5.113   0.898  0.00  0.00    +0.045 C 
ATOM      2  C   UNL     1       4.400  -3.634   0.639  0.00  0.00    -0.034 A 
ATOM      3  C   UNL     1       5.666  -3.046   0.517  0.00  0.00    +0.008 A 
ATOM      4  C   UNL     1       5.765  -1.706   0.283  0.00  0.00    +0.047 A 
ATOM      5  C   UNL     1       4.597  -0.934   0.169  0.00  0.00    +0.140 A 
ATOM      6  N   UNL     1       4.701   0.377  -0.061  0.00  0.00    -0.237 NA
ATOM      7  C   UNL     1       3.638   1.145  -0.183  0.00  0.00    +0.131 A 
ATOM      8  C   UNL     1       2.358   0.587  -0.060  0.00  0.00    +0.120 A 
ATOM      9  C   UNL     1       2.248  -0.803   0.183  0.00  0.00    +0.271 A 
ATOM     10  O   UNL     1       1.154  -1.329   0.292  0.00  0.00    -0.266 OA
ATOM     11  N   UNL     1       3.377  -1.536   0.292  0.00  0.00    -0.267 N 
ATOM     12  C   UNL     1       3.286  -2.874   0.525  0.00  0.00    +0.099 A 
ENDROOT
BRANCH   8  13
ATOM     13  C   UNL     1       1.160   1.425  -0.186  0.00  0.00    +0.255 C 
ATOM     14  O   UNL     1       1.269   2.632  -0.291  0.00  0.00    -0.270 OA
ATOM     15  N   UNL     1      -0.062   0.856  -0.185  0.00  0.00    -0.281 N 
ATOM     16  H   UNL     1      -0.149  -0.109  -0.135  0.00  0.00    +0.155 HD
BRANCH  15  17
ATOM     17  C   UNL     1      -1.206   1.658  -0.263  0.00  0.00    +0.037 A 
ATOM     18  C   UNL     1      -1.093   3.041  -0.198  0.00  0.00    +0.024 A 
ATOM     19  C   UNL     1      -2.224   3.829  -0.274  0.00  0.00    +0.017 A 
ATOM     20  C   UNL     1      -3.470   3.243  -0.415  0.00  0.00    +0.018 A 
ATOM     21  C   UNL     1      -3.586   1.866  -0.479  0.00  0.00    +0.020 A 
ATOM     22  C   UNL     1      -2.457   1.072  -0.410  0.00  0.00    -0.028 A 
ATOM     23  C   UNL     1      -2.584  -0.427  -0.486  0.00  0.00    +0.046 C 
ATOM     24 BR   UNL     1      -5.016   4.326  -0.520  0.00  0.00    -0.050 Br
ENDBRANCH  15  17
ENDBRANCH   8  13
TORSDOF 2
