REMARK  Name = ZINC13340968
REMARK  6 active torsions:
REMARK  status: ('A' for Active; 'I' for Inactive)
REMARK    1  A    between atoms: C_4  and  N_21
REMARK    2  A    between atoms: C_6  and  S_7
REMARK    3  A    between atoms: S_7  and  N_10
REMARK    4  A    between atoms: N_10  and  C_11
REMARK    5  A    between atoms: C_13  and  C_19
REMARK    6  A    between atoms: C_15  and  C_17
REMARK                            x       y       z     vdW  Elec       q    Type
REMARK                         _______ _______ _______ _____ _____    ______ ____
ROOT
ATOM      1  N   UNL     1       4.367   2.454  -1.603  0.00  0.00    -0.216 N 
ATOM      2  H   UNL     1       5.090   1.901  -1.938  0.00  0.00    +0.174 HD
ENDROOT
BRANCH   1   3
ATOM      3  C   UNL     1       3.652   3.276  -2.477  0.00  0.00    +0.050 A 
ATOM      4  C   UNL     1       2.738   2.719  -3.360  0.00  0.00    +0.039 A 
ATOM      5  C   UNL     1       2.017   3.538  -4.231  0.00  0.00    +0.066 A 
ATOM      6  C   UNL     1       2.225   4.916  -4.222  0.00  0.00    +0.030 A 
ATOM      7  C   UNL     1       3.148   5.472  -3.338  0.00  0.00    +0.066 A 
ATOM      8  C   UNL     1       3.861   4.648  -2.465  0.00  0.00    +0.039 A 
BRANCH   7   9
ATOM      9  C   UNL     1       3.371   6.933  -3.324  0.00  0.00    +0.387 C 
ATOM     10  O   UNL     1       4.176   7.417  -2.553  0.00  0.00    -0.241 OA
ATOM     11  O   UNL     1       2.683   7.727  -4.167  0.00  0.00    -0.241 OA
ENDBRANCH   7   9
BRANCH   5  12
ATOM     12  C   UNL     1       1.040   2.944  -5.167  0.00  0.00    +0.387 C 
ATOM     13  O   UNL     1       0.859   1.742  -5.175  0.00  0.00    -0.241 OA
ATOM     14  O   UNL     1       0.350   3.734  -6.011  0.00  0.00    -0.241 OA
ENDBRANCH   5  12
ENDBRANCH   1   3
BRANCH   1  15
ATOM     15  S   UNL     1       3.981   2.424   0.008  0.00  0.00    +0.072 S 
ATOM     16  O   UNL     1       3.937   3.777   0.440  0.00  0.00    -0.150 OA
ATOM     17  O   UNL     1       4.832   1.459   0.611  0.00  0.00    -0.150 OA
BRANCH  15  23
ATOM     18  C   UNL     1       1.272   2.675   0.218  0.00  0.00    +0.030 A 
ATOM     19  C   UNL     1      -0.017   2.186   0.321  0.00  0.00    +0.024 A 
ATOM     20  C   UNL     1      -0.239   0.821   0.343  0.00  0.00    +0.071 A 
ATOM     21  C   UNL     1       0.830  -0.054   0.264  0.00  0.00    +0.146 A 
ATOM     22  C   UNL     1       2.118   0.436   0.161  0.00  0.00    +0.063 A 
ATOM     23  C   UNL     1       2.339   1.800   0.138  0.00  0.00    +0.111 A 
ATOM     24 CL   UNL     1      -1.857   0.206   0.471  0.00  0.00    -0.081 Cl
BRANCH  21  25
ATOM     25  N   UNL     1       0.593  -1.515   0.288  0.00  0.00    +0.058 N 
ATOM     26  O   UNL     1       1.534  -2.286   0.218  0.00  0.00    -0.126 OA
ATOM     27  O   UNL     1      -0.542  -1.947   0.379  0.00  0.00    -0.126 OA
ENDBRANCH  21  25
ENDBRANCH  15  23
ENDBRANCH   1  15
TORSDOF 6
