REMARK  Name = ZINC40793526
REMARK  5 active torsions:
REMARK  status: ('A' for Active; 'I' for Inactive)
REMARK    1  A    between atoms: C_3  and  C_9
REMARK    2  A    between atoms: N_11  and  N_12
REMARK    3  A    between atoms: C_14  and  N_28
REMARK    4  A    between atoms: C_15  and  N_19
REMARK    5  A    between atoms: C_22  and  C_25
REMARK                            x       y       z     vdW  Elec       q    Type
REMARK                         _______ _______ _______ _____ _____    ______ ____
ROOT
ATOM      1  N   UNL     1       4.854   4.229  -0.135  0.00  0.00    -0.247 N 
ATOM      2  C   UNL     1       4.832   5.617  -0.071  0.00  0.00    +0.161 A 
ATOM      3  C   UNL     1       6.024   6.345  -0.060  0.00  0.00    +0.107 A 
ATOM      4  C   UNL     1       5.945   7.737   0.004  0.00  0.00    +0.147 A 
ATOM      5  N   UNL     1       4.746   8.313   0.052  0.00  0.00    -0.219 NA
ATOM      6  C   UNL     1       3.645   7.589   0.040  0.00  0.00    +0.225 A 
ATOM      7  N   UNL     1       3.676   6.273  -0.025  0.00  0.00    -0.217 NA
ATOM      8  H   UNL     1       5.702   3.758  -0.168  0.00  0.00    +0.172 HD
ENDROOT
BRANCH   4   9
ATOM      9  N   UNL     1       7.100   8.510   0.018  0.00  0.00    -0.314 N 
ATOM     10  C   UNL     1       7.653   9.052  -1.231  0.00  0.00    +0.107 C 
ATOM     11  C   UNL     1       7.832  10.565  -1.075  0.00  0.00    +0.034 C 
ATOM     12  C   UNL     1       8.684  10.848   0.165  0.00  0.00    +0.105 C 
ATOM     13  C   UNL     1       7.970  10.316   1.409  0.00  0.00    +0.034 C 
ATOM     14  C   UNL     1       7.788   8.805   1.282  0.00  0.00    +0.107 C 
BRANCH  12  15
ATOM     15  C   UNL     1       8.891  12.335   0.303  0.00  0.00    +0.359 C 
ATOM     16  O   UNL     1       9.032  12.831   1.408  0.00  0.00    -0.246 OA
ATOM     17  O   UNL     1       8.917  13.041  -0.690  0.00  0.00    -0.246 OA
ENDBRANCH  12  15
ENDBRANCH   4   9
BRANCH   1  20
ATOM     18  C   UNL     1       3.674   2.163  -0.213  0.00  0.00    +0.262 C 
ATOM     19  O   UNL     1       4.736   1.573  -0.255  0.00  0.00    -0.269 OA
ATOM     20  N   UNL     1       3.652   3.509  -0.151  0.00  0.00    -0.231 N 
ATOM     21  H   UNL     1       2.805   3.980  -0.117  0.00  0.00    +0.173 HD
BRANCH  18  24
ATOM     22  C   UNL     1       0.005   1.365  -0.198  0.00  0.00    +0.021 A 
ATOM     23  C   UNL     1       1.185   2.079  -0.181  0.00  0.00    +0.016 A 
ATOM     24  C   UNL     1       2.407   1.405  -0.230  0.00  0.00    +0.057 A 
ATOM     25  C   UNL     1       2.425   0.008  -0.294  0.00  0.00    +0.054 A 
ATOM     26  C   UNL     1       1.237  -0.694  -0.310  0.00  0.00    +0.040 A 
ATOM     27  C   UNL     1       0.029  -0.018  -0.262  0.00  0.00    +0.042 A 
ATOM     28 CL   UNL     1      -1.461  -0.909  -0.282  0.00  0.00    -0.083 Cl
ATOM     29 CL   UNL     1       3.939  -0.840  -0.355  0.00  0.00    -0.083 Cl
ENDBRANCH  18  24
ENDBRANCH   1  20
BRANCH   3  30
ATOM     30  N   UNL     1       7.267   5.695  -0.113  0.00  0.00    -0.353 N 
ATOM     31  H   UNL     1       7.311   4.727  -0.066  0.00  0.00    +0.143 HD
ATOM     32  H   UNL     1       8.083   6.213  -0.196  0.00  0.00    +0.143 HD
ENDBRANCH   3  30
TORSDOF 5
