REMARK  Name = ZINC08004083
REMARK  9 active torsions:
REMARK  status: ('A' for Active; 'I' for Inactive)
REMARK    1  A    between atoms: C_1  and  C_2
REMARK    2  A    between atoms: C_2  and  C_3
REMARK    3  A    between atoms: C_2  and  C_4
REMARK    4  A    between atoms: C_4  and  C_6
REMARK    5  A    between atoms: C_4  and  N_53
REMARK    6  A    between atoms: C_13  and  C_14
REMARK    7  A    between atoms: C_13  and  N_53
REMARK    8  A    between atoms: N_16  and  C_17
REMARK    9  A    between atoms: C_20  and  N_23
REMARK                            x       y       z     vdW  Elec       q    Type
REMARK                         _______ _______ _______ _____ _____    ______ ____
ROOT
ATOM      1  C   UNL     1       2.299   4.073  -0.562  0.00  0.00    +0.200 C 
ATOM      2  O   UNL     1       3.290   3.467  -0.912  0.00  0.00    -0.278 OA
ATOM      3  N   UNL     1       1.113   3.438  -0.484  0.00  0.00    -0.287 N 
ATOM      4  H   UNL     1       0.309   3.936  -0.269  0.00  0.00    +0.155 HD
ENDROOT
BRANCH   3   5
ATOM      5  C   UNL     1       1.042   2.058  -0.713  0.00  0.00    +0.033 A 
ATOM      6  C   UNL     1       2.099   1.237  -0.342  0.00  0.00    +0.025 A 
ATOM      7  C   UNL     1       2.028  -0.123  -0.567  0.00  0.00    +0.025 A 
ATOM      8  C   UNL     1       0.900  -0.671  -1.165  0.00  0.00    +0.036 A 
ATOM      9  C   UNL     1      -0.156   0.150  -1.536  0.00  0.00    +0.025 A 
ATOM     10  C   UNL     1      -0.086   1.510  -1.311  0.00  0.00    +0.025 A 
BRANCH   8  11
ATOM     11  N   UNL     1       0.829  -2.051  -1.394  0.00  0.00    -0.271 N 
ATOM     12  C   UNL     1       1.930  -2.989  -1.146  0.00  0.00    +0.114 C 
ATOM     13  C   UNL     1       1.565  -4.269  -1.930  0.00  0.00    +0.029 C 
ATOM     14  C   UNL     1       0.024  -4.167  -2.001  0.00  0.00    +0.098 C 
ATOM     15  C   UNL     1      -0.258  -2.686  -1.863  0.00  0.00    +0.220 C 
ATOM     16  O   UNL     1      -1.311  -2.151  -2.139  0.00  0.00    -0.275 OA
ENDBRANCH   8  11
ENDBRANCH   3   5
BRANCH   1  17
ATOM     17  C   UNL     1       2.394   5.537  -0.216  0.00  0.00    +0.016 C 
BRANCH  17  18
ATOM     18  N   UNL     1       3.790   5.984  -0.383  0.00  0.00    +0.389 N 
ATOM     19  H   UNL     1       4.386   5.492   0.294  0.00  0.00    -0.084 HD
ATOM     20  H   UNL     1       4.103   5.767  -1.336  0.00  0.00    -0.084 HD
BRANCH  18  21
ATOM     21  C   UNL     1       3.893   7.438  -0.155  0.00  0.00    -0.038 C 
BRANCH  21  22
ATOM     22  C   UNL     1       3.475   8.173  -1.402  0.00  0.00    -0.061 A 
ATOM     23  C   UNL     1       3.852   7.697  -2.644  0.00  0.00    +0.005 A 
ATOM     24  C   UNL     1       3.465   8.368  -3.788  0.00  0.00    +0.038 A 
ATOM     25  C   UNL     1       2.709   9.524  -3.690  0.00  0.00    +0.123 A 
ATOM     26  C   UNL     1       2.337  10.003  -2.446  0.00  0.00    +0.038 A 
ATOM     27  C   UNL     1       2.721   9.328  -1.303  0.00  0.00    +0.005 A 
ATOM     28  F   UNL     1       2.336  10.184  -4.808  0.00  0.00    -0.205 F 
ENDBRANCH  21  22
BRANCH  21  30
ATOM     29  C   UNL     1       5.743   7.100   1.490  0.00  0.00    +0.006 C 
ATOM     30  C   UNL     1       5.342   7.791   0.185  0.00  0.00    -0.027 C 
ATOM     31  C   UNL     1       6.260   7.319  -0.945  0.00  0.00    +0.006 C 
ENDBRANCH  21  30
ENDBRANCH  18  21
ENDBRANCH  17  18
ENDBRANCH   1  17
TORSDOF 7
