REMARK  Name = ZINC36611127
REMARK  7 active torsions:
REMARK  status: ('A' for Active; 'I' for Inactive)
REMARK    1  A    between atoms: C_3  and  N_14
REMARK    2  A    between atoms: C_6  and  C_7
REMARK    3  A    between atoms: C_7  and  N_8
REMARK    4  A    between atoms: C_15  and  C_17
REMARK    5  A    between atoms: C_20  and  C_22
REMARK    6  A    between atoms: C_22  and  O_23
REMARK    7  A    between atoms: O_23  and  C_24
REMARK                            x       y       z     vdW  Elec       q    Type
REMARK                         _______ _______ _______ _____ _____    ______ ____
ROOT
ATOM      1  N   UNL     1       3.583   2.123  -0.021  0.00  0.00    -0.279 N 
ATOM      2  C   UNL     1       3.627   3.374   0.478  0.00  0.00    +0.284 C 
ATOM      3  O   UNL     1       2.645   3.849   1.018  0.00  0.00    -0.266 OA
ATOM      4  H   UNL     1       4.386   1.716  -0.383  0.00  0.00    +0.155 HD
ENDROOT
BRANCH   1   7
ATOM      5  C   UNL     1      -0.013   1.375  -0.180  0.00  0.00    +0.003 A 
ATOM      6  C   UNL     1       1.174   2.081  -0.183  0.00  0.00    +0.023 A 
ATOM      7  C   UNL     1       2.380   1.411  -0.018  0.00  0.00    +0.034 A 
ATOM      8  C   UNL     1       2.387   0.032   0.148  0.00  0.00    +0.023 A 
ATOM      9  C   UNL     1       1.197  -0.668   0.150  0.00  0.00    +0.003 A 
ATOM     10  C   UNL     1      -0.002   0.002  -0.014  0.00  0.00    -0.064 A 
BRANCH  10  11
ATOM     11  C   UNL     1      -1.299  -0.765  -0.011  0.00  0.00    -0.043 C 
BRANCH  11  12
ATOM     12  N   UNL     1      -1.625  -1.180  -1.382  0.00  0.00    +0.382 N 
ATOM     13  C   UNL     1      -1.869   0.010  -2.207  0.00  0.00    -0.078 C 
ATOM     14  C   UNL     1      -2.130  -0.413  -3.654  0.00  0.00    -0.019 C 
ATOM     15  C   UNL     1      -3.357  -1.329  -3.700  0.00  0.00    -0.004 C 
ATOM     16  C   UNL     1      -3.120  -2.529  -2.778  0.00  0.00    -0.019 C 
ATOM     17  C   UNL     1      -2.823  -2.028  -1.363  0.00  0.00    -0.078 C 
ATOM     18  H   UNL     1      -0.852  -1.701  -1.768  0.00  0.00    -0.081 HD
ENDBRANCH  11  12
ENDBRANCH  10  11
ENDBRANCH   1   7
BRANCH   2  19
ATOM     19  C   UNL     1       4.858   4.163   0.371  0.00  0.00    +0.190 A 
ATOM     20  C   UNL     1       5.040   5.434   0.836  0.00  0.00    +0.055 A 
ATOM     21  C   UNL     1       6.359   5.795   0.520  0.00  0.00    +0.049 A 
ATOM     22  C   UNL     1       6.918   4.742  -0.116  0.00  0.00    +0.143 A 
ATOM     23  O   UNL     1       6.012   3.759  -0.200  0.00  0.00    -0.452 OA
BRANCH  22  24
ATOM     24  C   UNL     1       8.329   4.682  -0.641  0.00  0.00    +0.303 C 
BRANCH  24  25
ATOM     25  O   UNL     1       9.194   4.170   0.376  0.00  0.00    -0.484 OA
BRANCH  25  26
ATOM     26  C   UNL     1      10.511   4.051   0.064  0.00  0.00    +0.121 A 
ATOM     27  C   UNL     1      10.963   4.424  -1.194  0.00  0.00    +0.046 A 
ATOM     28  C   UNL     1      12.303   4.303  -1.509  0.00  0.00    +0.018 A 
ATOM     29  C   UNL     1      13.193   3.809  -0.572  0.00  0.00    +0.014 A 
ATOM     30  C   UNL     1      12.744   3.437   0.682  0.00  0.00    +0.018 A 
ATOM     31  C   UNL     1      11.406   3.561   1.003  0.00  0.00    +0.046 A 
ATOM     32  I   UNL     1      15.223   3.626  -1.054  0.00  0.00    -0.044 I 
ENDBRANCH  25  26
ENDBRANCH  24  25
ENDBRANCH  22  24
ENDBRANCH   2  19
TORSDOF 7
