REMARK  Name = ZINC09738274
REMARK  7 active torsions:
REMARK  status: ('A' for Active; 'I' for Inactive)
REMARK    1  A    between atoms: C_3  and  S_6
REMARK    2  A    between atoms: S_6  and  N_9
REMARK    3  A    between atoms: N_9  and  C_10
REMARK    4  A    between atoms: C_13  and  C_16
REMARK    5  A    between atoms: C_16  and  N_18
REMARK    6  A    between atoms: N_19  and  C_20
REMARK    7  A    between atoms: C_29  and  O_30
REMARK                            x       y       z     vdW  Elec       q    Type
REMARK                         _______ _______ _______ _____ _____    ______ ____
ROOT
ATOM      1  C   UNL     1       9.663   3.942   2.760  0.00  0.00    +0.285 C 
ATOM      2  O   UNL     1      10.431   4.230   1.861  0.00  0.00    -0.267 OA
ENDROOT
BRANCH   1   6
ATOM      3  C   UNL     1       5.756   2.546   1.850  0.00  0.00    +0.074 A 
ATOM      4  C   UNL     1       6.633   2.876   0.820  0.00  0.00    +0.027 A 
ATOM      5  C   UNL     1       7.899   3.329   1.112  0.00  0.00    +0.015 A 
ATOM      6  C   UNL     1       8.305   3.457   2.444  0.00  0.00    +0.040 A 
ATOM      7  C   UNL     1       7.422   3.125   3.475  0.00  0.00    +0.015 A 
ATOM      8  C   UNL     1       6.155   2.678   3.178  0.00  0.00    +0.027 A 
BRANCH   3   9
ATOM      9  N   UNL     1       4.477   2.089   1.552  0.00  0.00    -0.097 NA
BRANCH   9  10
ATOM     10  S   UNL     1       4.001   1.932  -0.026  0.00  0.00    +0.098 S 
ATOM     11  O   UNL     1       4.799   0.900  -0.590  0.00  0.00    -0.148 OA
ATOM     12  O   UNL     1       3.957   3.244  -0.570  0.00  0.00    -0.148 OA
BRANCH  10  15
ATOM     13  C   UNL     1      -0.016   1.351   0.009  0.00  0.00    +0.010 A 
ATOM     14  C   UNL     1       1.183   2.038   0.002  0.00  0.00    +0.037 A 
ATOM     15  C   UNL     1       2.343   1.336  -0.013  0.00  0.00    +0.148 A 
ATOM     16  S   UNL     1       1.754  -0.349  -0.017  0.00  0.00    -0.077 S 
ATOM     17  C   UNL     1       0.002  -0.004   0.002  0.00  0.00    +0.047 A 
ENDBRANCH  10  15
ENDBRANCH   9  10
ENDBRANCH   3   9
ENDBRANCH   1   6
BRANCH   1  18
ATOM     18  N   UNL     1      10.053   4.065   4.046  0.00  0.00    -0.075 NA
ATOM     19  N   UNL     1      11.239   4.488   4.322  0.00  0.00    -0.151 NA
BRANCH  19  20
ATOM     20  C   UNL     1      11.626   4.610   5.596  0.00  0.00    +0.152 A 
ATOM     21  C   UNL     1      12.937   5.082   6.085  0.00  0.00    +0.033 A 
ATOM     22  C   UNL     1      14.099   5.516   5.453  0.00  0.00    +0.050 A 
ATOM     23  C   UNL     1      15.187   5.902   6.212  0.00  0.00    +0.124 A 
ATOM     24  C   UNL     1      15.121   5.857   7.598  0.00  0.00    +0.040 A 
ATOM     25  C   UNL     1      13.974   5.429   8.233  0.00  0.00    +0.029 A 
ATOM     26  C   UNL     1      12.870   5.037   7.485  0.00  0.00    +0.052 A 
ATOM     27  N   UNL     1      11.613   4.572   7.839  0.00  0.00    -0.324 N 
ATOM     28  H   UNL     1      11.307   4.447   8.751  0.00  0.00    +0.169 HD
ATOM     29  C   UNL     1      10.867   4.323   6.736  0.00  0.00    +0.219 A 
ATOM     30  F   UNL     1      16.317   6.323   5.604  0.00  0.00    -0.205 F 
BRANCH  29  31
ATOM     31  O   UNL     1       9.597   3.867   6.736  0.00  0.00    -0.492 OA
ATOM     32  H   UNL     1       9.526   2.902   6.725  0.00  0.00    +0.294 HD
ENDBRANCH  29  31
ENDBRANCH  19  20
ENDBRANCH   1  18
TORSDOF 7
