REMARK  Name = ZINC22842056
REMARK  8 active torsions:
REMARK  status: ('A' for Active; 'I' for Inactive)
REMARK    1  A    between atoms: C_1  and  C_2
REMARK    2  A    between atoms: C_7  and  S_8
REMARK    3  A    between atoms: S_8  and  N_11
REMARK    4  A    between atoms: N_11  and  N_12
REMARK    5  A    between atoms: C_13  and  C_15
REMARK    6  A    between atoms: C_20  and  N_21
REMARK    7  A    between atoms: N_21  and  S_22
REMARK    8  A    between atoms: S_22  and  C_25
REMARK                            x       y       z     vdW  Elec       q    Type
REMARK                         _______ _______ _______ _____ _____    ______ ____
ROOT
ATOM      1  N   UNL     1       0.969  -1.369   0.381  0.00  0.00    -0.228 N 
ATOM      2  C   UNL     1      -0.209  -0.716   0.329  0.00  0.00    +0.261 C 
ATOM      3  O   UNL     1      -1.250  -1.327   0.472  0.00  0.00    -0.269 OA
ATOM      4  H   UNL     1       1.912  -0.805   0.336  0.00  0.00    +0.171 HD
ENDROOT
BRANCH   2   5
ATOM      5  C   UNL     1      -0.235   0.741   0.099  0.00  0.00    +0.062 A 
ATOM      6  C   UNL     1       0.959   1.462   0.027  0.00  0.00    +0.015 A 
ATOM      7  C   UNL     1       0.928   2.822  -0.188  0.00  0.00    +0.001 A 
ATOM      8  C   UNL     1      -0.283   3.481  -0.333  0.00  0.00    +0.002 A 
ATOM      9  C   UNL     1      -1.470   2.783  -0.265  0.00  0.00    +0.027 A 
ATOM     10  C   UNL     1      -1.459   1.410  -0.054  0.00  0.00    +0.086 A 
BRANCH  10  11
ATOM     11  N   UNL     1      -2.653   0.704   0.010  0.00  0.00    -0.097 NA
BRANCH  11  12
ATOM     12  S   UNL     1      -3.940   1.167  -0.924  0.00  0.00    +0.098 S 
ATOM     13  O   UNL     1      -4.947   0.180  -0.745  0.00  0.00    -0.148 OA
ATOM     14  O   UNL     1      -4.165   2.543  -0.651  0.00  0.00    -0.148 OA
BRANCH  12  15
ATOM     15  C   UNL     1      -3.427   1.063  -2.606  0.00  0.00    +0.148 A 
ATOM     16  C   UNL     1      -3.509   0.015  -3.461  0.00  0.00    +0.037 A 
ATOM     17  C   UNL     1      -3.038   0.163  -4.752  0.00  0.00    +0.010 A 
ATOM     18  C   UNL     1      -2.507   1.354  -5.125  0.00  0.00    +0.047 A 
ATOM     19  S   UNL     1      -2.671   2.316  -3.630  0.00  0.00    -0.077 S 
ENDBRANCH  12  15
ENDBRANCH  11  12
ENDBRANCH  10  11
ENDBRANCH   2   5
BRANCH   1  20
ATOM     20  N   UNL     1       0.991  -2.765   0.492  0.00  0.00    -0.108 NA
ATOM     21  H   UNL     1       0.538  -3.200   1.231  0.00  0.00    +0.172 HD
BRANCH  20  22
ATOM     22  S   UNL     1       1.790  -3.673  -0.640  0.00  0.00    +0.074 S 
ATOM     23  O   UNL     1       1.855  -4.996  -0.126  0.00  0.00    -0.152 OA
ATOM     24  O   UNL     1       1.196  -3.372  -1.895  0.00  0.00    -0.152 OA
BRANCH  22  31
ATOM     25  C   UNL     1       3.739  -3.799   1.669  0.00  0.00    +0.046 C 
ATOM     26  C   UNL     1       4.265  -3.179   0.399  0.00  0.00    -0.021 A 
ATOM     27  C   UNL     1       5.566  -2.716   0.344  0.00  0.00    +0.043 A 
ATOM     28  C   UNL     1       6.047  -2.142  -0.821  0.00  0.00    +0.124 A 
ATOM     29  C   UNL     1       5.224  -2.036  -1.930  0.00  0.00    +0.040 A 
ATOM     30  C   UNL     1       3.926  -2.504  -1.873  0.00  0.00    +0.031 A 
ATOM     31  C   UNL     1       3.447  -3.078  -0.710  0.00  0.00    +0.110 A 
ATOM     32  F   UNL     1       7.317  -1.685  -0.875  0.00  0.00    -0.205 F 
ENDBRANCH  22  31
ENDBRANCH  20  22
ENDBRANCH   1  20
TORSDOF 7
