REMARK  Name = ZINC39198631
REMARK  10 active torsions:
REMARK  status: ('A' for Active; 'I' for Inactive)
REMARK    1  A    between atoms: C_1  and  C_2
REMARK    2  A    between atoms: C_2  and  O_3
REMARK    3  A    between atoms: O_3  and  C_4
REMARK    4  A    between atoms: C_9  and  C_10
REMARK    5  A    between atoms: C_10  and  N_11
REMARK    6  A    between atoms: C_17  and  C_19
REMARK    7  A    between atoms: C_22  and  O_25
REMARK    8  A    between atoms: O_25  and  C_26
REMARK    9  A    between atoms: C_26  and  C_27
REMARK   10  A    between atoms: C_27  and  N_28
REMARK                            x       y       z     vdW  Elec       q    Type
REMARK                         _______ _______ _______ _____ _____    ______ ____
ROOT
ATOM      1  N   UNL     1       4.979  -2.252  -3.034  0.00  0.00    -0.295 NA
ATOM      2  C   UNL     1       5.961  -1.592  -3.905  0.00  0.00    +0.104 C 
ATOM      3  C   UNL     1       5.461  -0.188  -4.261  0.00  0.00    +0.123 C 
ATOM      4  N   UNL     1       5.155   0.529  -3.015  0.00  0.00    -0.295 N 
ATOM      5  C   UNL     1       4.284  -0.129  -2.029  0.00  0.00    +0.123 C 
ATOM      6  C   UNL     1       4.830  -1.536  -1.760  0.00  0.00    +0.104 C 
ATOM      7  C   UNL     1       5.657   1.758  -2.782  0.00  0.00    +0.247 C 
ATOM      8  O   UNL     1       5.333   2.368  -1.782  0.00  0.00    -0.270 OA
ENDROOT
BRANCH   7   9
ATOM      9  C   UNL     1       6.603   2.362  -3.741  0.00  0.00    +0.037 A 
ATOM     10  C   UNL     1       6.338   2.311  -5.112  0.00  0.00    +0.016 A 
ATOM     11  C   UNL     1       7.222   2.877  -6.004  0.00  0.00    +0.046 A 
ATOM     12  C   UNL     1       8.376   3.498  -5.542  0.00  0.00    +0.120 A 
ATOM     13  C   UNL     1       8.643   3.550  -4.179  0.00  0.00    +0.046 A 
ATOM     14  C   UNL     1       7.761   2.992  -3.280  0.00  0.00    +0.016 A 
BRANCH  12  15
ATOM     15  O   UNL     1       9.245   4.053  -6.424  0.00  0.00    -0.494 OA
BRANCH  15  16
ATOM     16  C   UNL     1      10.412   4.675  -5.881  0.00  0.00    +0.210 C 
BRANCH  16  17
ATOM     17  C   UNL     1      11.265   5.239  -7.019  0.00  0.00    -0.037 C 
BRANCH  17  18
ATOM     18  N   UNL     1      10.518   6.298  -7.711  0.00  0.00    +0.382 N 
ATOM     19  C   UNL     1      11.272   6.733  -8.894  0.00  0.00    -0.079 C 
ATOM     20  C   UNL     1      10.462   7.778  -9.664  0.00  0.00    -0.019 C 
ATOM     21  C   UNL     1      10.196   8.981  -8.755  0.00  0.00    -0.004 C 
ATOM     22  C   UNL     1       9.476   8.504  -7.491  0.00  0.00    -0.019 C 
ATOM     23  C   UNL     1      10.322   7.433  -6.801  0.00  0.00    -0.079 C 
ATOM     24  H   UNL     1       9.620   5.941  -8.001  0.00  0.00    -0.082 HD
ENDBRANCH  17  18
ENDBRANCH  16  17
ENDBRANCH  15  16
ENDBRANCH  12  15
ENDBRANCH   7   9
BRANCH   1  25
ATOM     25  C   UNL     1       5.335  -3.659  -2.809  0.00  0.00    +0.123 C 
BRANCH  25  31
ATOM     26  C   UNL     1       6.269  -4.339  -5.034  0.00  0.00    +0.125 A 
ATOM     27  C   UNL     1       6.181  -5.042  -6.227  0.00  0.00    +0.047 A 
ATOM     28  C   UNL     1       5.065  -5.812  -6.493  0.00  0.00    +0.019 A 
ATOM     29  C   UNL     1       4.036  -5.883  -5.571  0.00  0.00    +0.018 A 
ATOM     30  C   UNL     1       4.122  -5.182  -4.381  0.00  0.00    +0.023 A 
ATOM     31  C   UNL     1       5.239  -4.416  -4.108  0.00  0.00    +0.009 A 
ATOM     32 BR   UNL     1       2.510  -6.937  -5.937  0.00  0.00    -0.050 Br
BRANCH  26  33
ATOM     33  O   UNL     1       7.366  -3.581  -4.771  0.00  0.00    -0.492 OA
BRANCH  33  35
ATOM     34  C   UNL     1       9.533  -2.650  -5.298  0.00  0.00    +0.048 C 
ATOM     35  C   UNL     1       8.387  -3.548  -5.769  0.00  0.00    +0.225 C 
ENDBRANCH  33  35
ENDBRANCH  26  33
ENDBRANCH  25  31
ENDBRANCH   1  25
TORSDOF 9
