REMARK  Name = ZINC36016859
REMARK  11 active torsions:
REMARK  status: ('A' for Active; 'I' for Inactive)
REMARK    1  A    between atoms: C_1  and  C_2
REMARK    2  A    between atoms: C_2  and  N_3
REMARK    3  A    between atoms: N_10  and  C_13
REMARK    4  A    between atoms: C_13  and  C_14
REMARK    5  A    between atoms: C_15  and  C_32
REMARK    6  A    between atoms: C_16  and  C_24
REMARK    7  A    between atoms: N_21  and  C_22
REMARK    8  A    between atoms: C_22  and  C_23
REMARK    9  A    between atoms: C_32  and  O_34
REMARK   10  A    between atoms: O_34  and  C_35
REMARK   11  A    between atoms: C_35  and  C_36
REMARK                            x       y       z     vdW  Elec       q    Type
REMARK                         _______ _______ _______ _____ _____    ______ ____
ROOT
ATOM      1  C   UNL     1      -4.257  -6.185  -3.148  0.00  0.00    +0.010 C 
ATOM      2  C   UNL     1      -5.407  -6.791  -3.512  0.00  0.00    +0.077 C 
ATOM      3  C   UNL     1      -5.574  -8.255  -3.161  0.00  0.00    +0.145 C 
ATOM      4  N   UNL     1      -4.461  -8.902  -2.446  0.00  0.00    -0.288 N 
ATOM      5  C   UNL     1      -3.374  -8.163  -2.150  0.00  0.00    +0.307 C 
ATOM      6  O   UNL     1      -2.449  -8.687  -1.560  0.00  0.00    -0.252 OA
ATOM      7  N   UNL     1      -3.276  -6.871  -2.490  0.00  0.00    -0.261 N 
ATOM      8  H   UNL     1      -4.509  -9.837  -2.194  0.00  0.00    +0.151 HD
ENDROOT
BRANCH   3   9
ATOM      9  C   UNL     1      -5.808  -9.016  -4.441  0.00  0.00    -0.004 A 
ATOM     10  C   UNL     1      -4.736  -9.551  -5.132  0.00  0.00    +0.008 A 
ATOM     11  C   UNL     1      -4.949 -10.249  -6.306  0.00  0.00    +0.020 A 
ATOM     12  C   UNL     1      -6.235 -10.413  -6.790  0.00  0.00    +0.042 A 
ATOM     13  C   UNL     1      -7.307  -9.879  -6.099  0.00  0.00    +0.040 A 
ATOM     14  C   UNL     1      -7.094  -9.184  -4.921  0.00  0.00    +0.048 A 
ATOM     15 CL   UNL     1      -8.440  -8.518  -4.050  0.00  0.00    -0.083 Cl
ATOM     16 CL   UNL     1      -6.503 -11.289  -8.265  0.00  0.00    -0.083 Cl
ENDBRANCH   3   9
BRANCH   7  17
ATOM     17  C   UNL     1      -2.051  -6.152  -2.130  0.00  0.00    +0.111 C 
ATOM     18  C   UNL     1      -2.165  -5.638  -0.693  0.00  0.00    +0.025 C 
ENDBRANCH   7  17
BRANCH   2  19
ATOM     19  C   UNL     1      -6.421  -6.083  -4.198  0.00  0.00    +0.339 C 
ATOM     20  O   UNL     1      -6.598  -6.272  -5.387  0.00  0.00    -0.245 OA
BRANCH  19  21
ATOM     21  O   UNL     1      -7.192  -5.197  -3.534  0.00  0.00    -0.462 OA
BRANCH  21  22
ATOM     22  C   UNL     1      -8.266  -4.598  -4.262  0.00  0.00    +0.229 C 
ATOM     23  C   UNL     1      -8.946  -3.540  -3.390  0.00  0.00    +0.048 C 
ENDBRANCH  21  22
ENDBRANCH  19  21
ENDBRANCH   2  19
BRANCH   1  24
ATOM     24  C   UNL     1      -4.049  -4.729  -3.477  0.00  0.00    -0.026 C 
BRANCH  24  32
ATOM     25  N   UNL     1      -4.370  -4.333  -8.839  0.00  0.00    -0.300 N 
ATOM     26  C   UNL     1      -3.359  -3.538  -8.434  0.00  0.00    +0.302 C 
ATOM     27  O   UNL     1      -3.184  -2.459  -8.966  0.00  0.00    -0.253 OA
ATOM     28  N   UNL     1      -2.543  -3.939  -7.439  0.00  0.00    -0.287 N 
ATOM     29  C   UNL     1      -1.524  -2.999  -6.931  0.00  0.00    +0.107 C 
ATOM     30  C   UNL     1      -1.428  -3.063  -5.396  0.00  0.00    +0.000 C 
ATOM     31  C   UNL     1      -2.816  -3.196  -4.810  0.00  0.00    -0.077 C 
ATOM     32  N   UNL     1      -3.122  -4.611  -4.610  0.00  0.00    +0.384 N 
ATOM     33  C   UNL     1      -3.696  -5.260  -5.726  0.00  0.00    -0.059 C 
ATOM     34  C   UNL     1      -2.701  -5.276  -6.903  0.00  0.00    +0.091 C 
ATOM     35  H   UNL     1      -4.466  -5.223  -8.465  0.00  0.00    +0.150 HD
ATOM     36  H   UNL     1      -2.267  -5.090  -4.368  0.00  0.00    -0.081 HD
BRANCH  25  38
ATOM     37  C   UNL     1      -6.361  -4.940 -10.123  0.00  0.00    +0.024 C 
ATOM     38  C   UNL     1      -5.322  -3.852  -9.843  0.00  0.00    +0.102 C 
ENDBRANCH  25  38
ENDBRANCH  24  32
ENDBRANCH   1  24
TORSDOF 8
