REMARK  Name = ZINC64684144
REMARK  9 active torsions:
REMARK  status: ('A' for Active; 'I' for Inactive)
REMARK    1  A    between atoms: C_1  and  C_2
REMARK    2  A    between atoms: C_5  and  N_8
REMARK    3  A    between atoms: C_9  and  S_14
REMARK    4  A    between atoms: S_14  and  C_15
REMARK    5  A    between atoms: C_15  and  C_16
REMARK    6  A    between atoms: N_18  and  CA_19
REMARK    7  A    between atoms: CA_19  and  CB_21
REMARK    8  A    between atoms: CA_19  and  C_31
REMARK    9  A    between atoms: CB_21  and  CG_22
REMARK                            x       y       z     vdW  Elec       q    Type
REMARK                         _______ _______ _______ _____ _____    ______ ____
ROOT
ATOM      1  C   UNK A   0       4.247  -4.978   1.670  0.00  0.00    +0.224 C 
ATOM      2  O   UNK A   0       4.284  -4.604   2.823  0.00  0.00    -0.275 OA
ATOM      3  N   TRP A   1       5.393  -5.223   1.004  0.00  0.00    -0.301 N 
ATOM      4  H   TRP A   1       5.363  -5.522   0.081  0.00  0.00    +0.150 HD
ENDROOT
BRANCH   1   5
ATOM      5  C   UNK A   0       2.920  -5.170   0.982  0.00  0.00    +0.167 C 
BRANCH   5   6
ATOM      6  S   UNK A   0       1.578  -4.763   2.133  0.00  0.00    -0.114 S 
BRANCH   6   8
ATOM      7  N   UNK A   0       0.058  -4.167  -0.021  0.00  0.00    -0.254 N 
ATOM      8  C   UNK A   0       0.070  -5.041   1.165  0.00  0.00    +0.203 C 
ATOM      9  N   UNK A   0       0.043  -6.429   0.642  0.00  0.00    -0.320 NA
ATOM     10  N   UNK A   0      -0.508  -6.254  -0.713  0.00  0.00    +0.411 N 
ATOM     11  N   UNK A   0       0.063  -4.971  -1.136  0.00  0.00    -0.265 NA
ATOM     12  H   UNK A   0       0.973  -6.820   0.606  0.00  0.00    +0.106 HD
ATOM     13  H   UNK A   0      -0.205  -7.000  -1.322  0.00  0.00    -0.031 HD
ATOM     14  H   UNK A   0      -0.482  -4.560  -1.880  0.00  0.00    +0.125 HD
ATOM     15  H   UNK A   0      -1.515  -6.201  -0.685  0.00  0.00    -0.031 HD
BRANCH   7  20
ATOM     16  C   UNK A   0      -0.018   1.503   0.010  0.00  0.00    +0.044 C 
ATOM     17  C   UNK A   0       0.002  -0.004   0.002  0.00  0.00    -0.050 A 
ATOM     18  C   UNK A   0       0.006  -0.687  -1.200  0.00  0.00    +0.005 A 
ATOM     19  C   UNK A   0       0.024  -2.068  -1.212  0.00  0.00    +0.025 A 
ATOM     20  C   UNK A   0       0.040  -2.771  -0.013  0.00  0.00    +0.045 A 
ATOM     21  C   UNK A   0       0.036  -2.081   1.193  0.00  0.00    +0.025 A 
ATOM     22  C   UNK A   0       0.023  -0.700   1.197  0.00  0.00    +0.005 A 
ENDBRANCH   7  20
ENDBRANCH   6   8
ENDBRANCH   5   6
ENDBRANCH   1   5
BRANCH   3  23
ATOM     23  CA  TRP A   1       6.683  -5.037   1.672  0.00  0.00    +0.190 C 
BRANCH  23  24
ATOM     24  C   TRP A   1       7.099  -3.592   1.567  0.00  0.00    +0.376 C 
ATOM     25  O   TRP A   1       6.385  -2.793   0.987  0.00  0.00    -0.244 OA
ATOM     26  OXT TRP A   1       8.151  -3.224   2.062  0.00  0.00    -0.244 OA
ENDBRANCH  23  24
BRANCH  23  27
ATOM     27  CB  TRP A   1       7.737  -5.921   1.003  0.00  0.00    +0.067 C 
BRANCH  27  28
ATOM     28  CG  TRP A   1       7.383  -7.371   1.214  0.00  0.00    -0.039 C 
ATOM     29  CD2 TRP A   1       6.700  -8.174   0.366  0.00  0.00    -0.001 A 
ATOM     30  CE3 TRP A   1       6.104  -7.946  -0.955  0.00  0.00    +0.010 A 
ATOM     31  CZ3 TRP A   1       5.468  -8.967  -1.573  0.00  0.00    +0.001 A 
ATOM     32  CH2 TRP A   1       5.363 -10.235  -0.983  0.00  0.00    +0.002 A 
ATOM     33  CZ2 TRP A   1       5.885 -10.521   0.229  0.00  0.00    +0.026 A 
ATOM     34  CE2 TRP A   1       6.577  -9.521   0.967  0.00  0.00    +0.043 A 
ATOM     35  NE1 TRP A   1       7.160  -9.550   2.141  0.00  0.00    -0.380 N 
ATOM     36  CD1 TRP A   1       7.726  -8.225   2.415  0.00  0.00    +0.144 C 
ATOM     37  HE1 TRP A   1       7.213 -10.321   2.728  0.00  0.00    +0.160 HD
ENDBRANCH  27  28
ENDBRANCH  23  27
ENDBRANCH   3  23
TORSDOF 8
