REMARK  Name = ZINC64764719
REMARK  2 active torsions:
REMARK  status: ('A' for Active; 'I' for Inactive)
REMARK    1  A    between atoms: C_2  and  C_11
REMARK    2  A    between atoms: C_11  and  N_12
REMARK                            x       y       z     vdW  Elec       q    Type
REMARK                         _______ _______ _______ _____ _____    ______ ____
ROOT
ATOM      1  N   UNL     1       1.115   6.282   0.628  0.00  0.00    -0.295 N 
ATOM      2  C   UNL     1       1.134   5.401   1.648  0.00  0.00    +0.302 C 
ATOM      3  O   UNL     1       1.055   4.209   1.423  0.00  0.00    -0.253 OA
ATOM      4  N   UNL     1       1.241   5.841   2.917  0.00  0.00    -0.285 N 
ATOM      5  C   UNL     1       1.384   4.893   4.029  0.00  0.00    +0.114 C 
ATOM      6  C   UNL     1       0.296   5.183   5.069  0.00  0.00    +0.084 C 
ATOM      7  C   UNL     1       0.369   6.655   5.480  0.00  0.00    +0.173 C 
ATOM      8  C   UNL     1       0.131   7.549   4.261  0.00  0.00    +0.084 C 
ATOM      9  C   UNL     1       1.223   7.280   3.214  0.00  0.00    +0.114 C 
ATOM     10  O   UNL     1      -0.625   6.925   6.476  0.00  0.00    -0.346 OA
ATOM     11  C   UNL     1       0.065   7.390   7.654  0.00  0.00    +0.191 C 
ATOM     12  C   UNL     1       1.421   7.887   7.093  0.00  0.00    +0.191 C 
ATOM     13  O   UNL     1       1.667   6.934   6.031  0.00  0.00    -0.346 OA
ATOM     14  H   UNL     1       1.105   7.234   0.810  0.00  0.00    +0.151 HD
ENDROOT
BRANCH   1  15
ATOM     15  C   UNL     1       1.109   5.801  -0.756  0.00  0.00    +0.141 C 
BRANCH  15  17
ATOM     16  C   UNL     1       2.276   7.530  -2.138  0.00  0.00    +0.054 A 
ATOM     17  C   UNL     1       1.087   6.977  -1.697  0.00  0.00    -0.026 A 
ATOM     18  C   UNL     1      -0.120   7.501  -2.118  0.00  0.00    +0.024 A 
ATOM     19  C   UNL     1      -0.145   8.581  -2.982  0.00  0.00    +0.064 A 
ATOM     20  C   UNL     1       1.042   9.140  -3.428  0.00  0.00    +0.180 A 
ATOM     21  C   UNL     1       2.259   8.612  -3.003  0.00  0.00    +0.168 A 
ATOM     22  O   UNL     1       3.269   9.328  -3.576  0.00  0.00    -0.453 OA
ATOM     23  C   UNL     1       2.664  10.038  -4.673  0.00  0.00    +0.466 C 
ATOM     24  O   UNL     1       1.291  10.188  -4.267  0.00  0.00    -0.451 OA
ATOM     25 BR   UNL     1      -1.800   9.295  -3.556  0.00  0.00    -0.046 Br
ENDBRANCH  15  17
ENDBRANCH   1  15
TORSDOF 2
