REMARK  Name = ZINC40560395
REMARK  5 active torsions:
REMARK  status: ('A' for Active; 'I' for Inactive)
REMARK    1  A    between atoms: C_1  and  C_2
REMARK    2  A    between atoms: C_2  and  C_4
REMARK    3  A    between atoms: C_2  and  N_8
REMARK    4  A    between atoms: C_4  and  C_5
REMARK    5  A    between atoms: N_11  and  C_12
REMARK                            x       y       z     vdW  Elec       q    Type
REMARK                         _______ _______ _______ _____ _____    ______ ____
ROOT
ATOM      1  N   UNL     1       0.657   0.174  -2.294  0.00  0.00    -0.296 N 
ATOM      2  C   UNL     1       2.003   0.151  -2.239  0.00  0.00    +0.304 C 
ATOM      3  O   UNL     1       2.624   1.189  -2.114  0.00  0.00    -0.252 OA
ATOM      4  N   UNL     1       2.662  -1.022  -2.324  0.00  0.00    -0.266 N 
ATOM      5  H   UNL     1       0.162  -0.654  -2.394  0.00  0.00    +0.151 HD
ATOM      6  H   UNL     1       2.166  -1.855  -2.351  0.00  0.00    +0.156 HD
ENDROOT
BRANCH   4   7
ATOM      7  C   UNL     1       4.063  -1.037  -2.373  0.00  0.00    +0.084 A 
ATOM      8  C   UNL     1       4.801  -1.020  -1.194  0.00  0.00    +0.148 A 
ATOM      9  C   UNL     1       6.183  -1.036  -1.246  0.00  0.00    +0.078 A 
ATOM     10  C   UNL     1       6.831  -1.069  -2.469  0.00  0.00    +0.127 A 
ATOM     11  C   UNL     1       6.098  -1.086  -3.643  0.00  0.00    +0.055 A 
ATOM     12  C   UNL     1       4.716  -1.076  -3.597  0.00  0.00    +0.045 A 
ATOM     13 BR   UNL     1       3.716  -1.107  -5.202  0.00  0.00    -0.048 Br
ATOM     14  F   UNL     1       8.181  -1.085  -2.517  0.00  0.00    -0.205 F 
ATOM     15  F   UNL     1       4.169  -0.987  -0.001  0.00  0.00    -0.203 F 
ENDBRANCH   4   7
BRANCH   1  17
ATOM     16  C   UNL     1      -0.138   2.090  -3.588  0.00  0.00    +0.028 C 
ATOM     17  C   UNL     1      -0.059   1.449  -2.202  0.00  0.00    +0.082 C 
BRANCH  17  18
ATOM     18  C   UNL     1      -1.473   1.203  -1.671  0.00  0.00    +0.147 C 
BRANCH  18  19
ATOM     19  C   UNL     1      -1.396   0.686  -0.258  0.00  0.00    +0.358 C 
ATOM     20  O   UNL     1      -0.312   0.528   0.276  0.00  0.00    -0.246 OA
ATOM     21  O   UNL     1      -2.420   0.425   0.351  0.00  0.00    -0.246 OA
ENDBRANCH  18  19
ENDBRANCH  17  18
ENDBRANCH   1  17
TORSDOF 4
