REMARK  Name = ZINC13140864
REMARK  4 active torsions:
REMARK  status: ('A' for Active; 'I' for Inactive)
REMARK    1  A    between atoms: C_5  and  S_7
REMARK    2  A    between atoms: S_7  and  N_10
REMARK    3  A    between atoms: C_23  and  C_25
REMARK    4  A    between atoms: C_25  and  N_65
REMARK                            x       y       z     vdW  Elec       q    Type
REMARK                         _______ _______ _______ _____ _____    ______ ____
ROOT
ATOM      1  N   UNL     1       7.941  -3.824  -1.239  0.00  0.00    -0.174 NA
ATOM      2  C   UNL     1       8.386  -3.749   0.161  0.00  0.00    +0.128 C 
ATOM      3  C   UNL     1       7.389  -2.886   0.943  0.00  0.00    +0.123 C 
ATOM      4  N   UNL     1       7.235  -1.590   0.270  0.00  0.00    -0.312 N 
ATOM      5  C   UNL     1       6.667  -1.751  -1.075  0.00  0.00    +0.123 C 
ATOM      6  C   UNL     1       7.634  -2.567  -1.940  0.00  0.00    +0.128 C 
ATOM      7  C   UNL     1       6.470  -0.724   1.030  0.00  0.00    +0.133 A 
ATOM      8  C   UNL     1       7.028   0.486   1.528  0.00  0.00    +0.051 A 
ATOM      9  C   UNL     1       8.394   1.004   1.350  0.00  0.00    -0.025 A 
ATOM     10  C   UNL     1       8.674   2.186   1.923  0.00  0.00    -0.004 A 
ATOM     11  S   UNL     1       7.166   2.679   2.728  0.00  0.00    -0.073 S 
ATOM     12  C   UNL     1       6.159   1.289   2.288  0.00  0.00    +0.114 A 
ATOM     13  N   UNL     1       4.910   0.928   2.517  0.00  0.00    -0.227 NA
ATOM     14  C   UNL     1       4.447  -0.207   2.031  0.00  0.00    +0.116 A 
ATOM     15  N   UNL     1       5.209  -1.012   1.312  0.00  0.00    -0.219 NA
ATOM     16  C   UNL     1      10.094   2.617   1.672  0.00  0.00    +0.043 C 
ATOM     17  C   UNL     1      10.560   1.744   0.486  0.00  0.00    +0.010 C 
ATOM     18  C   UNL     1       9.652   0.507   0.633  0.00  0.00    +0.037 C 
ENDROOT
BRANCH   1  19
ATOM     19  S   UNL     1       7.790  -5.284  -2.006  0.00  0.00    +0.061 S 
ATOM     20  O   UNL     1       7.906  -5.024  -3.399  0.00  0.00    -0.153 OA
ATOM     21  O   UNL     1       8.648  -6.190  -1.326  0.00  0.00    -0.153 OA
BRANCH  19  26
ATOM     22  C   UNL     1       4.563  -7.073  -0.416  0.00  0.00    +0.005 A 
ATOM     23  C   UNL     1       3.559  -6.735  -1.304  0.00  0.00    +0.038 A 
ATOM     24  C   UNL     1       3.847  -5.952  -2.409  0.00  0.00    +0.125 A 
ATOM     25  C   UNL     1       5.141  -5.508  -2.623  0.00  0.00    +0.066 A 
ATOM     26  C   UNL     1       6.143  -5.848  -1.734  0.00  0.00    +0.108 A 
ATOM     27  C   UNL     1       5.855  -6.634  -0.634  0.00  0.00    +0.029 A 
ATOM     28  F   UNL     1       2.867  -5.622  -3.278  0.00  0.00    -0.205 F 
ENDBRANCH  19  26
ENDBRANCH   1  19
BRANCH  14  29
ATOM     29  C   UNL     1       3.018  -0.597   2.307  0.00  0.00    -0.001 C 
BRANCH  29  35
ATOM     30  C   UNL     1       0.796  -0.621   1.347  0.00  0.00    -0.078 C 
ATOM     31  C   UNL     1      -0.035  -0.163   0.146  0.00  0.00    -0.019 C 
ATOM     32  C   UNL     1      -0.088   1.367   0.122  0.00  0.00    -0.004 C 
ATOM     33  C   UNL     1       1.339   1.919   0.065  0.00  0.00    -0.019 C 
ATOM     34  C   UNL     1       2.130   1.401   1.268  0.00  0.00    -0.078 C 
ATOM     35  N   UNL     1       2.164  -0.076   1.219  0.00  0.00    +0.384 N 
ATOM     36  H   UNL     1       2.557  -0.370   0.317  0.00  0.00    -0.081 HD
ENDBRANCH  29  35
ENDBRANCH  14  29
TORSDOF 4
