REMARK  Name = ZINC66170283
REMARK  13 active torsions:
REMARK  status: ('A' for Active; 'I' for Inactive)
REMARK    1  A    between atoms: C_1  and  C_2
REMARK    2  A    between atoms: C_2  and  C_3
REMARK    3  A    between atoms: C_2  and  C_4
REMARK    4  A    between atoms: C_4  and  C_5
REMARK    5  A    between atoms: C_5  and  O_6
REMARK    6  A    between atoms: O_6  and  C_7
REMARK    7  A    between atoms: C_10  and  C_13
REMARK    8  A    between atoms: C_13  and  N_14
REMARK    9  A    between atoms: N_14  and  C_15
REMARK   10  A    between atoms: C_18  and  O_21
REMARK   11  A    between atoms: O_21  and  C_22
REMARK   12  A    between atoms: C_22  and  C_23
REMARK   13  A    between atoms: C_23  and  C_24
REMARK                            x       y       z     vdW  Elec       q    Type
REMARK                         _______ _______ _______ _____ _____    ______ ____
ROOT
ATOM      1  N   UNL     1       9.128  -0.387  -2.257  0.00  0.00    -0.340 N 
ATOM      2  H   UNL     1       8.685  -1.155  -1.864  0.00  0.00    +0.146 HD
ENDROOT
BRANCH   1   3
ATOM      3  C   UNL     1      10.525  -0.306  -2.254  0.00  0.00    +0.028 A 
ATOM      4  C   UNL     1      11.159   0.796  -2.812  0.00  0.00    +0.026 A 
ATOM      5  C   UNL     1      12.538   0.874  -2.808  0.00  0.00    +0.047 A 
ATOM      6  C   UNL     1      13.289  -0.148  -2.248  0.00  0.00    +0.121 A 
ATOM      7  C   UNL     1      12.657  -1.249  -1.691  0.00  0.00    +0.047 A 
ATOM      8  C   UNL     1      11.278  -1.327  -1.688  0.00  0.00    +0.026 A 
BRANCH   6   9
ATOM      9  O   UNL     1      14.647  -0.070  -2.244  0.00  0.00    -0.492 OA
BRANCH   9  10
ATOM     10  C   UNL     1      15.358  -1.157  -1.650  0.00  0.00    +0.229 C 
BRANCH  10  11
ATOM     11  C   UNL     1      16.862  -0.893  -1.740  0.00  0.00    +0.044 C 
BRANCH  11  12
ATOM     12  C   UNL     1      17.624  -2.058  -1.104  0.00  0.00    -0.008 C 
ATOM     13  C   UNL     1      17.387  -3.329  -1.922  0.00  0.00    +0.003 C 
ATOM     14  C   UNL     1      18.148  -4.494  -1.286  0.00  0.00    +0.000 C 
ATOM     15  C   UNL     1      19.644  -4.174  -1.263  0.00  0.00    +0.000 C 
ATOM     16  C   UNL     1      19.881  -2.903  -0.445  0.00  0.00    +0.000 C 
ATOM     17  C   UNL     1      19.120  -1.738  -1.081  0.00  0.00    +0.003 C 
ENDBRANCH  11  12
ENDBRANCH  10  11
ENDBRANCH   9  10
ENDBRANCH   6   9
ENDBRANCH   1   3
BRANCH   1  18
ATOM     18  C   UNL     1       8.334   0.690  -2.854  0.00  0.00    +0.137 C 
BRANCH  18  22
ATOM     19  C   UNL     1       4.178  -0.238  -2.497  0.00  0.00    +0.121 A 
ATOM     20  C   UNL     1       4.819   0.475  -1.495  0.00  0.00    +0.046 A 
ATOM     21  C   UNL     1       6.163   0.774  -1.613  0.00  0.00    +0.009 A 
ATOM     22  C   UNL     1       6.868   0.362  -2.728  0.00  0.00    -0.030 A 
ATOM     23  C   UNL     1       6.231  -0.349  -3.728  0.00  0.00    +0.009 A 
ATOM     24  C   UNL     1       4.889  -0.655  -3.612  0.00  0.00    +0.046 A 
BRANCH  19  25
ATOM     25  O   UNL     1       2.856  -0.534  -2.383  0.00  0.00    -0.492 OA
BRANCH  25  26
ATOM     26  C   UNL     1       2.187  -0.073  -1.207  0.00  0.00    +0.229 C 
BRANCH  26  27
ATOM     27  C   UNL     1       0.718  -0.497  -1.257  0.00  0.00    +0.044 C 
BRANCH  27  29
ATOM     28  C   UNL     1      -0.019   1.526   0.010  0.00  0.00    +0.007 C 
ATOM     29  C   UNL     1       0.002  -0.004   0.002  0.00  0.00    -0.014 C 
ATOM     30  C   UNL     1      -1.433  -0.534   0.013  0.00  0.00    +0.007 C 
ENDBRANCH  27  29
ENDBRANCH  26  27
ENDBRANCH  25  26
ENDBRANCH  19  25
ENDBRANCH  18  22
ENDBRANCH   1  18
TORSDOF 11
