REMARK  Name = ZINC49400229
REMARK  5 active torsions:
REMARK  status: ('A' for Active; 'I' for Inactive)
REMARK    1  A    between atoms: C_1  and  C_2
REMARK    2  A    between atoms: C_5  and  C_32
REMARK    3  A    between atoms: N_13  and  C_20
REMARK    4  A    between atoms: C_20  and  C_21
REMARK    5  A    between atoms: N_23  and  C_24
REMARK                            x       y       z     vdW  Elec       q    Type
REMARK                         _______ _______ _______ _____ _____    ______ ____
ROOT
ATOM      1  C   UNL     1      -3.038  -2.487   2.090  0.00  0.00    +0.009 C 
ATOM      2  C   UNL     1      -1.612  -1.958   2.257  0.00  0.00    +0.004 C 
ATOM      3  C   UNL     1      -1.613  -0.434   2.114  0.00  0.00    +0.009 C 
ATOM      4  C   UNL     1      -0.192   0.100   2.314  0.00  0.00    +0.004 C 
ATOM      5  C   UNL     1       0.725  -0.487   1.236  0.00  0.00    +0.110 C 
ATOM      6  N   UNL     1       0.620  -1.952   1.271  0.00  0.00    -0.312 N 
ATOM      7  C   UNL     1      -0.711  -2.568   1.179  0.00  0.00    +0.110 C 
ATOM      8  C   UNL     1       1.753  -2.737   1.389  0.00  0.00    +0.167 A 
ATOM      9  C   UNL     1       3.089  -2.129   1.363  0.00  0.00    +0.202 A 
ATOM     10  N   UNL     1       3.511  -0.898   1.242  0.00  0.00    -0.145 NA
ATOM     11  N   UNL     1       4.913  -0.916   1.285  0.00  0.00    -0.203 N 
ATOM     12  C   UNL     1       5.299  -2.201   1.436  0.00  0.00    +0.352 A 
ATOM     13  O   UNL     1       6.448  -2.600   1.513  0.00  0.00    -0.244 OA
ATOM     14  N   UNL     1       4.191  -2.961   1.485  0.00  0.00    -0.247 N 
ATOM     15  C   UNL     1       3.982  -4.319   1.626  0.00  0.00    +0.117 A 
ATOM     16  C   UNL     1       2.739  -4.818   1.643  0.00  0.00    +0.131 A 
ATOM     17  N   UNL     1       1.651  -4.042   1.532  0.00  0.00    -0.235 NA
ATOM     18  C   UNL     1      -0.200   1.626   2.204  0.00  0.00    +0.009 C 
ENDROOT
BRANCH  11  19
ATOM     19  C   UNL     1       5.797   0.247   1.185  0.00  0.00    +0.244 C 
BRANCH  19  20
ATOM     20  C   UNL     1       6.141   0.494  -0.261  0.00  0.00    +0.239 C 
ATOM     21  O   UNL     1       5.692  -0.231  -1.123  0.00  0.00    -0.273 OA
ATOM     22  N   UNL     1       6.949   1.520  -0.596  0.00  0.00    -0.284 N 
ATOM     23  H   UNL     1       7.371   2.051   0.097  0.00  0.00    +0.155 HD
BRANCH  22  24
ATOM     24  C   UNL     1       7.177   1.819  -1.944  0.00  0.00    +0.035 A 
ATOM     25  C   UNL     1       8.420   2.285  -2.352  0.00  0.00    +0.025 A 
ATOM     26  C   UNL     1       8.644   2.579  -3.683  0.00  0.00    +0.023 A 
ATOM     27  C   UNL     1       7.631   2.410  -4.610  0.00  0.00    +0.059 A 
ATOM     28  C   UNL     1       6.390   1.946  -4.207  0.00  0.00    +0.061 A 
ATOM     29  C   UNL     1       6.163   1.645  -2.877  0.00  0.00    +0.044 A 
ATOM     30 CL   UNL     1       5.121   1.736  -5.372  0.00  0.00    -0.082 Cl
ATOM     31 CL   UNL     1       7.916   2.781  -6.282  0.00  0.00    -0.082 Cl
ENDBRANCH  22  24
ENDBRANCH  19  20
ENDBRANCH  11  19
TORSDOF 3
