REMARK  Name = ZINC03214509
REMARK  7 active torsions:
REMARK  status: ('A' for Active; 'I' for Inactive)
REMARK    1  A    between atoms: C_4  and  N_7
REMARK    2  A    between atoms: C_9  and  C_19
REMARK    3  A    between atoms: C_10  and  C_12
REMARK    4  A    between atoms: N_21  and  C_22
REMARK    5  A    between atoms: C_22  and  N_24
REMARK    6  A    between atoms: N_24  and  N_25
REMARK    7  A    between atoms: C_26  and  C_28
REMARK                            x       y       z     vdW  Elec       q    Type
REMARK                         _______ _______ _______ _____ _____    ______ ____
ROOT
ATOM      1  N   UNL     1       3.727  -0.506   0.105  0.00  0.00    -0.239 N 
ATOM      2  C   UNL     1       3.662  -1.849   0.134  0.00  0.00    +0.128 A 
ATOM      3  C   UNL     1       4.932  -2.338  -0.100  0.00  0.00    +0.083 A 
ATOM      4  C   UNL     1       5.800  -1.169  -0.277  0.00  0.00    +0.105 A 
ATOM      5  N   UNL     1       5.040  -0.104  -0.152  0.00  0.00    -0.166 NA
ENDROOT
BRANCH   4   6
ATOM      6  C   UNL     1       7.257  -1.187  -0.551  0.00  0.00    +0.003 A 
ATOM      7  C   UNL     1       7.781  -2.071  -1.492  0.00  0.00    +0.011 A 
ATOM      8  C   UNL     1       9.138  -2.083  -1.744  0.00  0.00    +0.016 A 
ATOM      9  C   UNL     1       9.977  -1.218  -1.064  0.00  0.00    +0.018 A 
ATOM     10  C   UNL     1       9.462  -0.338  -0.128  0.00  0.00    +0.016 A 
ATOM     11  C   UNL     1       8.106  -0.314   0.127  0.00  0.00    +0.011 A 
ATOM     12 BR   UNL     1      11.836  -1.239  -1.414  0.00  0.00    -0.050 Br
ENDBRANCH   4   6
BRANCH   1  16
ATOM     13  C   UNL     1       0.497   2.065   0.679  0.00  0.00    +0.000 A 
ATOM     14  C   UNL     1       1.756   2.582   0.431  0.00  0.00    +0.002 A 
ATOM     15  C   UNL     1       2.828   1.733   0.241  0.00  0.00    +0.028 A 
ATOM     16  C   UNL     1       2.641   0.358   0.298  0.00  0.00    +0.065 A 
ATOM     17  C   UNL     1       1.377  -0.158   0.547  0.00  0.00    +0.028 A 
ATOM     18  C   UNL     1       0.308   0.696   0.737  0.00  0.00    +0.002 A 
ENDBRANCH   1  16
BRANCH   3  19
ATOM     19  C   UNL     1       5.334  -3.753  -0.158  0.00  0.00    +0.253 C 
ATOM     20  O   UNL     1       6.509  -4.046  -0.270  0.00  0.00    -0.270 OA
ATOM     21  N   UNL     1       4.401  -4.723  -0.088  0.00  0.00    -0.263 N 
ATOM     22  H   UNL     1       3.464  -4.489   0.001  0.00  0.00    +0.157 HD
BRANCH  21  23
ATOM     23  C   UNL     1       4.770  -6.018  -0.142  0.00  0.00    +0.153 C 
ATOM     24  S   UNL     1       6.424  -6.431  -0.299  0.00  0.00    -0.017 S 
BRANCH  23  25
ATOM     25  N   UNL     1       3.837  -6.988  -0.072  0.00  0.00    -0.245 N 
ATOM     26  H   UNL     1       4.102  -7.920  -0.111  0.00  0.00    +0.172 HD
BRANCH  25  27
ATOM     27  N   UNL     1       2.483  -6.649   0.057  0.00  0.00    -0.231 N 
ATOM     28  C   UNL     1       1.550  -7.619   0.127  0.00  0.00    +0.260 C 
ATOM     29  O   UNL     1       1.882  -8.787   0.078  0.00  0.00    -0.269 OA
ATOM     30  H   UNL     1       2.218  -5.717   0.095  0.00  0.00    +0.173 HD
BRANCH  28  31
ATOM     31  C   UNL     1       0.119  -7.261   0.263  0.00  0.00    +0.041 A 
ATOM     32  C   UNL     1      -0.286  -5.924   0.315  0.00  0.00    +0.033 A 
ATOM     33  C   UNL     1      -1.631  -5.636   0.442  0.00  0.00    +0.111 A 
ATOM     34  N   UNL     1      -2.526  -6.601   0.513  0.00  0.00    -0.263 NA
ATOM     35  C   UNL     1      -2.188  -7.874   0.468  0.00  0.00    +0.111 A 
ATOM     36  C   UNL     1      -0.866  -8.252   0.337  0.00  0.00    +0.033 A 
ENDBRANCH  28  31
ENDBRANCH  25  27
ENDBRANCH  23  25
ENDBRANCH  21  23
ENDBRANCH   3  19
TORSDOF 7
