REMARK  Name = ZINC65964404
REMARK  5 active torsions:
REMARK  status: ('A' for Active; 'I' for Inactive)
REMARK    1  A    between atoms: C_3  and  N_8
REMARK    2  A    between atoms: C_9  and  C_11
REMARK    3  A    between atoms: C_11  and  N_12
REMARK    4  A    between atoms: C_15  and  C_18
REMARK    5  A    between atoms: N_20  and  C_21
REMARK                            x       y       z     vdW  Elec       q    Type
REMARK                         _______ _______ _______ _____ _____    ______ ____
ROOT
ATOM      1  N   UNL     1       4.716   5.510  -0.328  0.00  0.00    +0.385 N 
ATOM      2  C   UNL     1       4.122   5.985   0.928  0.00  0.00    -0.077 C 
ATOM      3  C   UNL     1       3.802   7.476   0.812  0.00  0.00    -0.006 C 
ATOM      4  C   UNL     1       5.093   8.250   0.531  0.00  0.00    +0.071 C 
ATOM      5  C   UNL     1       5.742   7.696  -0.740  0.00  0.00    -0.006 C 
ATOM      6  C   UNL     1       5.991   6.196  -0.567  0.00  0.00    -0.077 C 
ATOM      7  H   UNL     1       4.083   5.701  -1.090  0.00  0.00    -0.081 HD
ENDROOT
BRANCH   4   8
ATOM      8  C   UNL     1       4.774   9.710   0.339  0.00  0.00    +0.216 C 
ATOM      9  O   UNL     1       3.627  10.096   0.418  0.00  0.00    -0.276 OA
ATOM     10  N   UNL     1       5.763  10.588   0.078  0.00  0.00    -0.312 N 
ATOM     11  H   UNL     1       6.681  10.279   0.015  0.00  0.00    +0.149 HD
BRANCH  10  12
ATOM     12  C   UNL     1       5.453  12.007  -0.109  0.00  0.00    +0.073 C 
ATOM     13  C   UNL     1       5.051  12.254  -1.564  0.00  0.00    +0.022 C 
ATOM     14  C   UNL     1       4.727  13.736  -1.760  0.00  0.00    +0.002 C 
ATOM     15  C   UNL     1       5.960  14.576  -1.422  0.00  0.00    +0.000 C 
ATOM     16  C   UNL     1       6.363  14.330   0.033  0.00  0.00    +0.002 C 
ATOM     17  C   UNL     1       6.687  12.848   0.229  0.00  0.00    +0.022 C 
ENDBRANCH  10  12
ENDBRANCH   4   8
BRANCH   1  18
ATOM     18  C   UNL     1       4.950   4.062  -0.240  0.00  0.00    +0.019 C 
BRANCH  18  20
ATOM     19  N   UNL     1       3.597   2.002  -0.022  0.00  0.00    -0.272 N 
ATOM     20  C   UNL     1       3.629   3.346  -0.117  0.00  0.00    +0.202 C 
ATOM     21  O   UNL     1       2.595   3.980  -0.104  0.00  0.00    -0.278 OA
ATOM     22  H   UNL     1       4.425   1.501   0.042  0.00  0.00    +0.156 HD
BRANCH  19  25
ATOM     23  C   UNL     1       1.130  -0.710  -0.017  0.00  0.00    +0.025 A 
ATOM     24  C   UNL     1       2.350  -0.057  -0.024  0.00  0.00    +0.045 A 
ATOM     25  C   UNL     1       2.374   1.332  -0.015  0.00  0.00    +0.125 A 
ATOM     26  N   UNL     1       1.247   2.026  -0.000  0.00  0.00    -0.239 NA
ATOM     27  C   UNL     1       0.069   1.433   0.007  0.00  0.00    +0.132 A 
ATOM     28  C   UNL     1      -0.030   0.054  -0.001  0.00  0.00    +0.059 A 
ATOM     29 CL   UNL     1      -1.587  -0.714   0.009  0.00  0.00    -0.082 Cl
ENDBRANCH  19  25
ENDBRANCH  18  20
ENDBRANCH   1  18
TORSDOF 5
