REMARK  Name = ZINC04257666
REMARK  5 active torsions:
REMARK  status: ('A' for Active; 'I' for Inactive)
REMARK    1  A    between atoms: C_1  and  C_2
REMARK    2  A    between atoms: C_2  and  O_3
REMARK    3  A    between atoms: O_3  and  C_4
REMARK    4  A    between atoms: C_8  and  C_11
REMARK    5  A    between atoms: C_9  and  O_10
REMARK                            x       y       z     vdW  Elec       q    Type
REMARK                         _______ _______ _______ _____ _____    ______ ____
ROOT
ATOM      1  C   UNL     1      -3.685   1.307  -0.764  0.00  0.00    +0.163 A 
ATOM      2  C   UNL     1      -4.045   2.407  -0.001  0.00  0.00    +0.065 A 
ATOM      3  C   UNL     1      -3.098   3.071   0.762  0.00  0.00    +0.036 A 
ATOM      4  C   UNL     1      -1.786   2.644   0.770  0.00  0.00    +0.043 A 
ATOM      5  C   UNL     1      -1.407   1.534   0.004  0.00  0.00    +0.036 A 
ATOM      6  C   UNL     1      -2.367   0.867  -0.772  0.00  0.00    +0.167 A 
ATOM      7 BR   UNL     1      -0.501   3.557   1.815  0.00  0.00    -0.048 Br
ATOM      8 BR   UNL     1      -3.607   4.569   1.797  0.00  0.00    -0.049 Br
ENDROOT
BRANCH   5   9
ATOM      9  C   UNL     1      -0.013   1.076   0.008  0.00  0.00    +0.033 C 
ATOM     10  C   UNL     1       0.690   1.029  -1.152  0.00  0.00    +0.078 C 
ATOM     11  C   UNL     1       0.311   1.507  -2.495  0.00  0.00    +0.256 C 
ATOM     12  O   UNL     1      -0.766   2.035  -2.702  0.00  0.00    -0.269 OA
ATOM     13  N   UNL     1       1.194   1.337  -3.465  0.00  0.00    -0.261 N 
ATOM     14  C   UNL     1       2.410   0.736  -3.209  0.00  0.00    +0.158 C 
ATOM     15  N   UNL     1       3.385   0.492  -4.040  0.00  0.00    -0.279 NA
ATOM     16  S   UNL     1       2.326   0.380  -1.461  0.00  0.00    -0.049 S 
ATOM     17  H   UNL     1       0.985   1.636  -4.363  0.00  0.00    +0.157 HD
ATOM     18  H   UNL     1       4.194   0.059  -3.725  0.00  0.00    +0.189 HD
ENDBRANCH   5   9
BRANCH   6  19
ATOM     19  O   UNL     1      -2.011  -0.207  -1.524  0.00  0.00    -0.503 OA
ATOM     20  H   UNL     1      -2.085  -1.053  -1.061  0.00  0.00    +0.292 HD
ENDBRANCH   6  19
BRANCH   1  21
ATOM     21  O   UNL     1      -4.622   0.661  -1.510  0.00  0.00    -0.489 OA
BRANCH  21  23
ATOM     22  C   UNL     1      -6.860   0.322  -2.354  0.00  0.00    +0.048 C 
ATOM     23  C   UNL     1      -5.955   1.171  -1.459  0.00  0.00    +0.226 C 
ENDBRANCH  21  23
ENDBRANCH   1  21
TORSDOF 4
