REMARK  Name = ZINC19171409
REMARK  2 active torsions:
REMARK  status: ('A' for Active; 'I' for Inactive)
REMARK    1  A    between atoms: C_6  and  C_7
REMARK    2  A    between atoms: N_15  and  C_18
REMARK                            x       y       z     vdW  Elec       q    Type
REMARK                         _______ _______ _______ _____ _____    ______ ____
ROOT
ATOM      1  C   UNL     1      -1.292  -0.827   0.058  0.00  0.00    +0.117 C 
ATOM      2  C   UNL     1      -1.604  -1.304  -1.377  0.00  0.00    +0.126 C 
ATOM      3  C   UNL     1      -2.217  -2.716  -1.189  0.00  0.00    +0.173 C 
ATOM      4  C   UNL     1      -1.196  -3.629  -1.830  0.00  0.00    +0.246 C 
ATOM      5  O   UNL     1      -1.284  -4.835  -1.905  0.00  0.00    -0.273 OA
ATOM      6  N   UNL     1      -0.181  -2.896  -2.302  0.00  0.00    -0.209 N 
ATOM      7  C   UNL     1      -0.306  -1.562  -2.108  0.00  0.00    +0.233 C 
ATOM      8  O   UNL     1       0.484  -0.710  -2.455  0.00  0.00    -0.274 OA
ATOM      9  N   UNL     1      -2.253  -2.949   0.270  0.00  0.00    -0.227 NA
ATOM     10  N   UNL     1      -1.196  -2.082   0.843  0.00  0.00    -0.231 NA
ATOM     11  C   UNL     1      -1.632  -1.830   2.237  0.00  0.00    +0.104 C 
ATOM     12  C   UNL     1      -3.170  -1.728   2.135  0.00  0.00    +0.034 C 
ATOM     13  C   UNL     1      -3.539  -2.473   0.823  0.00  0.00    +0.104 C 
ENDROOT
BRANCH   6  14
ATOM     14  C   UNL     1       0.925  -3.462  -2.954  0.00  0.00    +0.045 A 
ATOM     15  C   UNL     1       1.137  -3.217  -4.304  0.00  0.00    +0.025 A 
ATOM     16  C   UNL     1       2.226  -3.775  -4.943  0.00  0.00    +0.023 A 
ATOM     17  C   UNL     1       3.107  -4.578  -4.240  0.00  0.00    +0.059 A 
ATOM     18  C   UNL     1       2.898  -4.824  -2.893  0.00  0.00    +0.061 A 
ATOM     19  C   UNL     1       1.812  -4.263  -2.248  0.00  0.00    +0.045 A 
ATOM     20 CL   UNL     1       4.004  -5.832  -2.014  0.00  0.00    -0.082 Cl
ATOM     21 CL   UNL     1       4.475  -5.279  -5.047  0.00  0.00    -0.082 Cl
ENDBRANCH   6  14
BRANCH   1  27
ATOM     22  C   UNL     1       0.023   1.301   0.144  0.00  0.00    +0.006 A 
ATOM     23  C   UNL     1       1.223   1.987   0.176  0.00  0.00    +0.020 A 
ATOM     24  C   UNL     1       2.418   1.290   0.159  0.00  0.00    +0.041 A 
ATOM     25  C   UNL     1       2.411  -0.093   0.109  0.00  0.00    +0.020 A 
ATOM     26  C   UNL     1       1.211  -0.777   0.076  0.00  0.00    +0.006 A 
ATOM     27  C   UNL     1       0.017  -0.080   0.093  0.00  0.00    -0.028 A 
ATOM     28 CL   UNL     1       3.925   2.150   0.200  0.00  0.00    -0.084 Cl
ENDBRANCH   1  27
TORSDOF 2
