REMARK  Name = ZINC58549993
REMARK  8 active torsions:
REMARK  status: ('A' for Active; 'I' for Inactive)
REMARK    1  A    between atoms: C_1  and  C_2
REMARK    2  A    between atoms: C_3  and  C_28
REMARK    3  A    between atoms: C_7  and  N_27
REMARK    4  A    between atoms: C_9  and  C_11
REMARK    5  A    between atoms: C_11  and  C_13
REMARK    6  A    between atoms: C_11  and  S_14
REMARK    7  A    between atoms: S_14  and  C_15
REMARK    8  A    between atoms: N_25  and  C_26
REMARK                            x       y       z     vdW  Elec       q    Type
REMARK                         _______ _______ _______ _____ _____    ______ ____
ROOT
ATOM      1  C   UNL     1       1.873  -3.273   3.958  0.00  0.00    +0.119 C 
ATOM      2  C   UNL     1       1.216  -3.436   5.330  0.00  0.00    +0.028 C 
ENDROOT
BRANCH   1  11
ATOM      3  C   UNL     1      -1.596   1.384   0.669  0.00  0.00    +0.045 C 
ATOM      4  C   UNL     1      -1.424  -0.111   0.597  0.00  0.00    -0.028 A 
ATOM      5  C   UNL     1      -2.079  -0.826  -0.330  0.00  0.00    -0.008 A 
ATOM      6  S   UNL     1      -1.557  -2.500  -0.011  0.00  0.00    -0.074 S 
ATOM      7  C   UNL     1      -0.472  -2.195   1.358  0.00  0.00    +0.114 A 
ATOM      8  C   UNL     1      -0.541  -0.794   1.526  0.00  0.00    +0.050 A 
ATOM      9  C   UNL     1       0.255  -0.267   2.579  0.00  0.00    +0.128 A 
ATOM     10  N   UNL     1       0.991  -1.091   3.307  0.00  0.00    -0.216 NA
ATOM     11  C   UNL     1       1.012  -2.394   3.089  0.00  0.00    +0.145 A 
ATOM     12  N   UNL     1       0.286  -2.944   2.134  0.00  0.00    -0.224 NA
ATOM     13  C   UNL     1      -3.032  -0.331  -1.388  0.00  0.00    +0.052 C 
BRANCH   9  14
ATOM     14  N   UNL     1       0.262   1.092   2.839  0.00  0.00    -0.343 N 
ATOM     15  H   UNL     1       0.110   1.724   2.119  0.00  0.00    +0.144 HD
ATOM     16  H   UNL     1       0.418   1.412   3.741  0.00  0.00    +0.144 HD
ENDBRANCH   9  14
ENDBRANCH   1  11
BRANCH   1  17
ATOM     17  S   UNL     1       3.507  -2.511   4.157  0.00  0.00    -0.077 S 
BRANCH  17  18
ATOM     18  C   UNL     1       4.431  -3.711   5.059  0.00  0.00    +0.173 A 
ATOM     19  N   UNL     1       3.841  -4.833   5.390  0.00  0.00    -0.223 NA
ATOM     20  C   UNL     1       4.487  -5.794   6.080  0.00  0.00    +0.079 A 
ATOM     21  C   UNL     1       3.858  -6.991   6.434  0.00  0.00    +0.028 A 
ATOM     22  C   UNL     1       4.551  -7.939   7.132  0.00  0.00    +0.002 A 
ATOM     23  C   UNL     1       5.874  -7.731   7.499  0.00  0.00    +0.001 A 
ATOM     24  C   UNL     1       6.517  -6.570   7.167  0.00  0.00    +0.015 A 
ATOM     25  C   UNL     1       5.834  -5.586   6.454  0.00  0.00    +0.065 A 
ATOM     26  C   UNL     1       6.474  -4.321   6.071  0.00  0.00    +0.262 A 
ATOM     27  O   UNL     1       7.631  -4.084   6.363  0.00  0.00    -0.267 OA
ATOM     28  N   UNL     1       5.729  -3.430   5.374  0.00  0.00    -0.290 N 
ATOM     29  C   UNL     1       6.319  -2.155   4.961  0.00  0.00    +0.154 C 
ENDBRANCH  17  18
ENDBRANCH   1  17
TORSDOF 4
