REMARK  Name = ZINC12153143
REMARK  11 active torsions:
REMARK  status: ('A' for Active; 'I' for Inactive)
REMARK    1  A    between atoms: C_1  and  C_2
REMARK    2  A    between atoms: C_4  and  O_39
REMARK    3  A    between atoms: C_6  and  O_38
REMARK    4  A    between atoms: C_8  and  O_37
REMARK    5  A    between atoms: C_10  and  O_13
REMARK    6  A    between atoms: O_13  and  C_14
REMARK    7  A    between atoms: C_16  and  C_29
REMARK    8  A    between atoms: C_21  and  O_28
REMARK    9  A    between atoms: C_23  and  O_27
REMARK   10  A    between atoms: C_32  and  O_36
REMARK   11  A    between atoms: C_33  and  O_35
REMARK                            x       y       z     vdW  Elec       q    Type
REMARK                         _______ _______ _______ _____ _____    ______ ____
ROOT
ATOM      1  C   UNL     1      -3.751   3.034  -0.205  0.00  0.00    +0.237 C 
ATOM      2  C   UNL     1      -3.563   1.689   0.511  0.00  0.00    +0.240 C 
ATOM      3  O   UNL     1      -2.383   1.053   0.020  0.00  0.00    -0.480 OA
ATOM      4  C   UNL     1      -1.222   1.749   0.017  0.00  0.00    +0.139 A 
ATOM      5  C   UNL     1      -0.013   1.076   0.008  0.00  0.00    +0.092 A 
ATOM      6  C   UNL     1       1.182   1.784   0.000  0.00  0.00    +0.124 A 
ATOM      7  C   UNL     1       1.182   3.174   0.007  0.00  0.00    +0.091 A 
ATOM      8  C   UNL     1      -0.015   3.867   0.024  0.00  0.00    +0.134 A 
ATOM      9  C   UNL     1      -1.225   3.156   0.036  0.00  0.00    +0.103 A 
ATOM     10  C   UNL     1      -2.510   3.865   0.067  0.00  0.00    +0.203 C 
ATOM     11  O   UNL     1      -2.576   5.055   0.299  0.00  0.00    -0.289 OA
ENDROOT
BRANCH   2  12
ATOM     12  C   UNL     1      -4.756   0.807   0.247  0.00  0.00    -0.001 A 
ATOM     13  C   UNL     1      -4.806   0.039  -0.901  0.00  0.00    +0.011 A 
ATOM     14  C   UNL     1      -5.899  -0.771  -1.148  0.00  0.00    +0.049 A 
ATOM     15  C   UNL     1      -6.947  -0.814  -0.243  0.00  0.00    +0.158 A 
ATOM     16  C   UNL     1      -6.897  -0.041   0.913  0.00  0.00    +0.159 A 
ATOM     17  C   UNL     1      -5.797   0.765   1.157  0.00  0.00    +0.056 A 
BRANCH  16  18
ATOM     18  O   UNL     1      -7.924  -0.081   1.804  0.00  0.00    -0.503 OA
ATOM     19  H   UNL     1      -7.825  -0.756   2.489  0.00  0.00    +0.292 HD
ENDBRANCH  16  18
BRANCH  15  20
ATOM     20  O   UNL     1      -8.023  -1.610  -0.485  0.00  0.00    -0.503 OA
ATOM     21  H   UNL     1      -7.939  -2.505  -0.128  0.00  0.00    +0.292 HD
ENDBRANCH  15  20
ENDBRANCH   2  12
BRANCH   8  22
ATOM     22  O   UNL     1      -0.019   5.223   0.027  0.00  0.00    -0.506 OA
ATOM     23  H   UNL     1      -0.031   5.619  -0.855  0.00  0.00    +0.292 HD
ENDBRANCH   8  22
BRANCH   6  24
ATOM     24  O   UNL     1       2.361   1.113  -0.013  0.00  0.00    -0.507 OA
ATOM     25  H   UNL     1       2.695   0.922  -0.900  0.00  0.00    +0.292 HD
ENDBRANCH   6  24
BRANCH   1  26
ATOM     26  O   UNL     1      -4.905   3.702   0.309  0.00  0.00    -0.333 OA
BRANCH  26  32
ATOM     27  C   UNL     1      -5.493   5.857  -3.189  0.00  0.00    +0.041 C 
ATOM     28  C   UNL     1      -5.165   6.589  -1.887  0.00  0.00    +0.149 C 
ATOM     29  C   UNL     1      -6.437   7.231  -1.327  0.00  0.00    +0.174 C 
ATOM     30  C   UNL     1      -7.452   6.132  -0.999  0.00  0.00    +0.179 C 
ATOM     31  C   UNL     1      -6.818   5.144  -0.015  0.00  0.00    +0.201 C 
ATOM     32  C   UNL     1      -5.532   4.582  -0.626  0.00  0.00    +0.283 C 
ATOM     33  O   UNL     1      -4.644   5.659  -0.935  0.00  0.00    -0.343 OA
BRANCH  31  34
ATOM     34  O   UNL     1      -6.513   5.817   1.208  0.00  0.00    -0.384 OA
ATOM     35  H   UNL     1      -6.103   5.251   1.877  0.00  0.00    +0.210 HD
ENDBRANCH  31  34
BRANCH  30  36
ATOM     36  O   UNL     1      -8.615   6.717  -0.409  0.00  0.00    -0.386 OA
ATOM     37  H   UNL     1      -9.302   6.077  -0.175  0.00  0.00    +0.210 HD
ENDBRANCH  30  36
BRANCH  29  38
ATOM     38  O   UNL     1      -6.991   8.119  -2.299  0.00  0.00    -0.387 OA
ATOM     39  H   UNL     1      -6.399   8.839  -2.558  0.00  0.00    +0.210 HD
ENDBRANCH  29  38
ENDBRANCH  26  32
ENDBRANCH   1  26
TORSDOF 10
