REMARK  Name = ZINC02982519
REMARK  7 active torsions:
REMARK  status: ('A' for Active; 'I' for Inactive)
REMARK    1  A    between atoms: C_1  and  C_2
REMARK    2  A    between atoms: C_4  and  C_18
REMARK    3  A    between atoms: C_5  and  C_17
REMARK    4  A    between atoms: N_6  and  C_7
REMARK    5  A    between atoms: C_9  and  C_15
REMARK    6  A    between atoms: C_11  and  C_13
REMARK    7  A    between atoms: N_25  and  C_28
REMARK                            x       y       z     vdW  Elec       q    Type
REMARK                         _______ _______ _______ _____ _____    ______ ____
ROOT
ATOM      1  C   UNL     1       9.483  -1.907  -0.650  0.00  0.00    +0.064 C 
ATOM      2  C   UNL     1       8.822  -0.558  -0.519  0.00  0.00    +0.022 A 
ATOM      3  C   UNL     1       7.499  -0.346  -0.446  0.00  0.00    +0.031 A 
ATOM      4  C   UNL     1       7.317   1.109  -0.328  0.00  0.00    -0.003 A 
ATOM      5  C   UNL     1       8.594   1.652  -0.346  0.00  0.00    +0.028 A 
ATOM      6  N   UNL     1       9.476   0.641  -0.456  0.00  0.00    -0.317 N 
ATOM      7  C   UNL     1       8.933   3.118  -0.256  0.00  0.00    +0.064 C 
ENDROOT
BRANCH   4   8
ATOM      8  C   UNL     1       6.093   1.810  -0.223  0.00  0.00    +0.028 C 
ATOM      9  C   UNL     1       5.030   1.476  -1.046  0.00  0.00    +0.100 C 
ATOM     10  C   UNL     1       5.192   0.532  -2.167  0.00  0.00    +0.257 C 
ATOM     11  O   UNL     1       6.271   0.019  -2.401  0.00  0.00    -0.270 OA
ATOM     12  N   UNL     1       4.113   0.253  -2.926  0.00  0.00    -0.235 N 
ATOM     13  C   UNL     1       2.918   0.807  -2.677  0.00  0.00    +0.320 C 
ATOM     14  O   UNL     1       1.985   0.509  -3.396  0.00  0.00    -0.251 OA
ATOM     15  N   UNL     1       2.700   1.675  -1.679  0.00  0.00    -0.190 N 
ATOM     16  C   UNL     1       3.687   2.047  -0.839  0.00  0.00    +0.263 C 
ATOM     17  O   UNL     1       3.475   2.833   0.066  0.00  0.00    -0.269 OA
ATOM     18  H   UNL     1       4.202  -0.366  -3.668  0.00  0.00    +0.159 HD
BRANCH  15  19
ATOM     19  C   UNL     1       1.414   2.205  -1.503  0.00  0.00    +0.048 A 
ATOM     20  C   UNL     1       0.684   1.892  -0.363  0.00  0.00    +0.024 A 
ATOM     21  C   UNL     1      -0.583   2.414  -0.191  0.00  0.00    +0.005 A 
ATOM     22  C   UNL     1      -1.125   3.249  -1.150  0.00  0.00    +0.038 A 
ATOM     23  C   UNL     1      -0.399   3.567  -2.286  0.00  0.00    +0.125 A 
ATOM     24  C   UNL     1       0.869   3.042  -2.466  0.00  0.00    +0.062 A 
ATOM     25  F   UNL     1      -0.929   4.386  -3.220  0.00  0.00    -0.205 F 
ENDBRANCH  15  19
ENDBRANCH   4   8
BRANCH   6  26
ATOM     26  C   UNL     1      10.869   0.797  -0.503  0.00  0.00    +0.048 A 
ATOM     27  C   UNL     1      11.547   1.300   0.597  0.00  0.00    +0.041 A 
ATOM     28  C   UNL     1      12.934   1.451   0.555  0.00  0.00    +0.066 A 
ATOM     29  C   UNL     1      13.636   1.107  -0.599  0.00  0.00    +0.030 A 
ATOM     30  C   UNL     1      12.951   0.607  -1.704  0.00  0.00    +0.066 A 
ATOM     31  C   UNL     1      11.564   0.453  -1.653  0.00  0.00    +0.041 A 
BRANCH  30  32
ATOM     32  C   UNL     1      13.691   0.240  -2.930  0.00  0.00    +0.387 C 
ATOM     33  O   UNL     1      13.093  -0.195  -3.893  0.00  0.00    -0.241 OA
ATOM     34  O   UNL     1      15.029   0.389  -2.978  0.00  0.00    -0.241 OA
ENDBRANCH  30  32
BRANCH  28  35
ATOM     35  C   UNL     1      13.656   1.982   1.730  0.00  0.00    +0.387 C 
ATOM     36  O   UNL     1      13.043   2.282   2.735  0.00  0.00    -0.241 OA
ATOM     37  O   UNL     1      14.994   2.132   1.687  0.00  0.00    -0.241 OA
ENDBRANCH  28  35
ENDBRANCH   6  26
TORSDOF 5
