REMARK  Name = ZINC13963423
REMARK  8 active torsions:
REMARK  status: ('A' for Active; 'I' for Inactive)
REMARK    1  A    between atoms: C_1  and  S_2
REMARK    2  A    between atoms: S_2  and  C_3
REMARK    3  A    between atoms: C_3  and  C_4
REMARK    4  A    between atoms: C_4  and  N_5
REMARK    5  A    between atoms: N_14  and  C_15
REMARK    6  A    between atoms: C_15  and  C_17
REMARK    7  A    between atoms: N_22  and  S_24
REMARK    8  A    between atoms: S_24  and  C_27
REMARK                            x       y       z     vdW  Elec       q    Type
REMARK                         _______ _______ _______ _____ _____    ______ ____
ROOT
ATOM      1  C   UNL     1      -3.489   2.422   0.032  0.00  0.00    +0.243 C 
ATOM      2  O   UNL     1      -3.330   3.628   0.037  0.00  0.00    -0.273 OA
ENDROOT
BRANCH   1  12
ATOM      3  N   UNL     1      -0.018   1.461   0.010  0.00  0.00    -0.320 N 
ATOM      4  C   UNL     1       1.171   2.167   0.003  0.00  0.00    +0.058 A 
ATOM      5  C   UNL     1       2.482   1.666  -0.013  0.00  0.00    +0.027 A 
ATOM      6  C   UNL     1       3.560   2.518  -0.018  0.00  0.00    +0.002 A 
ATOM      7  C   UNL     1       3.389   3.893  -0.009  0.00  0.00    +0.001 A 
ATOM      8  C   UNL     1       2.107   4.414   0.005  0.00  0.00    +0.017 A 
ATOM      9  C   UNL     1       1.028   3.562   0.011  0.00  0.00    +0.039 A 
ATOM     10  S   UNL     1      -0.732   3.792   0.029  0.00  0.00    -0.052 S 
ATOM     11  C   UNL     1      -1.205   2.123   0.019  0.00  0.00    +0.166 A 
ATOM     12  N   UNL     1      -2.434   1.613   0.023  0.00  0.00    -0.156 NA
BRANCH   3  13
ATOM     13  C   UNL     1       0.002  -0.004   0.002  0.00  0.00    +0.135 C 
BRANCH  13  14
ATOM     14  C   UNL     1       0.023  -0.522   1.442  0.00  0.00    +0.090 C 
BRANCH  14  16
ATOM     15  C   UNL     1       0.070  -2.784   3.189  0.00  0.00    +0.084 C 
ATOM     16  S   UNL     1       0.047  -2.336   1.432  0.00  0.00    -0.162 S 
ENDBRANCH  14  16
ENDBRANCH  13  14
ENDBRANCH   3  13
ENDBRANCH   1  12
BRANCH   1  17
ATOM     17  C   UNL     1      -4.881   1.845   0.036  0.00  0.00    +0.093 C 
ATOM     18  C   UNL     1      -5.071   0.978   1.283  0.00  0.00    +0.015 C 
ATOM     19  C   UNL     1      -6.473   0.366   1.271  0.00  0.00    +0.018 C 
ATOM     20  C   UNL     1      -7.517   1.487   1.298  0.00  0.00    +0.109 C 
ATOM     21  N   UNL     1      -7.251   2.407   0.184  0.00  0.00    -0.175 NA
ATOM     22  C   UNL     1      -5.906   2.984   0.049  0.00  0.00    +0.122 C 
BRANCH  21  23
ATOM     23  S   UNL     1      -8.444   2.788  -0.899  0.00  0.00    +0.067 S 
ATOM     24  O   UNL     1      -7.793   3.193  -2.095  0.00  0.00    -0.152 OA
ATOM     25  O   UNL     1      -9.380   1.719  -0.865  0.00  0.00    -0.152 OA
BRANCH  23  26
ATOM     26  C   UNL     1      -9.280   4.208  -0.275  0.00  0.00    +0.144 A 
ATOM     27  C   UNL     1      -9.011   5.519  -0.489  0.00  0.00    +0.038 A 
ATOM     28  C   UNL     1      -9.814   6.474   0.107  0.00  0.00    +0.030 A 
ATOM     29  C   UNL     1     -10.840   6.070   0.897  0.00  0.00    +0.080 A 
ATOM     30  S   UNL     1     -10.697   4.293   0.808  0.00  0.00    -0.057 S 
ATOM     31 CL   UNL     1     -11.992   7.032   1.769  0.00  0.00    -0.076 Cl
ENDBRANCH  23  26
ENDBRANCH  21  23
ENDBRANCH   1  17
TORSDOF 7
