REMARK  Name = ZINC39324550
REMARK  5 active torsions:
REMARK  status: ('A' for Active; 'I' for Inactive)
REMARK    1  A    between atoms: C_1  and  C_2
REMARK    2  A    between atoms: C_7  and  C_8
REMARK    3  A    between atoms: C_17  and  C_25
REMARK    4  A    between atoms: C_19  and  C_23
REMARK    5  A    between atoms: C_20  and  N_22
REMARK                            x       y       z     vdW  Elec       q    Type
REMARK                         _______ _______ _______ _____ _____    ______ ____
ROOT
ATOM      1  C   UNL     1       0.657   1.649   0.233  0.00  0.00    +0.109 C 
ATOM      2  C   UNL     1       0.613   0.143   0.255  0.00  0.00    +0.213 C 
ATOM      3  O   UNL     1       0.765  -0.453   1.300  0.00  0.00    -0.276 OA
ATOM      4  N   UNL     1       0.406  -0.542  -0.887  0.00  0.00    -0.293 N 
ATOM      5  C   UNL     1       0.224   0.157  -2.174  0.00  0.00    +0.147 C 
ATOM      6  C   UNL     1       1.290  -0.385  -3.102  0.00  0.00    +0.013 C 
ATOM      7  C   UNL     1       1.919   0.422  -3.974  0.00  0.00    +0.016 C 
ATOM      8  C   UNL     1       1.623  -1.822  -3.025  0.00  0.00    +0.136 C 
ATOM      9  C   UNL     1       1.201  -2.570  -2.007  0.00  0.00    +0.003 C 
ATOM     10  C   UNL     1       0.359  -2.006  -0.895  0.00  0.00    +0.143 C 
ATOM     11  C   UNL     1       1.565  -4.035  -1.934  0.00  0.00    +0.095 C 
ATOM     12  C   UNL     1       2.733  -4.332  -2.830  0.00  0.00    +0.098 C 
ATOM     13  C   UNL     1       3.073  -3.476  -3.826  0.00  0.00    +0.199 C 
ATOM     14  O   UNL     1       2.372  -2.348  -4.029  0.00  0.00    -0.441 OA
ENDROOT
BRANCH   7  15
ATOM     15  C   UNL     1       1.463   1.811  -4.154  0.00  0.00    -0.025 A 
ATOM     16  C   UNL     1       2.382   2.818  -4.464  0.00  0.00    +0.008 A 
ATOM     17  C   UNL     1       1.947   4.116  -4.630  0.00  0.00    +0.001 A 
ATOM     18  C   UNL     1       0.605   4.423  -4.491  0.00  0.00    +0.000 A 
ATOM     19  C   UNL     1      -0.311   3.432  -4.183  0.00  0.00    +0.001 A 
ATOM     20  C   UNL     1       0.108   2.128  -4.020  0.00  0.00    +0.008 A 
ENDBRANCH   7  15
BRANCH  11  21
ATOM     21  C   UNL     1       0.384  -4.864  -2.368  0.00  0.00    -0.035 A 
ATOM     22  C   UNL     1      -0.136  -4.713  -3.640  0.00  0.00    +0.004 A 
ATOM     23  C   UNL     1      -1.220  -5.473  -4.039  0.00  0.00    +0.000 A 
ATOM     24  C   UNL     1      -1.784  -6.383  -3.165  0.00  0.00    +0.000 A 
ATOM     25  C   UNL     1      -1.264  -6.535  -1.893  0.00  0.00    +0.000 A 
ATOM     26  C   UNL     1      -0.177  -5.778  -1.496  0.00  0.00    +0.004 A 
ENDBRANCH  11  21
BRANCH  13  27
ATOM     27  N   UNL     1       4.144  -3.764  -4.635  0.00  0.00    -0.328 N 
ATOM     28  H   UNL     1       4.654  -4.577  -4.492  0.00  0.00    +0.145 HD
ATOM     29  H   UNL     1       4.391  -3.156  -5.348  0.00  0.00    +0.145 HD
ENDBRANCH  13  27
BRANCH  12  30
ATOM     30  C   UNL     1       3.495  -5.528  -2.631  0.00  0.00    +0.101 C 
ATOM     31  N   UNL     1       4.100  -6.477  -2.474  0.00  0.00    -0.191 NA
ENDBRANCH  12  30
TORSDOF 4
