REMARK  Name = ZINC30825556
REMARK  4 active torsions:
REMARK  status: ('A' for Active; 'I' for Inactive)
REMARK    1  A    between atoms: C_6  and  C_7
REMARK    2  A    between atoms: N_13  and  C_16
REMARK    3  A    between atoms: C_19  and  S_22
REMARK    4  A    between atoms: S_22  and  N_25
REMARK                            x       y       z     vdW  Elec       q    Type
REMARK                         _______ _______ _______ _____ _____    ______ ____
ROOT
ATOM      1  C   UNL     1       0.715  -2.056  -0.185  0.00  0.00    +0.166 A 
ATOM      2  N   UNL     1      -0.562  -2.045   0.130  0.00  0.00    -0.128 NA
ATOM      3  N   UNL     1      -0.980  -0.830   0.240  0.00  0.00    -0.122 NA
ATOM      4  C   UNL     1       0.002  -0.004   0.002  0.00  0.00    +0.195 A 
ATOM      5  N   UNL     1       1.117  -0.748  -0.272  0.00  0.00    -0.285 N 
ATOM      6  C   UNL     1       2.443  -0.228  -0.584  0.00  0.00    +0.235 C 
ATOM      7  N   UNL     1       2.371   1.168  -1.024  0.00  0.00    -0.302 N 
ATOM      8  C   UNL     1       1.773   2.043  -0.004  0.00  0.00    +0.184 C 
ATOM      9  S   UNL     1      -0.022   1.760   0.012  0.00  0.00    -0.067 S 
ENDROOT
BRANCH   1  15
ATOM     10  C   UNL     1       2.947  -3.134  -0.427  0.00  0.00    +0.014 A 
ATOM     11  C   UNL     1       3.728  -4.253  -0.626  0.00  0.00    +0.039 A 
ATOM     12  C   UNL     1       3.134  -5.491  -0.811  0.00  0.00    +0.123 A 
ATOM     13  C   UNL     1       1.754  -5.613  -0.793  0.00  0.00    +0.039 A 
ATOM     14  C   UNL     1       0.964  -4.501  -0.590  0.00  0.00    +0.014 A 
ATOM     15  C   UNL     1       1.557  -3.251  -0.402  0.00  0.00    +0.019 A 
ATOM     16  F   UNL     1       3.904  -6.583  -1.011  0.00  0.00    -0.205 F 
ENDBRANCH   1  15
BRANCH   7  17
ATOM     17  C   UNL     1       3.629   1.636  -1.411  0.00  0.00    +0.032 A 
ATOM     18  C   UNL     1       4.735   0.800  -1.339  0.00  0.00    +0.025 A 
ATOM     19  C   UNL     1       5.977   1.265  -1.726  0.00  0.00    +0.030 A 
ATOM     20  C   UNL     1       6.121   2.564  -2.176  0.00  0.00    +0.105 A 
ATOM     21  C   UNL     1       5.022   3.401  -2.244  0.00  0.00    +0.030 A 
ATOM     22  C   UNL     1       3.777   2.941  -1.863  0.00  0.00    +0.025 A 
BRANCH  20  23
ATOM     23  S   UNL     1       7.707   3.156  -2.663  0.00  0.00    +0.056 S 
ATOM     24  O   UNL     1       8.474   2.014  -3.022  0.00  0.00    -0.153 OA
ATOM     25  O   UNL     1       7.481   4.234  -3.559  0.00  0.00    -0.153 OA
BRANCH  23  26
ATOM     26  N   UNL     1       8.423   3.802  -1.316  0.00  0.00    -0.204 NA
ATOM     27  H   UNL     1       9.421   4.184  -1.579  0.00  0.00    +0.144 HD
ATOM     28  H   UNL     1       8.520   3.024  -0.544  0.00  0.00    +0.144 HD
ENDBRANCH  23  26
ENDBRANCH  20  23
ENDBRANCH   7  17
TORSDOF 4
