REMARK  Name = ZINC32772071
REMARK  9 active torsions:
REMARK  status: ('A' for Active; 'I' for Inactive)
REMARK    1  A    between atoms: C_1  and  C_2
REMARK    2  A    between atoms: C_2  and  N_3
REMARK    3  A    between atoms: N_6  and  C_9
REMARK    4  A    between atoms: C_12  and  N_16
REMARK    5  A    between atoms: C_13  and  C_15
REMARK    6  A    between atoms: N_16  and  C_17
REMARK    7  A    between atoms: C_17  and  C_19
REMARK    8  A    between atoms: C_17  and  C_20
REMARK    9  A    between atoms: N_22  and  C_23
REMARK                            x       y       z     vdW  Elec       q    Type
REMARK                         _______ _______ _______ _____ _____    ______ ____
ROOT
ATOM      1  C   UNL     1      -4.380  -2.833  -1.644  0.00  0.00    +0.030 A 
ATOM      2  C   UNL     1      -5.187  -2.320  -2.652  0.00  0.00    +0.025 A 
ATOM      3  C   UNL     1      -5.943  -3.173  -3.431  0.00  0.00    +0.025 A 
ATOM      4  C   UNL     1      -5.898  -4.543  -3.206  0.00  0.00    +0.031 A 
ATOM      5  C   UNL     1      -5.091  -5.055  -2.199  0.00  0.00    -0.028 A 
ATOM      6  C   UNL     1      -4.330  -4.202  -1.423  0.00  0.00    +0.028 A 
ATOM      7  C   UNL     1      -5.042  -6.541  -1.955  0.00  0.00    +0.046 C 
ENDROOT
BRANCH   1  11
ATOM      8  N   UNL     1      -2.923  -0.203   1.200  0.00  0.00    +0.382 N 
ATOM      9  C   UNL     1      -3.163  -1.617   1.516  0.00  0.00    -0.060 C 
ATOM     10  C   UNL     1      -2.838  -2.475   0.289  0.00  0.00    +0.086 C 
ATOM     11  N   UNL     1      -3.613  -1.968  -0.854  0.00  0.00    -0.333 N 
ATOM     12  C   UNL     1      -3.560  -0.526  -1.143  0.00  0.00    +0.086 C 
ATOM     13  C   UNL     1      -3.851   0.240   0.151  0.00  0.00    -0.060 C 
ATOM     14  H   UNL     1      -1.974  -0.089   0.878  0.00  0.00    -0.082 HD
BRANCH   8  16
ATOM     15  C   UNL     1      -2.082   0.234   3.458  0.00  0.00    -0.017 C 
ATOM     16  C   UNL     1      -3.129   0.608   2.408  0.00  0.00    -0.082 C 
ENDBRANCH   8  16
ENDBRANCH   1  11
BRANCH   4  17
ATOM     17  N   UNL     1      -6.665  -5.408  -3.996  0.00  0.00    -0.333 N 
ATOM     18  H   UNL     1      -6.634  -6.364  -3.839  0.00  0.00    +0.147 HD
BRANCH  17  19
ATOM     19  C   UNL     1      -7.517  -4.867  -5.059  0.00  0.00    +0.154 C 
ATOM     20  C   UNL     1      -6.687  -4.679  -6.330  0.00  0.00    +0.038 C 
BRANCH  19  21
ATOM     21  C   UNL     1      -8.647  -5.826  -5.333  0.00  0.00    +0.237 C 
ATOM     22  O   UNL     1      -8.733  -6.859  -4.703  0.00  0.00    -0.273 OA
ATOM     23  N   UNL     1      -9.562  -5.536  -6.279  0.00  0.00    -0.284 N 
ATOM     24  H   UNL     1      -9.451  -4.750  -6.836  0.00  0.00    +0.155 HD
BRANCH  23  25
ATOM     25  C   UNL     1     -10.674  -6.368  -6.457  0.00  0.00    +0.036 A 
ATOM     26  C   UNL     1     -11.192  -6.574  -7.728  0.00  0.00    +0.026 A 
ATOM     27  C   UNL     1     -12.289  -7.395  -7.903  0.00  0.00    +0.043 A 
ATOM     28  C   UNL     1     -12.872  -8.015  -6.811  0.00  0.00    +0.159 A 
ATOM     29  C   UNL     1     -12.356  -7.812  -5.540  0.00  0.00    +0.160 A 
ATOM     30  C   UNL     1     -11.255  -6.994  -5.362  0.00  0.00    +0.064 A 
ATOM     31  F   UNL     1     -12.927  -8.418  -4.475  0.00  0.00    -0.202 F 
ATOM     32  F   UNL     1     -13.945  -8.818  -6.984  0.00  0.00    -0.202 F 
ENDBRANCH  23  25
ENDBRANCH  19  21
ENDBRANCH  17  19
ENDBRANCH   4  17
TORSDOF 6
