REMARK  Name = ZINC56723615
REMARK  8 active torsions:
REMARK  status: ('A' for Active; 'I' for Inactive)
REMARK    1  A    between atoms: C_1  and  N_2
REMARK    2  A    between atoms: N_2  and  C_3
REMARK    3  A    between atoms: N_2  and  C_4
REMARK    4  A    between atoms: C_7  and  N_11
REMARK    5  A    between atoms: N_14  and  C_15
REMARK    6  A    between atoms: C_15  and  C_16
REMARK    7  A    between atoms: C_16  and  C_18
REMARK    8  A    between atoms: C_16  and  N_23
REMARK                            x       y       z     vdW  Elec       q    Type
REMARK                         _______ _______ _______ _____ _____    ______ ____
ROOT
ATOM      1  N   UNL     1      -4.667  -3.174   0.033  0.00  0.00    -0.269 N 
ATOM      2  C   UNL     1      -5.344  -3.327  -1.122  0.00  0.00    +0.304 C 
ATOM      3  O   UNL     1      -4.843  -2.972  -2.172  0.00  0.00    -0.253 OA
ATOM      4  N   UNL     1      -6.576  -3.873  -1.115  0.00  0.00    -0.300 N 
ATOM      5  H   UNL     1      -5.035  -3.523   0.861  0.00  0.00    +0.156 HD
ATOM      6  H   UNL     1      -6.976  -4.156  -0.277  0.00  0.00    +0.150 HD
ENDROOT
BRANCH   1  10
ATOM      7  C   UNL     1      -0.990  -1.201   0.053  0.00  0.00    +0.101 A 
ATOM      8  C   UNL     1      -1.983  -0.812  -0.837  0.00  0.00    +0.149 A 
ATOM      9  C   UNL     1      -3.201  -1.466  -0.843  0.00  0.00    +0.063 A 
ATOM     10  C   UNL     1      -3.432  -2.512   0.040  0.00  0.00    +0.040 A 
ATOM     11  C   UNL     1      -2.441  -2.901   0.930  0.00  0.00    +0.063 A 
ATOM     12  C   UNL     1      -1.220  -2.252   0.934  0.00  0.00    +0.149 A 
ATOM     13  F   UNL     1      -0.253  -2.635   1.796  0.00  0.00    -0.203 F 
ATOM     14  F   UNL     1      -1.758   0.206  -1.697  0.00  0.00    -0.203 F 
BRANCH   7  16
ATOM     15  C   UNL     1       1.336  -1.012  -0.798  0.00  0.00    +0.129 C 
ATOM     16  N   UNL     1       0.247  -0.539   0.060  0.00  0.00    -0.332 N 
ATOM     17  C   UNL     1       0.449   0.626   0.924  0.00  0.00    +0.129 C 
ENDBRANCH   7  16
ENDBRANCH   1  10
BRANCH   4  18
ATOM     18  C   UNL     1      -7.312  -4.039  -2.371  0.00  0.00    +0.098 C 
BRANCH  18  19
ATOM     19  C   UNL     1      -8.720  -4.556  -2.072  0.00  0.00    +0.016 C 
BRANCH  19  20
ATOM     20  N   UNL     1      -9.418  -4.834  -3.335  0.00  0.00    +0.387 N 
ATOM     21  C   UNL     1      -8.767  -5.969  -4.039  0.00  0.00    -0.078 C 
ATOM     22  C   UNL     1      -9.883  -6.487  -4.982  0.00  0.00    -0.020 C 
ATOM     23  C   UNL     1     -11.160  -6.329  -4.125  0.00  0.00    -0.020 C 
ATOM     24  C   UNL     1     -10.806  -5.269  -3.066  0.00  0.00    -0.078 C 
ATOM     25  H   UNL     1      -9.417  -4.013  -3.922  0.00  0.00    -0.081 HD
ENDBRANCH  19  20
BRANCH  19  26
ATOM     26  C   UNL     1      -9.484  -3.514  -1.296  0.00  0.00    +0.093 A 
ATOM     27  C   UNL     1      -9.677  -3.509   0.035  0.00  0.00    +0.043 A 
ATOM     28  C   UNL     1     -10.441  -2.357   0.334  0.00  0.00    +0.041 A 
ATOM     29  C   UNL     1     -10.669  -1.728  -0.833  0.00  0.00    +0.195 A 
ATOM     30  O   UNL     1     -10.082  -2.429  -1.816  0.00  0.00    -0.469 OA
ENDBRANCH  19  26
ENDBRANCH  18  19
ENDBRANCH   4  18
TORSDOF 6
