REMARK  Name = ZINC17750270
REMARK  5 active torsions:
REMARK  status: ('A' for Active; 'I' for Inactive)
REMARK    1  A    between atoms: C_1  and  C_2
REMARK    2  A    between atoms: C_6  and  S_8
REMARK    3  A    between atoms: S_8  and  C_9
REMARK    4  A    between atoms: C_9  and  C_10
REMARK    5  A    between atoms: C_10  and  C_12
REMARK                            x       y       z     vdW  Elec       q    Type
REMARK                         _______ _______ _______ _____ _____    ______ ____
ROOT
ATOM      1  C   UNL     1      -1.034   3.138  -6.075  0.00  0.00    +0.157 C 
ENDROOT
BRANCH   1   2
ATOM      2  C   UNL     1      -0.369   3.436  -7.394  0.00  0.00    +0.173 C 
ATOM      3  O   UNL     1       0.826   3.277  -7.520  0.00  0.00    -0.291 OA
BRANCH   2   4
ATOM      4  C   UNL     1      -1.171   3.920  -8.529  0.00  0.00    +0.018 A 
ATOM      5  C   UNL     1      -2.549   4.111  -8.385  0.00  0.00    +0.013 A 
ATOM      6  C   UNL     1      -3.293   4.565  -9.452  0.00  0.00    +0.020 A 
ATOM      7  C   UNL     1      -2.679   4.832 -10.666  0.00  0.00    +0.041 A 
ATOM      8  C   UNL     1      -1.315   4.646 -10.815  0.00  0.00    +0.020 A 
ATOM      9  C   UNL     1      -0.557   4.197  -9.755  0.00  0.00    +0.013 A 
ATOM     10 CL   UNL     1      -3.625   5.403 -12.005  0.00  0.00    -0.084 Cl
ENDBRANCH   2   4
ENDBRANCH   1   2
BRANCH   1  11
ATOM     11  S   UNL     1       0.210   2.564  -4.886  0.00  0.00    -0.078 S 
BRANCH  11  17
ATOM     12  C   UNL     1      -0.013   1.086   0.008  0.00  0.00    +0.066 C 
ATOM     13  C   UNL     1      -0.742   1.585  -1.213  0.00  0.00    +0.046 A 
ATOM     14  C   UNL     1      -2.107   1.799  -1.173  0.00  0.00    +0.095 A 
ATOM     15  C   UNL     1      -2.742   2.261  -2.325  0.00  0.00    +0.274 A 
ATOM     16  N   UNL     1      -2.019   2.480  -3.417  0.00  0.00    -0.183 NA
ATOM     17  C   UNL     1      -0.712   2.262  -3.416  0.00  0.00    +0.192 A 
ATOM     18  N   UNL     1      -0.080   1.829  -2.334  0.00  0.00    -0.227 NA
ATOM     19  O   UNL     1      -4.079   2.484  -2.330  0.00  0.00    -0.266 OA
ENDBRANCH  11  17
ENDBRANCH   1  11
TORSDOF 4
