REMARK  Name = ZINC09153064
REMARK  4 active torsions:
REMARK  status: ('A' for Active; 'I' for Inactive)
REMARK    1  A    between atoms: C_1  and  N_2
REMARK    2  A    between atoms: C_9  and  S_16
REMARK    3  A    between atoms: S_16  and  N_19
REMARK    4  A    between atoms: N_19  and  C_20
REMARK                            x       y       z     vdW  Elec       q    Type
REMARK                         _______ _______ _______ _____ _____    ______ ____
ROOT
ATOM      1  C   UNL     1      -1.421   2.280   0.297  0.00  0.00    +0.150 C 
ATOM      2  N   UNL     1      -0.244   1.466   0.612  0.00  0.00    -0.332 N 
ATOM      3  C   UNL     1       1.030   1.919   0.770  0.00  0.00    +0.200 A 
ATOM      4  N   UNL     1       1.822   0.919   1.037  0.00  0.00    -0.229 NA
ATOM      5  C   UNL     1       1.102  -0.225   1.066  0.00  0.00    +0.174 A 
ATOM      6  C   UNL     1      -0.222   0.117   0.794  0.00  0.00    +0.086 A 
ATOM      7  C   UNL     1      -1.227  -0.953   0.764  0.00  0.00    +0.045 A 
ATOM      8  C   UNL     1      -2.568  -0.668   0.497  0.00  0.00    +0.042 A 
ATOM      9  C   UNL     1      -3.493  -1.689   0.475  0.00  0.00    +0.109 A 
ATOM     10  C   UNL     1      -3.096  -2.995   0.715  0.00  0.00    +0.032 A 
ATOM     11  C   UNL     1      -1.775  -3.290   0.980  0.00  0.00    +0.049 A 
ATOM     12  C   UNL     1      -0.825  -2.276   1.007  0.00  0.00    +0.141 A 
ATOM     13  O   UNL     1       0.468  -2.570   1.267  0.00  0.00    -0.421 OA
ATOM     14  C   UNL     1       1.427  -1.631   1.307  0.00  0.00    +0.365 A 
ATOM     15  O   UNL     1       2.576  -1.952   1.546  0.00  0.00    -0.243 OA
ENDROOT
BRANCH   9  16
ATOM     16  S   UNL     1      -5.185  -1.333   0.139  0.00  0.00    +0.072 S 
ATOM     17  O   UNL     1      -5.950  -2.321   0.815  0.00  0.00    -0.150 OA
ATOM     18  O   UNL     1      -5.362   0.058   0.373  0.00  0.00    -0.150 OA
BRANCH  16  19
ATOM     19  N   UNL     1      -5.425  -1.575  -1.481  0.00  0.00    -0.216 N 
ATOM     20  H   UNL     1      -6.054  -2.249  -1.783  0.00  0.00    +0.174 HD
BRANCH  19  21
ATOM     21  C   UNL     1      -4.721  -0.808  -2.414  0.00  0.00    +0.048 A 
ATOM     22  C   UNL     1      -4.630   0.569  -2.255  0.00  0.00    +0.025 A 
ATOM     23  C   UNL     1      -3.929   1.323  -3.176  0.00  0.00    +0.017 A 
ATOM     24  C   UNL     1      -3.329   0.710  -4.261  0.00  0.00    +0.018 A 
ATOM     25  C   UNL     1      -3.422  -0.661  -4.424  0.00  0.00    +0.017 A 
ATOM     26  C   UNL     1      -4.117  -1.421  -3.504  0.00  0.00    +0.025 A 
ATOM     27 BR   UNL     1      -2.376   1.748  -5.523  0.00  0.00    -0.050 Br
ENDBRANCH  19  21
ENDBRANCH  16  19
ENDBRANCH   9  16
TORSDOF 3
