REMARK  Name = ZINC27549154
REMARK  7 active torsions:
REMARK  status: ('A' for Active; 'I' for Inactive)
REMARK    1  A    between atoms: C_1  and  C_2
REMARK    2  A    between atoms: C_9  and  N_23
REMARK    3  A    between atoms: C_10  and  N_12
REMARK    4  A    between atoms: N_12  and  S_13
REMARK    5  A    between atoms: S_13  and  C_16
REMARK    6  A    between atoms: N_23  and  C_24
REMARK    7  A    between atoms: C_28  and  C_30
REMARK                            x       y       z     vdW  Elec       q    Type
REMARK                         _______ _______ _______ _____ _____    ______ ____
ROOT
ATOM      1  C   UNL     1       0.959   1.420  -0.030  0.00  0.00    +0.044 C 
ATOM      2  C   UNL     1       0.683  -0.061  -0.026  0.00  0.00    -0.048 A 
ATOM      3  C   UNL     1       0.462  -0.722  -1.232  0.00  0.00    +0.005 A 
ATOM      4  C   UNL     1       0.210  -2.061  -1.260  0.00  0.00    +0.030 A 
ATOM      5  C   UNL     1       0.172  -2.788  -0.060  0.00  0.00    +0.092 A 
ATOM      6  C   UNL     1       0.397  -2.116   1.166  0.00  0.00    +0.092 A 
ATOM      7  C   UNL     1       0.659  -0.737   1.156  0.00  0.00    +0.033 A 
ATOM      8  N   UNL     1       0.363  -2.802   2.317  0.00  0.00    -0.227 NA
ATOM      9  C   UNL     1       0.120  -4.097   2.301  0.00  0.00    +0.167 A 
ATOM     10  C   UNL     1      -0.104  -4.769   1.076  0.00  0.00    +0.203 A 
ATOM     11  N   UNL     1      -0.073  -4.107  -0.062  0.00  0.00    -0.224 NA
ENDROOT
BRANCH   9  12
ATOM     12  N   UNL     1       0.086  -4.807   3.493  0.00  0.00    -0.297 N 
ATOM     13  H   UNL     1      -0.010  -5.772   3.480  0.00  0.00    +0.154 HD
BRANCH  12  14
ATOM     14  C   UNL     1       0.188  -4.131   4.712  0.00  0.00    +0.033 A 
ATOM     15  C   UNL     1      -0.426  -2.894   4.875  0.00  0.00    +0.023 A 
ATOM     16  C   UNL     1      -0.328  -2.221   6.079  0.00  0.00    +0.003 A 
ATOM     17  C   UNL     1       0.380  -2.772   7.128  0.00  0.00    +0.015 A 
ATOM     18  C   UNL     1       1.001  -4.015   6.975  0.00  0.00    +0.065 A 
ATOM     19  C   UNL     1       0.897  -4.697   5.761  0.00  0.00    +0.038 A 
BRANCH  18  20
ATOM     20  C   UNL     1       1.758  -4.607   8.094  0.00  0.00    +0.387 C 
ATOM     21  O   UNL     1       1.844  -4.010   9.158  0.00  0.00    -0.241 OA
ATOM     22  O   UNL     1       2.301  -5.694   7.958  0.00  0.00    -0.241 OA
ENDBRANCH  18  20
ENDBRANCH  12  14
ENDBRANCH   9  12
BRANCH  10  23
ATOM     23  N   UNL     1      -0.357  -6.132   1.074  0.00  0.00    -0.074 NA
BRANCH  23  24
ATOM     24  S   UNL     1      -0.621  -6.923  -0.357  0.00  0.00    +0.093 S 
ATOM     25  O   UNL     1      -1.840  -6.417  -0.883  0.00  0.00    -0.148 OA
ATOM     26  O   UNL     1       0.601  -6.870  -1.081  0.00  0.00    -0.148 OA
BRANCH  24  27
ATOM     27  C   UNL     1      -0.904  -8.618   0.029  0.00  0.00    +0.111 A 
ATOM     28  C   UNL     1       0.159  -9.500   0.091  0.00  0.00    +0.030 A 
ATOM     29  C   UNL     1      -0.063 -10.830   0.394  0.00  0.00    +0.022 A 
ATOM     30  C   UNL     1      -1.349 -11.279   0.635  0.00  0.00    +0.041 A 
ATOM     31  C   UNL     1      -2.412 -10.396   0.574  0.00  0.00    +0.022 A 
ATOM     32  C   UNL     1      -2.189  -9.065   0.276  0.00  0.00    +0.030 A 
ATOM     33 CL   UNL     1      -1.628 -12.950   1.016  0.00  0.00    -0.084 Cl
ENDBRANCH  24  27
ENDBRANCH  23  24
ENDBRANCH  10  23
TORSDOF 6
