REMARK  Name = ZINC12621204
REMARK  4 active torsions:
REMARK  status: ('A' for Active; 'I' for Inactive)
REMARK    1  A    between atoms: C_5  and  N_7
REMARK    2  A    between atoms: C_11  and  C_13
REMARK    3  A    between atoms: C_13  and  S_14
REMARK    4  A    between atoms: S_14  and  C_15
REMARK                            x       y       z     vdW  Elec       q    Type
REMARK                         _______ _______ _______ _____ _____    ______ ____
ROOT
ATOM      1  N   UNL     1       2.279   4.230   0.003  0.00  0.00    -0.267 N 
ATOM      2  C   UNL     1       1.121   3.541   0.018  0.00  0.00    +0.310 C 
ATOM      3  O   UNL     1       0.061   4.134   0.028  0.00  0.00    -0.252 OA
ATOM      4  N   UNL     1       1.139   2.193   0.021  0.00  0.00    -0.239 N 
ATOM      5  C   UNL     1      -0.019   1.504   0.036  0.00  0.00    +0.231 C 
ATOM      6  O   UNL     1      -1.077   2.096   0.041  0.00  0.00    -0.274 OA
ATOM      7  H   UNL     1       3.125   3.758   0.060  0.00  0.00    +0.156 HD
ATOM      8  H   UNL     1       1.985   1.719   0.013  0.00  0.00    +0.159 HD
ENDROOT
BRANCH   1  13
ATOM      9  C   UNL     1       1.233   7.732   0.415  0.00  0.00    +0.002 A 
ATOM     10  C   UNL     1       2.226   8.388  -0.289  0.00  0.00    +0.003 A 
ATOM     11  C   UNL     1       3.238   7.668  -0.897  0.00  0.00    +0.040 A 
ATOM     12  C   UNL     1       3.259   6.288  -0.803  0.00  0.00    +0.145 A 
ATOM     13  C   UNL     1       2.261   5.627  -0.095  0.00  0.00    +0.070 A 
ATOM     14  C   UNL     1       1.245   6.354   0.509  0.00  0.00    +0.026 A 
ATOM     15  F   UNL     1       4.247   5.585  -1.398  0.00  0.00    -0.204 F 
ENDBRANCH   1  13
BRANCH   5  16
ATOM     16  C   UNL     1       0.001  -0.003   0.040  0.00  0.00    +0.172 C 
BRANCH  16  17
ATOM     17  S   UNL     1      -1.698  -0.629   0.060  0.00  0.00    -0.095 S 
BRANCH  17  18
ATOM     18  C   UNL     1      -1.385  -2.363   0.062  0.00  0.00    +0.115 A 
ATOM     19  C   UNL     1      -2.429  -3.273   0.076  0.00  0.00    +0.069 A 
ATOM     20  C   UNL     1      -2.185  -4.663   0.077  0.00  0.00    +0.082 A 
ATOM     21  C   UNL     1      -3.332  -5.476   0.092  0.00  0.00    +0.036 A 
ATOM     22  C   UNL     1      -4.557  -4.917   0.104  0.00  0.00    +0.048 A 
ATOM     23  S   UNL     1      -4.198  -3.168   0.095  0.00  0.00    -0.092 S 
ATOM     24  N   UNL     1      -0.878  -5.028   0.064  0.00  0.00    -0.235 NA
ATOM     25  C   UNL     1       0.079  -4.137   0.050  0.00  0.00    +0.223 A 
ATOM     26  N   UNL     1      -0.137  -2.833   0.044  0.00  0.00    -0.228 NA
ENDBRANCH  17  18
ENDBRANCH  16  17
ENDBRANCH   5  16
TORSDOF 4
