REMARK  Name = ZINC39529861
REMARK  9 active torsions:
REMARK  status: ('A' for Active; 'I' for Inactive)
REMARK    1  A    between atoms: C_1  and  C_2
REMARK    2  A    between atoms: C_2  and  C_3
REMARK    3  A    between atoms: C_2  and  S_4
REMARK    4  A    between atoms: S_4  and  C_7
REMARK    5  A    between atoms: C_10  and  N_19
REMARK    6  A    between atoms: C_11  and  C_13
REMARK    7  A    between atoms: C_23  and  S_26
REMARK    8  A    between atoms: S_26  and  O_29
REMARK    9  A    between atoms: O_29  and  C_30
REMARK                            x       y       z     vdW  Elec       q    Type
REMARK                         _______ _______ _______ _____ _____    ______ ____
ROOT
ATOM      1  C   UNL     1      -1.536  -2.381   0.152  0.00  0.00    +0.089 A 
ATOM      2  C   UNL     1      -1.442  -3.156  -0.990  0.00  0.00    +0.029 A 
ATOM      3  C   UNL     1      -1.313  -4.528  -0.894  0.00  0.00    +0.025 A 
ATOM      4  C   UNL     1      -1.278  -5.137   0.353  0.00  0.00    +0.038 A 
ATOM      5  C   UNL     1      -1.373  -4.354   1.510  0.00  0.00    +0.005 A 
ATOM      6  C   UNL     1      -1.497  -2.971   1.399  0.00  0.00    +0.037 A 
ENDROOT
BRANCH   4   7
ATOM      7  N   UNL     1      -1.148  -6.522   0.453  0.00  0.00    -0.331 N 
ATOM      8  C   UNL     1      -2.334  -7.392   0.478  0.00  0.00    +0.086 C 
ATOM      9  C   UNL     1      -2.145  -8.500  -0.563  0.00  0.00    -0.061 C 
ATOM     10  N   UNL     1      -0.877  -9.196  -0.311  0.00  0.00    +0.398 N 
ATOM     11  C   UNL     1       0.248  -8.273  -0.509  0.00  0.00    +0.133 C 
ATOM     12  C   UNL     1       0.178  -7.154   0.529  0.00  0.00    +0.115 C 
ATOM     13  H   UNL     1      -0.866  -9.540   0.637  0.00  0.00    -0.083 HD
ATOM     14  H   UNL     1      -0.789  -9.973  -0.949  0.00  0.00    -0.083 HD
BRANCH  11  15
ATOM     15  S   UNL     1       1.810  -9.175  -0.325  0.00  0.00    +0.109 S 
ATOM     16  O   UNL     1       2.903  -8.342  -0.687  0.00  0.00    -0.138 OA
ATOM     17  O   UNL     1       1.821  -9.890   0.903  0.00  0.00    -0.138 OA
BRANCH  15  18
ATOM     18  O   UNL     1       1.770 -10.252  -1.400  0.00  0.00    -0.347 OA
BRANCH  18  19
ATOM     19  C   UNL     1       1.992  -9.786  -2.657  0.00  0.00    +0.156 A 
ATOM     20  C   UNL     1       0.927  -9.358  -3.438  0.00  0.00    +0.048 A 
ATOM     21  C   UNL     1       1.156  -8.884  -4.715  0.00  0.00    +0.004 A 
ATOM     22  C   UNL     1       2.443  -8.836  -5.216  0.00  0.00    +0.000 A 
ATOM     23  C   UNL     1       3.506  -9.262  -4.441  0.00  0.00    +0.004 A 
ATOM     24  C   UNL     1       3.284  -9.731  -3.160  0.00  0.00    +0.048 A 
ENDBRANCH  18  19
ENDBRANCH  15  18
ENDBRANCH  11  15
ENDBRANCH   4   7
BRANCH   5  25
ATOM     25  C   UNL     1      -1.336  -4.995   2.847  0.00  0.00    -0.016 A 
ATOM     26  C   UNL     1      -2.162  -6.082   3.125  0.00  0.00    +0.008 A 
ATOM     27  C   UNL     1      -2.124  -6.674   4.371  0.00  0.00    +0.001 A 
ATOM     28  C   UNL     1      -1.268  -6.190   5.343  0.00  0.00    +0.000 A 
ATOM     29  C   UNL     1      -0.446  -5.111   5.074  0.00  0.00    +0.001 A 
ATOM     30  C   UNL     1      -0.472  -4.514   3.829  0.00  0.00    +0.008 A 
ENDBRANCH   5  25
BRANCH   1  31
ATOM     31  S   UNL     1      -1.700  -0.632   0.015  0.00  0.00    -0.001 S 
ATOM     32  O   UNL     1      -2.359  -0.234   1.209  0.00  0.00    -0.169 OA
ATOM     33  O   UNL     1      -2.308  -0.423  -1.252  0.00  0.00    -0.169 OA
BRANCH  31  35
ATOM     34  C   UNL     1      -0.019   1.526   0.010  0.00  0.00    +0.032 C 
ATOM     35  C   UNL     1       0.002  -0.004   0.002  0.00  0.00    +0.130 C 
ATOM     36  C   UNL     1       0.742  -0.511   1.242  0.00  0.00    +0.032 C 
ENDBRANCH  31  35
ENDBRANCH   1  31
TORSDOF 7
