REMARK  Name = ZINC23038701
REMARK  10 active torsions:
REMARK  status: ('A' for Active; 'I' for Inactive)
REMARK    1  A    between atoms: C_1  and  C_2
REMARK    2  A    between atoms: C_2  and  C_4
REMARK    3  A    between atoms: C_7  and  N_10
REMARK    4  A    between atoms: C_11  and  C_13
REMARK    5  A    between atoms: C_13  and  C_14
REMARK    6  A    between atoms: C_14  and  N_15
REMARK    7  A    between atoms: N_15  and  C_16
REMARK    8  A    between atoms: N_15  and  C_17
REMARK    9  A    between atoms: C_17  and  C_18
REMARK   10  A    between atoms: N_20  and  C_21
REMARK                            x       y       z     vdW  Elec       q    Type
REMARK                         _______ _______ _______ _____ _____    ______ ____
ROOT
ATOM      1  C   UNL     1       3.635   1.491   0.962  0.00  0.00    -0.069 C 
ENDROOT
BRANCH   1   2
ATOM      2  N   UNL     1       2.398   0.742   0.704  0.00  0.00    +0.384 N 
ATOM      3  C   UNL     1       2.436   0.105  -0.620  0.00  0.00    -0.096 C 
ATOM      4  H   UNL     1       2.321  -0.054   1.459  0.00  0.00    -0.082 HD
BRANCH   2   5
ATOM      5  C   UNL     1       1.220   1.609   0.838  0.00  0.00    +0.018 C 
BRANCH   5   6
ATOM      6  C   UNL     1      -0.029   0.766   0.810  0.00  0.00    +0.201 C 
ATOM      7  O   UNL     1       0.054  -0.438   0.690  0.00  0.00    -0.278 OA
ATOM      8  N   UNL     1      -1.239   1.351   0.913  0.00  0.00    -0.286 N 
ATOM      9  H   UNL     1      -1.313   2.431   1.104  0.00  0.00    +0.155 HD
BRANCH   8  10
ATOM     10  C   UNL     1      -2.401   0.583   0.778  0.00  0.00    +0.047 A 
ATOM     11  C   UNL     1      -2.396  -0.757   1.144  0.00  0.00    +0.024 A 
ATOM     12  C   UNL     1      -3.546  -1.511   1.014  0.00  0.00    +0.002 A 
ATOM     13  C   UNL     1      -4.699  -0.936   0.511  0.00  0.00    +0.001 A 
ATOM     14  C   UNL     1      -4.707   0.396   0.142  0.00  0.00    +0.017 A 
ATOM     15  C   UNL     1      -3.561   1.157   0.274  0.00  0.00    +0.039 A 
ATOM     16 BR   UNL     1      -3.571   2.979  -0.233  0.00  0.00    -0.048 Br
ENDBRANCH   8  10
ENDBRANCH   5   6
ENDBRANCH   2   5
ENDBRANCH   1   2
BRANCH   1  17
ATOM     17  C   UNL     1       4.811   0.517   1.060  0.00  0.00    +0.077 C 
BRANCH  17  19
ATOM     18  N   UNL     1       7.251   0.630   1.450  0.00  0.00    -0.286 N 
ATOM     19  C   UNL     1       6.080   1.286   1.325  0.00  0.00    +0.215 C 
ATOM     20  O   UNL     1       6.047   2.494   1.426  0.00  0.00    -0.276 OA
ATOM     21  H   UNL     1       7.293  -0.456   1.286  0.00  0.00    +0.155 HD
BRANCH  18  25
ATOM     22  C   UNL     1      10.706   2.719   2.455  0.00  0.00    +0.017 A 
ATOM     23  C   UNL     1      10.499   1.424   2.947  0.00  0.00    +0.013 A 
ATOM     24  C   UNL     1       9.360   0.740   2.613  0.00  0.00    +0.024 A 
ATOM     25  C   UNL     1       8.408   1.330   1.786  0.00  0.00    +0.033 A 
ATOM     26  C   UNL     1       8.611   2.615   1.290  0.00  0.00    +0.024 A 
ATOM     27  C   UNL     1       9.745   3.309   1.623  0.00  0.00    +0.013 A 
BRANCH  22  29
ATOM     28  C   UNL     1      12.201   4.801   2.187  0.00  0.00    +0.091 C 
ATOM     29  C   UNL     1      11.925   3.457   2.810  0.00  0.00    +0.160 C 
ATOM     30  O   UNL     1      12.710   2.984   3.605  0.00  0.00    -0.292 OA
ENDBRANCH  22  29
ENDBRANCH  18  25
ENDBRANCH  17  19
ENDBRANCH   1  17
TORSDOF 8
