REMARK  Name = ZINC65184297
REMARK  3 active torsions:
REMARK  status: ('A' for Active; 'I' for Inactive)
REMARK    1  A    between atoms: C_1  and  O_2
REMARK    2  A    between atoms: O_2  and  C_3
REMARK    3  A    between atoms: C_6  and  N_10
REMARK                            x       y       z     vdW  Elec       q    Type
REMARK                         _______ _______ _______ _____ _____    ______ ____
ROOT
ATOM      1  N   UNL     1       2.541  -2.503   4.232  0.00  0.00    -0.264 N 
ATOM      2  C   UNL     1       2.430  -3.923   4.204  0.00  0.00    +0.152 C 
ATOM      3  C   UNL     1       3.016  -4.720   5.328  0.00  0.00    +0.012 A 
ATOM      4  C   UNL     1       2.894  -6.106   5.138  0.00  0.00    +0.009 A 
ATOM      5  C   UNL     1       3.419  -7.003   6.037  0.00  0.00    +0.001 A 
ATOM      6  C   UNL     1       4.091  -6.522   7.147  0.00  0.00    +0.004 A 
ATOM      7  C   UNL     1       4.191  -5.169   7.340  0.00  0.00    +0.046 A 
ATOM      8  C   UNL     1       3.619  -4.243   6.434  0.00  0.00    +0.126 A 
ATOM      9  O   UNL     1       3.741  -2.984   6.947  0.00  0.00    -0.482 OA
ATOM     10  C   UNL     1       4.100  -1.881   6.138  0.00  0.00    +0.325 C 
ATOM     11  C   UNL     1       3.111  -1.694   5.030  0.00  0.00    +0.258 C 
ATOM     12  O   UNL     1       2.784  -0.538   4.863  0.00  0.00    -0.272 OA
ENDROOT
BRANCH   1  16
ATOM     13  C   UNL     1       0.624  -0.619   1.044  0.00  0.00    +0.138 A 
ATOM     14  C   UNL     1      -0.088  -0.936   2.191  0.00  0.00    +0.049 A 
ATOM     15  C   UNL     1       0.546  -1.561   3.247  0.00  0.00    +0.027 A 
ATOM     16  C   UNL     1       1.897  -1.871   3.160  0.00  0.00    +0.038 A 
ATOM     17  C   UNL     1       2.610  -1.553   2.012  0.00  0.00    +0.047 A 
ATOM     18  C   UNL     1       1.973  -0.933   0.954  0.00  0.00    +0.084 A 
ATOM     19 CL   UNL     1       2.861  -0.541  -0.485  0.00  0.00    -0.080 Cl
BRANCH  13  21
ATOM     20  C   UNL     1      -1.391   0.290   0.166  0.00  0.00    +0.277 C 
ATOM     21  O   UNL     1      -0.002  -0.004   0.005  0.00  0.00    -0.494 OA
ENDBRANCH  13  21
ENDBRANCH   1  16
TORSDOF 2
