REMARK  Name = ZINC20052238
REMARK  7 active torsions:
REMARK  status: ('A' for Active; 'I' for Inactive)
REMARK    1  A    between atoms: C_1  and  O_2
REMARK    2  A    between atoms: O_2  and  C_3
REMARK    3  A    between atoms: C_3  and  O_22
REMARK    4  A    between atoms: C_4  and  C_20
REMARK    5  A    between atoms: C_5  and  C_13
REMARK    6  A    between atoms: C_7  and  C_11
REMARK    7  A    between atoms: O_22  and  C_23
REMARK                            x       y       z     vdW  Elec       q    Type
REMARK                         _______ _______ _______ _____ _____    ______ ____
ROOT
ATOM      1  C   UNL     1       0.124  -0.568  -1.283  0.00  0.00    +0.294 C 
ATOM      2  C   UNL     1      -0.150  -2.047  -1.609  0.00  0.00    +0.167 C 
ATOM      3  C   UNL     1       0.682  -2.716  -2.705  0.00  0.00    +0.079 C 
ATOM      4  C   UNL     1      -0.619  -2.002  -3.076  0.00  0.00    +0.146 C 
ATOM      5  C   UNL     1      -0.570  -0.546  -3.466  0.00  0.00    +0.116 C 
ATOM      6  N   UNL     1      -0.173   0.191  -2.497  0.00  0.00    -0.211 NA
ATOM      7  N   UNL     1      -0.907  -0.071  -4.706  0.00  0.00    -0.345 N 
ATOM      8  H   UNL     1      -1.200  -0.685  -5.397  0.00  0.00    +0.143 HD
ATOM      9  H   UNL     1      -0.853   0.879  -4.892  0.00  0.00    +0.143 HD
ENDROOT
BRANCH   3  10
ATOM     10  C   UNL     1       0.686  -4.222  -2.753  0.00  0.00    -0.022 A 
ATOM     11  C   UNL     1      -0.472  -4.925  -2.479  0.00  0.00    +0.005 A 
ATOM     12  C   UNL     1      -0.469  -6.307  -2.524  0.00  0.00    +0.000 A 
ATOM     13  C   UNL     1       0.692  -6.986  -2.843  0.00  0.00    +0.001 A 
ATOM     14  C   UNL     1       1.850  -6.284  -3.117  0.00  0.00    +0.020 A 
ATOM     15  C   UNL     1       1.846  -4.901  -3.078  0.00  0.00    +0.045 A 
ATOM     16 CL   UNL     1       3.299  -4.018  -3.429  0.00  0.00    -0.083 Cl
ENDBRANCH   3  10
BRANCH   1  18
ATOM     17  C   UNL     1      -0.552   1.236   0.143  0.00  0.00    +0.199 C 
ATOM     18  O   UNL     1      -0.724  -0.136  -0.216  0.00  0.00    -0.333 OA
ENDBRANCH   1  18
BRANCH   4  19
ATOM     19  C   UNL     1      -1.769  -2.796  -3.538  0.00  0.00    +0.079 C 
ATOM     20  N   UNL     1      -2.656  -3.409  -3.895  0.00  0.00    -0.195 NA
ENDBRANCH   4  19
BRANCH   2  21
ATOM     21  C   UNL     1      -0.826  -2.864  -0.587  0.00  0.00    +0.080 C 
ATOM     22  N   UNL     1      -1.347  -3.494   0.202  0.00  0.00    -0.196 NA
ENDBRANCH   2  21
BRANCH   1  23
ATOM     23  O   UNL     1       1.495  -0.392  -0.919  0.00  0.00    -0.333 OA
ATOM     24  C   UNL     1       1.871  -1.077   0.277  0.00  0.00    +0.199 C 
ENDBRANCH   1  23
TORSDOF 5
