REMARK  Name = ZINC54042298
REMARK  9 active torsions:
REMARK  status: ('A' for Active; 'I' for Inactive)
REMARK    1  A    between atoms: C_1  and  C_2
REMARK    2  A    between atoms: C_7  and  C_8
REMARK    3  A    between atoms: N_10  and  N_11
REMARK    4  A    between atoms: N_14  and  C_15
REMARK    5  A    between atoms: C_15  and  C_16
REMARK    6  A    between atoms: C_16  and  C_18
REMARK    7  A    between atoms: C_16  and  N_26
REMARK    8  A    between atoms: C_23  and  O_24
REMARK    9  A    between atoms: O_24  and  C_25
REMARK                            x       y       z     vdW  Elec       q    Type
REMARK                         _______ _______ _______ _____ _____    ______ ____
ROOT
ATOM      1  N   UNL     1      -2.485  -0.160   7.753  0.00  0.00    -0.218 N 
ATOM      2  C   UNL     1      -1.443  -0.656   7.057  0.00  0.00    +0.316 C 
ATOM      3  O   UNL     1      -0.591   0.093   6.621  0.00  0.00    -0.251 OA
ATOM      4  N   UNL     1      -1.346  -1.984   6.845  0.00  0.00    -0.299 N 
ATOM      5  H   UNL     1      -2.555   0.796   7.906  0.00  0.00    +0.174 HD
ATOM      6  H   UNL     1      -2.026  -2.582   7.193  0.00  0.00    +0.150 HD
ENDROOT
BRANCH   1   9
ATOM      7  C   UNL     1      -4.509  -0.527   8.952  0.00  0.00    +0.260 C 
ATOM      8  O   UNL     1      -4.596   0.670   9.143  0.00  0.00    -0.269 OA
ATOM      9  N   UNL     1      -3.467  -1.023   8.256  0.00  0.00    -0.229 N 
ATOM     10  H   UNL     1      -3.397  -1.979   8.104  0.00  0.00    +0.173 HD
BRANCH   7  17
ATOM     11  C   UNL     1      -6.581   0.515  10.682  0.00  0.00    +0.044 C 
ATOM     12  C   UNL     1      -6.549  -0.947  10.318  0.00  0.00    -0.038 A 
ATOM     13  C   UNL     1      -7.516  -1.802  10.806  0.00  0.00    +0.004 A 
ATOM     14  C   UNL     1      -7.489  -3.144  10.472  0.00  0.00    +0.000 A 
ATOM     15  C   UNL     1      -6.493  -3.639   9.649  0.00  0.00    +0.001 A 
ATOM     16  C   UNL     1      -5.520  -2.795   9.155  0.00  0.00    +0.013 A 
ATOM     17  C   UNL     1      -5.545  -1.438   9.483  0.00  0.00    +0.041 A 
ENDBRANCH   7  17
ENDBRANCH   1   9
BRANCH   4  18
ATOM     18  C   UNL     1      -0.213  -2.523   6.089  0.00  0.00    +0.095 C 
BRANCH  18  19
ATOM     19  C   UNL     1      -0.409  -4.027   5.880  0.00  0.00    -0.017 C 
BRANCH  19  20
ATOM     20  C   UNL     1      -0.373  -4.728   7.213  0.00  0.00    -0.018 A 
ATOM     21  C   UNL     1      -1.551  -5.099   7.831  0.00  0.00    +0.005 A 
ATOM     22  C   UNL     1      -1.519  -5.742   9.055  0.00  0.00    +0.000 A 
ATOM     23  C   UNL     1      -0.307  -6.016   9.662  0.00  0.00    +0.004 A 
ATOM     24  C   UNL     1       0.874  -5.647   9.048  0.00  0.00    +0.046 A 
ATOM     25  C   UNL     1       0.844  -5.006   7.818  0.00  0.00    +0.122 A 
BRANCH  25  26
ATOM     26  O   UNL     1       2.005  -4.647   7.209  0.00  0.00    -0.495 OA
ATOM     27  C   UNL     1       3.220  -4.966   7.890  0.00  0.00    +0.277 C 
ENDBRANCH  25  26
ENDBRANCH  19  20
BRANCH  19  28
ATOM     28  N   UNL     1      -1.708  -4.266   5.236  0.00  0.00    +0.385 N 
ATOM     29  C   UNL     1      -1.786  -3.526   3.950  0.00  0.00    -0.078 C 
ATOM     30  C   UNL     1      -2.884  -4.290   3.168  0.00  0.00    -0.020 C 
ATOM     31  C   UNL     1      -2.624  -5.763   3.558  0.00  0.00    -0.020 C 
ATOM     32  C   UNL     1      -1.848  -5.696   4.887  0.00  0.00    -0.078 C 
ATOM     33  H   UNL     1      -2.458  -3.982   5.848  0.00  0.00    -0.081 HD
ENDBRANCH  19  28
ENDBRANCH  18  19
ENDBRANCH   4  18
TORSDOF 7
