REMARK  Name = ZINC16428575
REMARK  10 active torsions:
REMARK  status: ('A' for Active; 'I' for Inactive)
REMARK    1  A    between atoms: C_3  and  S_26
REMARK    2  A    between atoms: C_6  and  N_7
REMARK    3  A    between atoms: N_7  and  C_8
REMARK    4  A    between atoms: C_8  and  N_10
REMARK    5  A    between atoms: N_10  and  C_11
REMARK    6  A    between atoms: C_14  and  S_21
REMARK    7  A    between atoms: C_16  and  S_17
REMARK    8  A    between atoms: S_17  and  N_20
REMARK    9  A    between atoms: S_21  and  N_24
REMARK   10  A    between atoms: S_26  and  N_29
REMARK                            x       y       z     vdW  Elec       q    Type
REMARK                         _______ _______ _______ _____ _____    ______ ____
ROOT
ATOM      1  C   UNL     1       1.166  -0.785   0.551  0.00  0.00    +0.061 A 
ATOM      2  C   UNL     1       2.038   0.088  -0.085  0.00  0.00    +0.047 A 
ATOM      3  C   UNL     1       2.000   1.438   0.212  0.00  0.00    +0.069 A 
ATOM      4  C   UNL     1       1.093   1.918   1.141  0.00  0.00    +0.125 A 
ATOM      5  C   UNL     1       0.224   1.050   1.776  0.00  0.00    +0.060 A 
ATOM      6  C   UNL     1       0.258  -0.300   1.484  0.00  0.00    +0.128 A 
ATOM      7 CL   UNL     1       3.088   2.532  -0.583  0.00  0.00    -0.081 Cl
ENDROOT
BRANCH   6   8
ATOM      8  S   UNL     1      -0.851  -1.405   2.293  0.00  0.00    +0.058 S 
ATOM      9  O   UNL     1      -0.067  -2.490   2.769  0.00  0.00    -0.153 OA
ATOM     10  O   UNL     1      -1.658  -0.613   3.153  0.00  0.00    -0.153 OA
BRANCH   8  11
ATOM     11  N   UNL     1      -1.859  -2.023   1.133  0.00  0.00    -0.203 NA
ATOM     12  H   UNL     1      -1.760  -1.749   0.208  0.00  0.00    +0.144 HD
ATOM     13  H   UNL     1      -2.549  -2.658   1.380  0.00  0.00    +0.144 HD
ENDBRANCH   8  11
ENDBRANCH   6   8
BRANCH   4  14
ATOM     14  S   UNL     1       1.046   3.639   1.516  0.00  0.00    +0.057 S 
ATOM     15  O   UNL     1       1.010   4.325   0.273  0.00  0.00    -0.153 OA
ATOM     16  O   UNL     1       0.045   3.811   2.510  0.00  0.00    -0.153 OA
BRANCH  14  17
ATOM     17  N   UNL     1       2.491   4.024   2.228  0.00  0.00    -0.203 NA
ATOM     18  H   UNL     1       3.164   3.339   2.361  0.00  0.00    +0.144 HD
ATOM     19  H   UNL     1       2.664   4.936   2.512  0.00  0.00    +0.144 HD
ENDBRANCH  14  17
ENDBRANCH   4  14
BRANCH   1  20
ATOM     20  N   UNL     1       1.202  -2.152   0.254  0.00  0.00    -0.295 N 
ATOM     21  H   UNL     1       0.374  -2.647   0.148  0.00  0.00    +0.154 HD
BRANCH  20  22
ATOM     22  C   UNL     1       2.386  -2.780   0.114  0.00  0.00    +0.139 C 
ATOM     23  S   UNL     1       3.845  -1.929   0.394  0.00  0.00    -0.018 S 
BRANCH  22  24
ATOM     24  N   UNL     1       2.421  -4.078  -0.247  0.00  0.00    -0.297 N 
ATOM     25  H   UNL     1       1.603  -4.535  -0.496  0.00  0.00    +0.154 HD
BRANCH  24  31
ATOM     26  C   UNL     1       3.937  -5.631  -1.309  0.00  0.00    +0.025 A 
ATOM     27  C   UNL     1       5.142  -6.305  -1.324  0.00  0.00    +0.030 A 
ATOM     28  C   UNL     1       6.047  -6.128  -0.294  0.00  0.00    +0.105 A 
ATOM     29  C   UNL     1       5.752  -5.273   0.752  0.00  0.00    +0.030 A 
ATOM     30  C   UNL     1       4.551  -4.592   0.770  0.00  0.00    +0.025 A 
ATOM     31  C   UNL     1       3.639  -4.766  -0.263  0.00  0.00    +0.033 A 
BRANCH  28  32
ATOM     32  S   UNL     1       7.581  -6.995  -0.314  0.00  0.00    +0.056 S 
ATOM     33  O   UNL     1       7.850  -7.314  -1.672  0.00  0.00    -0.153 OA
ATOM     34  O   UNL     1       8.484  -6.242   0.485  0.00  0.00    -0.153 OA
BRANCH  32  35
ATOM     35  N   UNL     1       7.341  -8.433   0.472  0.00  0.00    -0.204 NA
ATOM     36  H   UNL     1       7.860  -9.214   0.223  0.00  0.00    +0.144 HD
ATOM     37  H   UNL     1       6.682  -8.494   1.181  0.00  0.00    +0.144 HD
ENDBRANCH  32  35
ENDBRANCH  28  32
ENDBRANCH  24  31
ENDBRANCH  22  24
ENDBRANCH  20  22
ENDBRANCH   1  20
TORSDOF 10
