REMARK  Name = ZINC59878738
REMARK  12 active torsions:
REMARK  status: ('A' for Active; 'I' for Inactive)
REMARK    1  A    between atoms: C_1  and  C_2
REMARK    2  A    between atoms: C_2  and  C_4
REMARK    3  A    between atoms: C_2  and  S_13
REMARK    4  A    between atoms: N_6  and  N_7
REMARK    5  A    between atoms: C_8  and  C_10
REMARK    6  A    between atoms: C_10  and  C_11
REMARK    7  A    between atoms: C_10  and  C_12
REMARK    8  A    between atoms: S_13  and  C_14
REMARK    9  A    between atoms: N_19  and  N_20
REMARK   10  A    between atoms: C_21  and  C_22
REMARK   11  A    between atoms: C_24  and  N_29
REMARK   12  A    between atoms: C_27  and  O_28
REMARK                            x       y       z     vdW  Elec       q    Type
REMARK                         _______ _______ _______ _____ _____    ______ ____
ROOT
ATOM      1  C   UNL     1       2.509  -0.029  -1.285  0.00  0.00    +0.211 A 
ATOM      2  N   UNL     1       3.505  -0.221  -2.143  0.00  0.00    -0.186 NA
ATOM      3  C   UNL     1       4.591   0.351  -1.629  0.00  0.00    +0.232 A 
ATOM      4  N   UNL     1       4.228   0.901  -0.426  0.00  0.00    -0.245 N 
ATOM      5  N   UNL     1       2.974   0.666  -0.244  0.00  0.00    -0.144 NA
ATOM      6  N   UNL     1       5.818   0.382  -2.187  0.00  0.00    -0.205 N 
ATOM      7  H   UNL     1       6.548   0.827  -1.728  0.00  0.00    +0.177 HD
ATOM      8  H   UNL     1       4.812   1.385   0.178  0.00  0.00    +0.192 HD
ENDROOT
BRANCH   6   9
ATOM      9  N   UNL     1       6.022  -0.179  -3.330  0.00  0.00    -0.187 NA
ATOM     10  C   UNL     1       7.233  -0.148  -3.880  0.00  0.00    +0.142 C 
BRANCH  10  11
ATOM     11  C   UNL     1       7.455  -0.760  -5.126  0.00  0.00    +0.038 A 
ATOM     12  C   UNL     1       8.737  -0.740  -5.720  0.00  0.00    +0.045 A 
ATOM     13  C   UNL     1       8.935  -1.337  -6.926  0.00  0.00    +0.127 A 
ATOM     14  C   UNL     1       7.894  -1.974  -7.595  0.00  0.00    +0.036 A 
ATOM     15  C   UNL     1       6.623  -2.023  -7.061  0.00  0.00    +0.048 A 
ATOM     16  C   UNL     1       6.363  -1.436  -5.831  0.00  0.00    +0.126 A 
BRANCH  13  17
ATOM     17  N   UNL     1      10.283  -1.309  -7.538  0.00  0.00    +0.056 N 
ATOM     18  O   UNL     1      11.277  -0.709  -6.915  0.00  0.00    -0.126 OA
ATOM     19  O   UNL     1      10.488  -1.883  -8.705  0.00  0.00    -0.126 OA
ENDBRANCH  13  17
BRANCH  16  20
ATOM     20  O   UNL     1       5.122  -1.482  -5.294  0.00  0.00    -0.506 OA
ATOM     21  H   UNL     1       4.556  -0.739  -5.546  0.00  0.00    +0.292 HD
ENDBRANCH  16  20
ENDBRANCH  10  11
ENDBRANCH   6   9
BRANCH   1  22
ATOM     22  S   UNL     1       0.851  -0.589  -1.490  0.00  0.00    -0.072 S 
BRANCH  22  24
ATOM     23  C   UNL     1      -0.019   1.526   0.010  0.00  0.00    +0.029 C 
ATOM     24  C   UNL     1       0.002  -0.004   0.002  0.00  0.00    +0.138 C 
BRANCH  24  25
ATOM     25  C   UNL     1      -1.412  -0.526   0.013  0.00  0.00    +0.242 C 
ATOM     26  O   UNL     1      -1.927  -0.901  -1.019  0.00  0.00    -0.273 OA
ATOM     27  N   UNL     1      -2.103  -0.575   1.169  0.00  0.00    -0.233 N 
ATOM     28  H   UNL     1      -1.691  -0.275   1.994  0.00  0.00    +0.173 HD
BRANCH  27  29
ATOM     29  N   UNL     1      -3.417  -1.060   1.179  0.00  0.00    -0.234 N 
ATOM     30  C   UNL     1      -4.109  -1.109   2.334  0.00  0.00    +0.232 C 
ATOM     31  O   UNL     1      -3.593  -0.734   3.366  0.00  0.00    -0.274 OA
ATOM     32  H   UNL     1      -3.830  -1.360   0.353  0.00  0.00    +0.173 HD
BRANCH  30  33
ATOM     33  C   UNL     1      -5.523  -1.631   2.345  0.00  0.00    +0.070 C 
ATOM     34  C   UNL     1      -5.537  -3.076   1.844  0.00  0.00    +0.017 C 
ATOM     35  C   UNL     1      -6.074  -1.580   3.771  0.00  0.00    +0.017 C 
ENDBRANCH  30  33
ENDBRANCH  27  29
ENDBRANCH  24  25
ENDBRANCH  22  24
ENDBRANCH   1  22
TORSDOF 9
