REMARK  Name = ZINC11290263
REMARK  7 active torsions:
REMARK  status: ('A' for Active; 'I' for Inactive)
REMARK    1  A    between atoms: C_3  and  C_27
REMARK    2  A    between atoms: C_6  and  C_7
REMARK    3  A    between atoms: C_10  and  C_12
REMARK    4  A    between atoms: C_13  and  C_14
REMARK    5  A    between atoms: C_13  and  C_16
REMARK    6  A    between atoms: N_18  and  C_19
REMARK    7  A    between atoms: C_22  and  C_25
REMARK                            x       y       z     vdW  Elec       q    Type
REMARK                         _______ _______ _______ _____ _____    ______ ____
ROOT
ATOM      1  C   UNL     1       3.565   1.886   0.113  0.00  0.00    +0.070 C 
ATOM      2  C   UNL     1       2.422   1.100   0.109  0.00  0.00    +0.117 C 
ENDROOT
BRANCH   1   6
ATOM      3  C   UNL     1       6.400  -0.249   0.370  0.00  0.00    +0.136 A 
ATOM      4  C   UNL     1       7.040   0.971   0.325  0.00  0.00    +0.050 A 
ATOM      5  C   UNL     1       6.050   1.948   0.222  0.00  0.00    +0.050 A 
ATOM      6  C   UNL     1       4.832   1.283   0.207  0.00  0.00    +0.130 A 
ATOM      7  O   UNL     1       5.074  -0.041   0.304  0.00  0.00    -0.455 OA
BRANCH   3  13
ATOM      8  C   UNL     1       8.455  -1.643   0.543  0.00  0.00    +0.012 A 
ATOM      9  C   UNL     1       9.069  -2.864   0.650  0.00  0.00    +0.016 A 
ATOM     10  C   UNL     1       8.300  -4.031   0.685  0.00  0.00    +0.063 A 
ATOM     11  C   UNL     1       6.906  -3.953   0.618  0.00  0.00    +0.016 A 
ATOM     12  C   UNL     1       6.292  -2.732   0.516  0.00  0.00    +0.012 A 
ATOM     13  C   UNL     1       7.060  -1.564   0.480  0.00  0.00    +0.017 A 
BRANCH  10  14
ATOM     14  C   UNL     1       8.961  -5.347   0.794  0.00  0.00    +0.387 C 
ATOM     15  O   UNL     1       8.293  -6.361   0.825  0.00  0.00    -0.241 OA
ATOM     16  O   UNL     1      10.305  -5.422   0.859  0.00  0.00    -0.241 OA
ENDBRANCH  10  14
ENDBRANCH   3  13
ENDBRANCH   1   6
BRANCH   2  17
ATOM     17  C   UNL     1       1.100   1.729   0.011  0.00  0.00    +0.259 C 
ATOM     18  O   UNL     1       1.006   2.940  -0.066  0.00  0.00    -0.269 OA
ATOM     19  N   UNL     1      -0.011   0.966   0.007  0.00  0.00    -0.281 N 
ATOM     20  H   UNL     1       0.065  -0.001   0.002  0.00  0.00    +0.155 HD
BRANCH  19  21
ATOM     21  C   UNL     1      -1.268   1.565   0.005  0.00  0.00    +0.034 A 
ATOM     22  C   UNL     1      -1.467   2.758  -0.685  0.00  0.00    +0.024 A 
ATOM     23  C   UNL     1      -2.710   3.350  -0.694  0.00  0.00    +0.017 A 
ATOM     24  C   UNL     1      -3.770   2.758  -0.001  0.00  0.00    +0.063 A 
ATOM     25  C   UNL     1      -3.565   1.563   0.696  0.00  0.00    +0.017 A 
ATOM     26  C   UNL     1      -2.321   0.973   0.696  0.00  0.00    +0.024 A 
BRANCH  24  27
ATOM     27  C   UNL     1      -5.101   3.393  -0.004  0.00  0.00    +0.387 C 
ATOM     28  O   UNL     1      -6.021   2.877   0.599  0.00  0.00    -0.241 OA
ATOM     29  O   UNL     1      -5.297   4.544  -0.675  0.00  0.00    -0.241 OA
ENDBRANCH  24  27
ENDBRANCH  19  21
ENDBRANCH   2  17
BRANCH   2  30
ATOM     30  C   UNL     1       2.533  -0.325   0.200  0.00  0.00    +0.104 C 
ATOM     31  N   UNL     1       2.620  -1.455   0.273  0.00  0.00    -0.191 NA
ENDBRANCH   2  30
TORSDOF 7
