REMARK  Name = ZINC15188164
REMARK  7 active torsions:
REMARK  status: ('A' for Active; 'I' for Inactive)
REMARK    1  A    between atoms: C_1  and  C_2
REMARK    2  A    between atoms: C_6  and  N_9
REMARK    3  A    between atoms: C_7  and  C_8
REMARK    4  A    between atoms: C_10  and  C_11
REMARK    5  A    between atoms: N_31  and  C_34
REMARK    6  A    between atoms: C_37  and  O_40
REMARK    7  A    between atoms: O_40  and  C_41
REMARK                            x       y       z     vdW  Elec       q    Type
REMARK                         _______ _______ _______ _____ _____    ______ ____
ROOT
ATOM      1  C   UNL     1       0.364  -4.798   3.430  0.00  0.00    +0.068 C 
ATOM      2  C   UNL     1      -0.853  -5.670   3.691  0.00  0.00    -0.027 A 
ATOM      3  C   UNL     1      -1.752  -6.061   2.740  0.00  0.00    +0.005 A 
ATOM      4  C   UNL     1      -2.822  -6.860   3.119  0.00  0.00    +0.000 A 
ATOM      5  C   UNL     1      -2.973  -7.252   4.436  0.00  0.00    +0.000 A 
ATOM      6  C   UNL     1      -2.055  -6.851   5.398  0.00  0.00    +0.004 A 
ATOM      7  C   UNL     1      -1.005  -6.064   5.019  0.00  0.00    -0.035 A 
ATOM      8  C   UNL     1       0.075  -5.546   5.955  0.00  0.00    +0.062 C 
ATOM      9  C   UNL     1       0.099  -4.040   5.745  0.00  0.00    -0.035 A 
ATOM     10  C   UNL     1       0.252  -3.647   4.417  0.00  0.00    -0.027 A 
ATOM     11  C   UNL     1       0.291  -2.324   4.081  0.00  0.00    +0.005 A 
ATOM     12  C   UNL     1       0.174  -1.374   5.087  0.00  0.00    +0.000 A 
ATOM     13  C   UNL     1       0.023  -1.764   6.405  0.00  0.00    +0.000 A 
ATOM     14  C   UNL     1      -0.015  -3.112   6.739  0.00  0.00    +0.004 A 
ATOM     15  C   UNL     1       1.408  -6.064   5.372  0.00  0.00    +0.101 C 
ATOM     16  C   UNL     1       1.591  -5.616   3.890  0.00  0.00    +0.109 C 
ATOM     17  C   UNL     1       2.801  -4.708   3.904  0.00  0.00    +0.232 C 
ATOM     18  O   UNL     1       3.268  -4.144   2.938  0.00  0.00    -0.274 OA
ATOM     19  N   UNL     1       3.275  -4.628   5.154  0.00  0.00    -0.210 N 
ATOM     20  C   UNL     1       2.550  -5.369   6.081  0.00  0.00    +0.231 C 
ATOM     21  O   UNL     1       2.788  -5.442   7.268  0.00  0.00    -0.274 OA
ENDROOT
BRANCH  19  22
ATOM     22  C   UNL     1       4.398  -3.857   5.492  0.00  0.00    +0.044 A 
ATOM     23  C   UNL     1       4.346  -2.473   5.397  0.00  0.00    +0.027 A 
ATOM     24  C   UNL     1       5.451  -1.716   5.730  0.00  0.00    +0.047 A 
ATOM     25  C   UNL     1       6.614  -2.337   6.160  0.00  0.00    +0.120 A 
ATOM     26  C   UNL     1       6.668  -3.720   6.255  0.00  0.00    +0.047 A 
ATOM     27  C   UNL     1       5.561  -4.478   5.928  0.00  0.00    +0.027 A 
BRANCH  25  28
ATOM     28  O   UNL     1       7.702  -1.591   6.488  0.00  0.00    -0.495 OA
ATOM     29  C   UNL     1       8.866  -2.297   6.923  0.00  0.00    +0.277 C 
ENDBRANCH  25  28
ENDBRANCH  19  22
BRANCH   1  31
ATOM     30  N   UNL     1       1.458  -4.723   1.266  0.00  0.00    -0.258 NA
ATOM     31  C   UNL     1       0.466  -4.340   1.998  0.00  0.00    +0.101 C 
BRANCH  30  37
ATOM     32  C   UNL     1       2.267  -5.564  -3.492  0.00  0.00    +0.044 C 
ATOM     33  C   UNL     1       1.990  -4.621  -2.349  0.00  0.00    -0.046 A 
ATOM     34  C   UNL     1       1.875  -3.263  -2.588  0.00  0.00    +0.004 A 
ATOM     35  C   UNL     1       1.621  -2.390  -1.545  0.00  0.00    +0.002 A 
ATOM     36  C   UNL     1       1.481  -2.871  -0.259  0.00  0.00    +0.028 A 
ATOM     37  C   UNL     1       1.596  -4.239  -0.012  0.00  0.00    +0.067 A 
ATOM     38  C   UNL     1       1.847  -5.114  -1.069  0.00  0.00    -0.022 A 
ATOM     39  C   UNL     1       1.967  -6.594  -0.812  0.00  0.00    +0.046 C 
ENDBRANCH  30  37
ENDBRANCH   1  31
TORSDOF 4
