REMARK  Name = ZINC51637487
REMARK  3 active torsions:
REMARK  status: ('A' for Active; 'I' for Inactive)
REMARK    1  A    between atoms: C_6  and  C_7
REMARK    2  A    between atoms: N_9  and  C_10
REMARK    3  A    between atoms: C_14  and  C_16
REMARK                            x       y       z     vdW  Elec       q    Type
REMARK                         _______ _______ _______ _____ _____    ______ ____
ROOT
ATOM      1  C   UNL     1      -1.266  -0.763   0.012  0.00  0.00    +0.248 C 
ATOM      2  O   UNL     1      -2.328  -0.172   0.034  0.00  0.00    -0.270 OA
ATOM      3  N   UNL     1      -1.245  -2.111   0.003  0.00  0.00    -0.281 N 
ATOM      4  H   UNL     1      -0.401  -2.582  -0.082  0.00  0.00    +0.155 HD
ENDROOT
BRANCH   1  10
ATOM      5  C   UNL     1      -0.017   1.392   0.005  0.00  0.00    +0.014 A 
ATOM      6  C   UNL     1       1.170   2.096  -0.010  0.00  0.00    +0.019 A 
ATOM      7  C   UNL     1       2.378   1.421  -0.034  0.00  0.00    +0.053 A 
ATOM      8  C   UNL     1       2.405   0.035  -0.044  0.00  0.00    +0.138 A 
ATOM      9  C   UNL     1       1.223  -0.680  -0.029  0.00  0.00    +0.052 A 
ATOM     10  C   UNL     1       0.002  -0.004  -0.004  0.00  0.00    +0.040 A 
ATOM     11  F   UNL     1       3.588  -0.617  -0.069  0.00  0.00    -0.204 F 
ATOM     12 BR   UNL     1       3.999   2.395  -0.056  0.00  0.00    -0.047 Br
ENDBRANCH   1  10
BRANCH   3  13
ATOM     13  C   UNL     1      -2.440  -2.830   0.117  0.00  0.00    +0.035 A 
ATOM     14  C   UNL     1      -3.603  -2.341  -0.467  0.00  0.00    +0.026 A 
ATOM     15  C   UNL     1      -4.787  -3.045  -0.359  0.00  0.00    +0.041 A 
ATOM     16  C   UNL     1      -4.822  -4.243   0.331  0.00  0.00    +0.141 A 
ATOM     17  C   UNL     1      -3.657  -4.744   0.921  0.00  0.00    +0.089 A 
ATOM     18  C   UNL     1      -2.462  -4.032   0.806  0.00  0.00    +0.045 A 
ATOM     19  F   UNL     1      -5.981  -4.929   0.436  0.00  0.00    -0.204 F 
BRANCH  17  20
ATOM     20  C   UNL     1      -3.689  -5.984   1.637  0.00  0.00    +0.102 C 
ATOM     21  N   UNL     1      -3.714  -6.967   2.205  0.00  0.00    -0.191 NA
ENDBRANCH  17  20
ENDBRANCH   3  13
TORSDOF 3
