REMARK  Name = ZINC39916487
REMARK  8 active torsions:
REMARK  status: ('A' for Active; 'I' for Inactive)
REMARK    1  A    between atoms: C_1  and  O_2
REMARK    2  A    between atoms: O_2  and  C_3
REMARK    3  A    between atoms: C_6  and  S_11
REMARK    4  A    between atoms: C_8  and  O_9
REMARK    5  A    between atoms: O_9  and  C_10
REMARK    6  A    between atoms: S_11  and  N_14
REMARK    7  A    between atoms: C_23  and  C_25
REMARK    8  A    between atoms: N_27  and  C_28
REMARK                            x       y       z     vdW  Elec       q    Type
REMARK                         _______ _______ _______ _____ _____    ______ ____
ROOT
ATOM      1  N   UNL     1       4.312  -3.170  -4.368  0.00  0.00    -0.160 NA
ATOM      2  C   UNL     1       5.394  -2.204  -4.587  0.00  0.00    +0.145 C 
ATOM      3  C   UNL     1       6.684  -2.939  -4.853  0.00  0.00    -0.028 A 
ATOM      4  C   UNL     1       7.764  -2.204  -5.322  0.00  0.00    +0.005 A 
ATOM      5  C   UNL     1       8.973  -2.818  -5.574  0.00  0.00    +0.000 A 
ATOM      6  C   UNL     1       9.110  -4.177  -5.357  0.00  0.00    +0.000 A 
ATOM      7  C   UNL     1       8.037  -4.909  -4.896  0.00  0.00    +0.004 A 
ATOM      8  C   UNL     1       6.816  -4.294  -4.647  0.00  0.00    -0.041 A 
ATOM      9  C   UNL     1       5.681  -5.162  -4.171  0.00  0.00    +0.065 C 
ATOM     10  C   UNL     1       4.596  -4.318  -3.492  0.00  0.00    +0.170 C 
ENDROOT
BRANCH  10  11
ATOM     11  C   UNL     1       3.347  -5.140  -3.306  0.00  0.00    +0.236 C 
ATOM     12  O   UNL     1       3.054  -5.990  -4.120  0.00  0.00    -0.274 OA
ATOM     13  N   UNL     1       2.555  -4.930  -2.236  0.00  0.00    -0.283 N 
ATOM     14  H   UNL     1       2.819  -4.291  -1.555  0.00  0.00    +0.155 HD
BRANCH  13  15
ATOM     15  C   UNL     1       1.351  -5.634  -2.107  0.00  0.00    +0.052 A 
ATOM     16  C   UNL     1       1.237  -6.916  -2.626  0.00  0.00    +0.026 A 
ATOM     17  C   UNL     1       0.048  -7.609  -2.497  0.00  0.00    +0.022 A 
ATOM     18  C   UNL     1      -1.028  -7.025  -1.852  0.00  0.00    +0.042 A 
ATOM     19  C   UNL     1      -0.917  -5.747  -1.334  0.00  0.00    +0.041 A 
ATOM     20  C   UNL     1       0.272  -5.052  -1.454  0.00  0.00    +0.064 A 
ATOM     21 CL   UNL     1       0.413  -3.451  -0.798  0.00  0.00    -0.082 Cl
ATOM     22 CL   UNL     1      -2.520  -7.898  -1.694  0.00  0.00    -0.083 Cl
ENDBRANCH  13  15
ENDBRANCH  10  11
BRANCH   1  23
ATOM     23  S   UNL     1       2.826  -2.972  -5.074  0.00  0.00    +0.062 S 
ATOM     24  O   UNL     1       2.717  -1.596  -5.411  0.00  0.00    -0.153 OA
ATOM     25  O   UNL     1       1.887  -3.628  -4.233  0.00  0.00    -0.153 OA
BRANCH  23  29
ATOM     26  C   UNL     1       2.881  -5.267  -8.981  0.00  0.00    +0.162 A 
ATOM     27  C   UNL     1       2.288  -5.820  -7.858  0.00  0.00    +0.051 A 
ATOM     28  C   UNL     1       2.273  -5.117  -6.667  0.00  0.00    +0.032 A 
ATOM     29  C   UNL     1       2.849  -3.863  -6.594  0.00  0.00    +0.109 A 
ATOM     30  C   UNL     1       3.442  -3.305  -7.711  0.00  0.00    +0.078 A 
ATOM     31  C   UNL     1       3.466  -4.006  -8.906  0.00  0.00    +0.163 A 
BRANCH  26  33
ATOM     32  C   UNL     1       2.278  -7.245 -10.156  0.00  0.00    +0.277 C 
ATOM     33  O   UNL     1       2.897  -5.957 -10.153  0.00  0.00    -0.491 OA
ENDBRANCH  26  33
BRANCH  31  34
ATOM     34  O   UNL     1       4.055  -3.462 -10.004  0.00  0.00    -0.491 OA
ATOM     35  C   UNL     1       4.635  -2.165  -9.854  0.00  0.00    +0.277 C 
ENDBRANCH  31  34
ENDBRANCH  23  29
ENDBRANCH   1  23
TORSDOF 6
