REMARK  Name = ZINC20325788
REMARK  1 active torsions:
REMARK  status: ('A' for Active; 'I' for Inactive)
REMARK    1  A    between atoms: C_3  and  N_8
REMARK                            x       y       z     vdW  Elec       q    Type
REMARK                         _______ _______ _______ _____ _____    ______ ____
ROOT
ATOM      1  N   UNL     1       5.928  -3.147   7.891  0.00  0.00    -0.267 N 
ATOM      2  C   UNL     1       6.620  -2.180   7.232  0.00  0.00    +0.207 A 
ATOM      3  N   UNL     1       6.174  -1.599   6.163  0.00  0.00    -0.235 NA
ATOM      4  C   UNL     1       4.966  -1.918   5.616  0.00  0.00    +0.094 A 
ATOM      5  C   UNL     1       4.345  -1.339   4.413  0.00  0.00    +0.037 A 
ATOM      6  C   UNL     1       4.879  -0.326   3.570  0.00  0.00    -0.029 A 
ATOM      7  C   UNL     1       4.167   0.085   2.492  0.00  0.00    -0.004 A 
ATOM      8  C   UNL     1       2.909  -0.480   2.230  0.00  0.00    +0.126 A 
ATOM      9  N   UNL     1       2.414  -1.421   3.014  0.00  0.00    -0.225 NA
ATOM     10  C   UNL     1       3.083  -1.850   4.065  0.00  0.00    +0.113 A 
ATOM     11  S   UNL     1       2.747  -3.069   5.312  0.00  0.00    -0.062 S 
ATOM     12  C   UNL     1       4.230  -2.906   6.268  0.00  0.00    +0.105 A 
ATOM     13  C   UNL     1       4.717  -3.530   7.422  0.00  0.00    +0.273 A 
ATOM     14  O   UNL     1       4.069  -4.395   7.989  0.00  0.00    -0.266 OA
ATOM     15  N   UNL     1       2.179  -0.049   1.131  0.00  0.00    -0.311 N 
ATOM     16  C   UNL     1       1.962  -1.147   0.179  0.00  0.00    +0.134 C 
ATOM     17  C   UNL     1       1.207  -0.615  -1.042  0.00  0.00    +0.178 C 
ATOM     18  O   UNL     1      -0.021  -0.019  -0.614  0.00  0.00    -0.377 OA
ATOM     19  C   UNL     1       0.154   1.055   0.314  0.00  0.00    +0.178 C 
ATOM     20  C   UNL     1       0.898   0.540   1.548  0.00  0.00    +0.134 C 
ATOM     21  C   UNL     1       4.668   1.145   1.546  0.00  0.00    +0.039 C 
ATOM     22  C   UNL     1       5.794   1.952   2.190  0.00  0.00    +0.005 C 
ATOM     23  C   UNL     1       6.838   0.973   2.740  0.00  0.00    +0.005 C 
ATOM     24  C   UNL     1       6.226   0.238   3.932  0.00  0.00    +0.036 C 
ENDROOT
BRANCH   1  27
ATOM     25  C   UNL     1       8.115  -5.128  10.088  0.00  0.00    +0.003 A 
ATOM     26  C   UNL     1       7.590  -4.544   8.951  0.00  0.00    +0.026 A 
ATOM     27  C   UNL     1       6.462  -3.740   9.043  0.00  0.00    +0.052 A 
ATOM     28  C   UNL     1       5.867  -3.521  10.278  0.00  0.00    +0.046 A 
ATOM     29  C   UNL     1       6.393  -4.112  11.411  0.00  0.00    +0.043 A 
ATOM     30  C   UNL     1       7.518  -4.912  11.316  0.00  0.00    +0.020 A 
ATOM     31 CL   UNL     1       5.646  -3.844  12.955  0.00  0.00    -0.083 Cl
ENDBRANCH   1  27
TORSDOF 1
