REMARK  Name = ZINC58806663
REMARK  14 active torsions:
REMARK  status: ('A' for Active; 'I' for Inactive)
REMARK    1  A    between atoms: C_1  and  C_2
REMARK    2  A    between atoms: C_2  and  O_3
REMARK    3  A    between atoms: O_3  and  C_4
REMARK    4  A    between atoms: C_4  and  C_5
REMARK    5  A    between atoms: C_5  and  O_6
REMARK    6  A    between atoms: O_6  and  C_7
REMARK    7  A    between atoms: C_7  and  C_8
REMARK    8  A    between atoms: C_12  and  C_14
REMARK    9  A    between atoms: C_14  and  N_15
REMARK   10  A    between atoms: C_16  and  C_18
REMARK   11  A    between atoms: C_18  and  C_19
REMARK   12  A    between atoms: C_19  and  C_20
REMARK   13  A    between atoms: C_20  and  C_21
REMARK   14  A    between atoms: C_21  and  C_22
REMARK                            x       y       z     vdW  Elec       q    Type
REMARK                         _______ _______ _______ _____ _____    ______ ____
ROOT
ATOM      1  C   UNL     1       8.316  -2.842  -2.111  0.00  0.00    +0.139 C 
ENDROOT
BRANCH   1   6
ATOM      2  C   UNL     1       5.015  -1.612  -3.469  0.00  0.00    -0.022 A 
ATOM      3  C   UNL     1       5.340  -0.328  -3.865  0.00  0.00    +0.006 A 
ATOM      4  C   UNL     1       6.629   0.142  -3.694  0.00  0.00    +0.001 A 
ATOM      5  C   UNL     1       7.592  -0.672  -3.126  0.00  0.00    +0.005 A 
ATOM      6  C   UNL     1       7.266  -1.955  -2.729  0.00  0.00    -0.030 A 
ATOM      7  C   UNL     1       5.976  -2.424  -2.897  0.00  0.00    +0.011 A 
BRANCH   2   8
ATOM      8  C   UNL     1       3.610  -2.125  -3.655  0.00  0.00    +0.195 C 
BRANCH   8   9
ATOM      9  O   UNL     1       2.834  -1.820  -2.495  0.00  0.00    -0.373 OA
BRANCH   9  10
ATOM     10  C   UNL     1       1.478  -2.265  -2.569  0.00  0.00    +0.188 C 
BRANCH  10  11
ATOM     11  C   UNL     1       0.746  -1.888  -1.280  0.00  0.00    +0.188 C 
BRANCH  11  12
ATOM     12  O   UNL     1       0.671  -0.465  -1.174  0.00  0.00    -0.378 OA
BRANCH  12  14
ATOM     13  C   UNL     1      -0.019   1.526   0.010  0.00  0.00    +0.034 C 
ATOM     14  C   UNL     1       0.002  -0.004   0.002  0.00  0.00    +0.156 C 
ENDBRANCH  12  14
ENDBRANCH  11  12
ENDBRANCH  10  11
ENDBRANCH   9  10
ENDBRANCH   8   9
ENDBRANCH   2   8
ENDBRANCH   1   6
BRANCH   1  15
ATOM     15  N   UNL     1       8.318  -2.657  -0.658  0.00  0.00    -0.311 N 
ATOM     16  C   UNL     1       9.181  -3.352   0.109  0.00  0.00    +0.213 C 
ATOM     17  O   UNL     1       9.955  -4.132  -0.404  0.00  0.00    -0.276 OA
ATOM     18  H   UNL     1       7.698  -2.033  -0.248  0.00  0.00    +0.149 HD
BRANCH  16  19
ATOM     19  C   UNL     1       9.183  -3.161   1.604  0.00  0.00    +0.096 C 
BRANCH  19  20
ATOM     20  C   UNL     1      10.249  -4.062   2.231  0.00  0.00    +0.009 C 
BRANCH  20  21
ATOM     21  C   UNL     1      10.251  -3.868   3.749  0.00  0.00    +0.002 C 
BRANCH  21  22
ATOM     22  C   UNL     1      11.316  -4.769   4.377  0.00  0.00    +0.015 C 
BRANCH  22  23
ATOM     23  C   UNL     1      11.319  -4.575   5.894  0.00  0.00    +0.058 C 
ATOM     24  C   UNL     1      12.329  -5.536   6.559  0.00  0.00    +0.026 C 
ATOM     25  C   UNL     1      12.628  -5.208   8.039  0.00  0.00    +0.082 C 
ATOM     26  S   UNL     1      12.982  -3.394   8.053  0.00  0.00    -0.093 S 
ATOM     27  S   UNL     1      11.925  -2.883   6.327  0.00  0.00    -0.090 S 
ENDBRANCH  22  23
ENDBRANCH  21  22
ENDBRANCH  20  21
ENDBRANCH  19  20
ENDBRANCH  16  19
ENDBRANCH   1  15
TORSDOF 13
