REMARK  Name = ZINC09467928
REMARK  11 active torsions:
REMARK  status: ('A' for Active; 'I' for Inactive)
REMARK    1  A    between atoms: C_1  and  C_2
REMARK    2  A    between atoms: C_2  and  C_3
REMARK    3  A    between atoms: C_2  and  C_4
REMARK    4  A    between atoms: C_2  and  N_5
REMARK    5  A    between atoms: C_9  and  C_11
REMARK    6  A    between atoms: C_11  and  N_50
REMARK    7  A    between atoms: C_12  and  N_50
REMARK    8  A    between atoms: C_13  and  C_14
REMARK    9  A    between atoms: C_13  and  N_50
REMARK   10  A    between atoms: N_16  and  C_17
REMARK   11  A    between atoms: C_21  and  C_23
REMARK                            x       y       z     vdW  Elec       q    Type
REMARK                         _______ _______ _______ _____ _____    ______ ____
ROOT
ATOM      1  C   UNL     1       1.277   1.961   0.161  0.00  0.00    +0.019 C 
ENDROOT
BRANCH   1   2
ATOM      2  C   UNL     1      -0.027   1.205   0.175  0.00  0.00    +0.201 C 
ATOM      3  O   UNL     1      -0.028   0.001   0.322  0.00  0.00    -0.278 OA
ATOM      4  N   UNL     1      -1.191   1.867   0.018  0.00  0.00    -0.287 N 
ATOM      5  H   UNL     1      -1.196   2.836  -0.023  0.00  0.00    +0.155 HD
BRANCH   4   6
ATOM      6  C   UNL     1      -2.391   1.155  -0.086  0.00  0.00    +0.034 A 
ATOM      7  C   UNL     1      -2.412  -0.089  -0.704  0.00  0.00    +0.025 A 
ATOM      8  C   UNL     1      -3.597  -0.791  -0.800  0.00  0.00    +0.022 A 
ATOM      9  C   UNL     1      -4.766  -0.252  -0.292  0.00  0.00    +0.053 A 
ATOM     10  C   UNL     1      -4.749   0.990   0.319  0.00  0.00    +0.075 A 
ATOM     11  C   UNL     1      -3.565   1.694   0.423  0.00  0.00    +0.037 A 
ATOM     12 CL   UNL     1      -6.255  -1.134  -0.421  0.00  0.00    -0.083 Cl
BRANCH  10  13
ATOM     13  C   UNL     1      -6.024   1.573   0.872  0.00  0.00    +0.419 C 
ATOM     14  F   UNL     1      -5.756   2.825   1.438  0.00  0.00    -0.166 F 
ATOM     15  F   UNL     1      -6.957   1.718  -0.160  0.00  0.00    -0.166 F 
ATOM     16  F   UNL     1      -6.540   0.720   1.853  0.00  0.00    -0.166 F 
ENDBRANCH  10  13
ENDBRANCH   4   6
ENDBRANCH   1   2
BRANCH   1  18
ATOM     17  C   UNL     1       2.353   0.412   1.680  0.00  0.00    -0.095 C 
ATOM     18  N   UNL     1       2.387   0.999   0.324  0.00  0.00    +0.389 N 
ATOM     19  H   UNL     1       2.281   0.247  -0.367  0.00  0.00    -0.081 HD
BRANCH  18  20
ATOM     20  C   UNL     1       3.681   1.678   0.101  0.00  0.00    +0.019 C 
BRANCH  20  25
ATOM     21  N   UNL     1       8.304   0.463  -0.414  0.00  0.00    -0.294 N 
ATOM     22  C   UNL     1       7.027   0.088  -0.201  0.00  0.00    +0.306 C 
ATOM     23  O   UNL     1       6.756  -1.087  -0.047  0.00  0.00    -0.252 OA
ATOM     24  N   UNL     1       6.050   1.016  -0.159  0.00  0.00    -0.242 N 
ATOM     25  C   UNL     1       4.773   0.641   0.054  0.00  0.00    +0.204 C 
ATOM     26  O   UNL     1       4.503  -0.531   0.207  0.00  0.00    -0.277 OA
ATOM     27  H   UNL     1       8.520   1.400  -0.537  0.00  0.00    +0.151 HD
ATOM     28  H   UNL     1       6.266   1.953  -0.282  0.00  0.00    +0.159 HD
BRANCH  21  30
ATOM     29  C   UNL     1       9.078  -1.538  -1.588  0.00  0.00    +0.031 C 
ATOM     30  C   UNL     1       9.365  -0.546  -0.459  0.00  0.00    +0.028 C 
ATOM     31  C   UNL     1      10.709   0.139  -0.712  0.00  0.00    +0.031 C 
ATOM     32  C   UNL     1       9.416  -1.293   0.875  0.00  0.00    +0.031 C 
ENDBRANCH  21  30
ENDBRANCH  20  25
ENDBRANCH  18  20
ENDBRANCH   1  18
TORSDOF 7
