REMARK  Name = ZINC39465933
REMARK  5 active torsions:
REMARK  status: ('A' for Active; 'I' for Inactive)
REMARK    1  A    between atoms: C_1  and  S_2
REMARK    2  A    between atoms: S_2  and  C_3
REMARK    3  A    between atoms: P_14  and  S_20
REMARK    4  A    between atoms: S_20  and  O_23
REMARK    5  A    between atoms: O_23  and  C_24
REMARK                            x       y       z     vdW  Elec       q    Type
REMARK                         _______ _______ _______ _____ _____    ______ ____
ROOT
ATOM      1  C   UNL     1      -1.702  -0.454   0.016  0.00  0.00    +0.022 A 
ATOM      2  C   UNL     1      -2.683   0.528   0.025  0.00  0.00    +0.019 A 
ATOM      3  C   UNL     1      -4.022   0.177   0.035  0.00  0.00    -0.040 A 
ATOM      4  C   UNL     1      -4.387  -1.153   0.036  0.00  0.00    -0.022 A 
ATOM      5  C   UNL     1      -3.407  -2.137   0.028  0.00  0.00    +0.022 A 
ATOM      6  C   UNL     1      -2.071  -1.794   0.012  0.00  0.00    +0.032 A 
ATOM      7 BR   UNL     1      -0.746  -3.143  -0.007  0.00  0.00    -0.049 Br
ATOM      8  C   UNL     1      -5.830  -1.586   0.045  0.00  0.00    +0.129 C 
ATOM      9  C   UNL     1      -5.994  -2.755   1.022  0.00  0.00    +0.195 C 
ATOM     10  O   UNL     1      -7.349  -3.240   0.938  0.00  0.00    -0.296 OA
ATOM     11  P   UNL     1      -8.562  -2.161   1.044  0.00  0.00    +0.458 P 
ATOM     12  O   UNL     1      -9.783  -2.700   0.406  0.00  0.00    -0.243 OA
ATOM     13  N   UNL     1      -8.037  -0.820   0.233  0.00  0.00    -0.158 NA
ATOM     14  N   UNL     1      -6.712  -0.481   0.420  0.00  0.00    -0.224 NA
ATOM     15  C   UNL     1      -6.406   0.725  -0.364  0.00  0.00    +0.108 C 
ATOM     16  C   UNL     1      -5.054   1.276   0.047  0.00  0.00    +0.052 C 
ATOM     17  H   UNL     1      -8.630  -0.301  -0.333  0.00  0.00    +0.152 HD
ENDROOT
BRANCH  11  18
ATOM     18  S   UNL     1      -8.945  -1.689   3.075  0.00  0.00    +0.211 S 
ATOM     19  O   UNL     1      -7.707  -1.278   3.638  0.00  0.00    -0.126 OA
ATOM     20  O   UNL     1     -10.101  -0.862   3.089  0.00  0.00    -0.126 OA
BRANCH  18  21
ATOM     21  O   UNL     1      -9.331  -2.986   3.773  0.00  0.00    -0.339 OA
BRANCH  21  22
ATOM     22  C   UNL     1      -8.283  -3.817   4.014  0.00  0.00    +0.157 A 
ATOM     23  C   UNL     1      -7.913  -4.761   3.068  0.00  0.00    +0.048 A 
ATOM     24  C   UNL     1      -6.846  -5.604   3.316  0.00  0.00    +0.004 A 
ATOM     25  C   UNL     1      -6.148  -5.507   4.505  0.00  0.00    +0.000 A 
ATOM     26  C   UNL     1      -6.515  -4.566   5.450  0.00  0.00    +0.004 A 
ATOM     27  C   UNL     1      -7.577  -3.717   5.205  0.00  0.00    +0.048 A 
ENDBRANCH  21  22
ENDBRANCH  18  21
ENDBRANCH  11  18
BRANCH   1  29
ATOM     28  C   UNL     1      -0.022   1.810   0.012  0.00  0.00    +0.090 C 
ATOM     29  S   UNL     1       0.002  -0.004   0.002  0.00  0.00    -0.127 S 
ENDBRANCH   1  29
TORSDOF 4
