REMARK  Name = ZINC39302441
REMARK  12 active torsions:
REMARK  status: ('A' for Active; 'I' for Inactive)
REMARK    1  A    between atoms: C_1  and  O_2
REMARK    2  A    between atoms: O_2  and  C_3
REMARK    3  A    between atoms: C_6  and  C_11
REMARK    4  A    between atoms: C_8  and  O_9
REMARK    5  A    between atoms: O_9  and  C_10
REMARK    6  A    between atoms: C_11  and  C_12
REMARK    7  A    between atoms: C_12  and  O_13
REMARK    8  A    between atoms: O_13  and  C_14
REMARK    9  A    between atoms: C_14  and  C_16
REMARK   10  A    between atoms: N_22  and  C_23
REMARK   11  A    between atoms: C_23  and  C_24
REMARK   12  A    between atoms: N_26  and  C_27
REMARK                            x       y       z     vdW  Elec       q    Type
REMARK                         _______ _______ _______ _____ _____    ______ ____
ROOT
ATOM      1  C   UNL     1       6.670  -4.321  -6.223  0.00  0.00    +0.043 C 
ATOM      2  C   UNL     1       6.462  -3.498  -7.496  0.00  0.00    -0.004 C 
ATOM      3  C   UNL     1       7.278  -4.116  -8.635  0.00  0.00    -0.003 C 
ATOM      4  C   UNL     1       8.751  -4.179  -8.219  0.00  0.00    -0.019 C 
ATOM      5  C   UNL     1       8.874  -4.977  -6.919  0.00  0.00    -0.077 C 
ATOM      6  N   UNL     1       8.093  -4.321  -5.863  0.00  0.00    +0.394 N 
ATOM      7  H   UNL     1       8.411  -3.369  -5.753  0.00  0.00    -0.080 HD
ENDROOT
BRANCH   1   8
ATOM      8  C   UNL     1       5.868  -3.717  -5.099  0.00  0.00    +0.293 C 
ATOM      9  O   UNL     1       6.420  -3.057  -4.250  0.00  0.00    -0.253 OA
BRANCH   8  10
ATOM     10  O   UNL     1       4.542  -3.912  -5.040  0.00  0.00    -0.465 OA
BRANCH  10  11
ATOM     11  C   UNL     1       3.845  -3.311  -3.947  0.00  0.00    +0.236 C 
BRANCH  11  12
ATOM     12  C   UNL     1       2.354  -3.641  -4.049  0.00  0.00    +0.076 C 
BRANCH  12  16
ATOM     13  C   UNL     1       0.268  -1.835  -0.782  0.00  0.00    +0.161 A 
ATOM     14  C   UNL     1       0.434  -1.141  -1.970  0.00  0.00    +0.049 A 
ATOM     15  C   UNL     1       1.109  -1.728  -3.024  0.00  0.00    +0.007 A 
ATOM     16  C   UNL     1       1.620  -3.006  -2.896  0.00  0.00    -0.040 A 
ATOM     17  C   UNL     1       1.457  -3.704  -1.714  0.00  0.00    +0.053 A 
ATOM     18  C   UNL     1       0.787  -3.119  -0.651  0.00  0.00    +0.162 A 
BRANCH  13  20
ATOM     19  C   UNL     1      -0.901   0.061   0.051  0.00  0.00    +0.277 C 
ATOM     20  O   UNL     1      -0.396  -1.259   0.257  0.00  0.00    -0.491 OA
ENDBRANCH  13  20
BRANCH  18  21
ATOM     21  O   UNL     1       0.631  -3.802   0.515  0.00  0.00    -0.491 OA
ATOM     22  C   UNL     1       1.190  -5.116   0.577  0.00  0.00    +0.277 C 
ENDBRANCH  18  21
ENDBRANCH  12  16
ENDBRANCH  11  12
ENDBRANCH  10  11
ENDBRANCH   8  10
ENDBRANCH   1   8
BRANCH   6  23
ATOM     23  C   UNL     1       8.277  -5.045  -4.599  0.00  0.00    +0.020 C 
BRANCH  23  24
ATOM     24  C   UNL     1       9.709  -4.911  -4.147  0.00  0.00    +0.201 C 
ATOM     25  O   UNL     1      10.498  -4.274  -4.812  0.00  0.00    -0.278 OA
ATOM     26  N   UNL     1      10.112  -5.499  -3.003  0.00  0.00    -0.285 N 
ATOM     27  H   UNL     1       9.503  -6.070  -2.510  0.00  0.00    +0.155 HD
BRANCH  26  28
ATOM     28  C   UNL     1      11.411  -5.284  -2.525  0.00  0.00    +0.069 A 
ATOM     29  C   UNL     1      12.105  -4.137  -2.888  0.00  0.00    +0.027 A 
ATOM     30  C   UNL     1      13.386  -3.927  -2.416  0.00  0.00    +0.017 A 
ATOM     31  C   UNL     1      13.979  -4.858  -1.582  0.00  0.00    +0.021 A 
ATOM     32  C   UNL     1      13.292  -6.002  -1.218  0.00  0.00    +0.055 A 
ATOM     33  C   UNL     1      12.007  -6.215  -1.683  0.00  0.00    +0.146 A 
ATOM     34  F   UNL     1      11.333  -7.330  -1.322  0.00  0.00    -0.204 F 
ATOM     35 BR   UNL     1      15.733  -4.566  -0.939  0.00  0.00    -0.050 Br
ENDBRANCH  26  28
ENDBRANCH  23  24
ENDBRANCH   6  23
TORSDOF 10
