REMARK  Name = ZINC08425740
REMARK  2 active torsions:
REMARK  status: ('A' for Active; 'I' for Inactive)
REMARK    1  A    between atoms: C_16  and  C_19
REMARK    2  A    between atoms: N_28  and  C_31
REMARK                            x       y       z     vdW  Elec       q    Type
REMARK                         _______ _______ _______ _____ _____    ______ ____
ROOT
ATOM      1  C   UNL     1      -0.017   1.377   0.010  0.00  0.00    +0.001 A 
ATOM      2  C   UNL     1       1.167   2.095   0.002  0.00  0.00    +0.001 A 
ATOM      3  C   UNL     1       2.382   1.438  -0.013  0.00  0.00    +0.012 A 
ATOM      4  C   UNL     1       2.425   0.043  -0.020  0.00  0.00    +0.031 A 
ATOM      5  C   UNL     1       1.220  -0.688  -0.013  0.00  0.00    +0.031 A 
ATOM      6  C   UNL     1       0.002  -0.004   0.002  0.00  0.00    +0.012 A 
ATOM      7  C   UNL     1       1.512  -2.134  -0.023  0.00  0.00    +0.204 C 
ATOM      8  O   UNL     1       0.701  -3.035  -0.022  0.00  0.00    -0.288 OA
ATOM      9  C   UNL     1       3.007  -2.278  -0.035  0.00  0.00    +0.206 C 
ATOM     10  C   UNL     1       3.572  -0.886  -0.035  0.00  0.00    +0.204 C 
ATOM     11  O   UNL     1       4.746  -0.583  -0.044  0.00  0.00    -0.288 OA
ATOM     12  C   UNL     1       3.518  -3.105   1.132  0.00  0.00    +0.138 C 
ATOM     13  C   UNL     1       3.141  -4.512   0.524  0.00  0.00    +0.125 C 
ATOM     14  C   UNL     1       3.624  -4.417  -0.857  0.00  0.00    +0.163 C 
ATOM     15  O   UNL     1       3.442  -3.002  -1.213  0.00  0.00    -0.348 OA
ATOM     16  C   UNL     1       3.197  -5.365   1.683  0.00  0.00    +0.233 C 
ATOM     17  O   UNL     1       3.543  -6.526   1.730  0.00  0.00    -0.274 OA
ATOM     18  N   UNL     1       2.775  -4.574   2.724  0.00  0.00    -0.210 N 
ATOM     19  C   UNL     1       2.733  -3.232   2.401  0.00  0.00    +0.234 C 
ATOM     20  O   UNL     1       2.177  -2.341   3.006  0.00  0.00    -0.274 OA
ENDROOT
BRANCH  18  21
ATOM     21  C   UNL     1       2.433  -5.073   3.989  0.00  0.00    +0.045 A 
ATOM     22  C   UNL     1       2.009  -4.206   4.987  0.00  0.00    +0.025 A 
ATOM     23  C   UNL     1       1.672  -4.698   6.232  0.00  0.00    +0.023 A 
ATOM     24  C   UNL     1       1.758  -6.056   6.487  0.00  0.00    +0.059 A 
ATOM     25  C   UNL     1       2.181  -6.923   5.494  0.00  0.00    +0.061 A 
ATOM     26  C   UNL     1       2.514  -6.435   4.244  0.00  0.00    +0.045 A 
ATOM     27 CL   UNL     1       2.288  -8.626   5.817  0.00  0.00    -0.082 Cl
ATOM     28 CL   UNL     1       1.335  -6.672   8.054  0.00  0.00    -0.082 Cl
ENDBRANCH  18  21
BRANCH  14  29
ATOM     29  C   UNL     1       5.074  -4.822  -0.934  0.00  0.00    -0.018 A 
ATOM     30  C   UNL     1       6.061  -3.926  -0.569  0.00  0.00    +0.009 A 
ATOM     31  C   UNL     1       7.391  -4.297  -0.638  0.00  0.00    +0.039 A 
ATOM     32  C   UNL     1       7.733  -5.566  -1.075  0.00  0.00    +0.123 A 
ATOM     33  C   UNL     1       6.743  -6.462  -1.440  0.00  0.00    +0.039 A 
ATOM     34  C   UNL     1       5.414  -6.090  -1.365  0.00  0.00    +0.009 A 
ATOM     35  F   UNL     1       9.033  -5.929  -1.144  0.00  0.00    -0.205 F 
ENDBRANCH  14  29
TORSDOF 2
