REMARK  Name = ZINC12468804
REMARK  4 active torsions:
REMARK  status: ('A' for Active; 'I' for Inactive)
REMARK    1  A    between atoms: C_6  and  N_7
REMARK    2  A    between atoms: C_8  and  C_10
REMARK    3  A    between atoms: C_10  and  N_11
REMARK    4  A    between atoms: C_15  and  C_16
REMARK                            x       y       z     vdW  Elec       q    Type
REMARK                         _______ _______ _______ _____ _____    ______ ____
ROOT
ATOM      1  C   UNL     1      -3.661  -0.844   0.246  0.00  0.00    +0.213 C 
ENDROOT
BRANCH   1   2
ATOM      2  N   UNL     1      -4.785   0.089   0.359  0.00  0.00    -0.219 N 
ATOM      3  C   UNL     1      -5.395   0.508  -0.736  0.00  0.00    +0.261 C 
ATOM      4  O   UNL     1      -5.037   0.131  -1.837  0.00  0.00    -0.269 OA
ATOM      5  C   UNL     1      -6.487   1.416  -0.589  0.00  0.00    +0.083 C 
ATOM      6  C   UNL     1      -7.273   1.990  -1.545  0.00  0.00    +0.066 C 
ATOM      7  S   UNL     1      -6.544   1.596   1.188  0.00  0.00    -0.026 S 
ATOM      8  C   UNL     1      -5.186   0.504   1.581  0.00  0.00    +0.286 C 
ATOM      9  O   UNL     1      -4.736   0.208   2.672  0.00  0.00    -0.262 OA
BRANCH   6  10
ATOM     10  C   UNL     1      -8.312   2.872  -1.169  0.00  0.00    +0.130 A 
ATOM     11  C   UNL     1      -9.179   3.520  -2.027  0.00  0.00    +0.050 A 
ATOM     12  C   UNL     1     -10.038   4.284  -1.224  0.00  0.00    +0.056 A 
ATOM     13  C   UNL     1      -9.672   4.079   0.062  0.00  0.00    +0.165 A 
ATOM     14  O   UNL     1      -8.638   3.226   0.092  0.00  0.00    -0.450 OA
ATOM     15  I   UNL     1     -10.581   4.947   1.738  0.00  0.00    -0.001 I 
ENDBRANCH   6  10
ENDBRANCH   1   2
BRANCH   1  17
ATOM     16  N   UNL     1      -1.202  -0.721   0.009  0.00  0.00    -0.284 N 
ATOM     17  C   UNL     1      -2.374  -0.068   0.125  0.00  0.00    +0.235 C 
ATOM     18  O   UNL     1      -2.395   1.145   0.132  0.00  0.00    -0.274 OA
ATOM     19  H   UNL     1      -1.190  -1.688  -0.064  0.00  0.00    +0.155 HD
BRANCH  16  25
ATOM     20  C   UNL     1       1.138  -0.541   0.583  0.00  0.00    +0.027 A 
ATOM     21  C   UNL     1       2.325   0.166   0.569  0.00  0.00    +0.051 A 
ATOM     22  C   UNL     1       2.385   1.412  -0.032  0.00  0.00    +0.166 A 
ATOM     23  C   UNL     1       1.247   1.954  -0.624  0.00  0.00    +0.168 A 
ATOM     24  C   UNL     1       0.057   1.246  -0.610  0.00  0.00    +0.072 A 
ATOM     25  C   UNL     1       0.002  -0.003  -0.006  0.00  0.00    +0.037 A 
ATOM     26  O   UNL     1       1.564   3.178  -1.141  0.00  0.00    -0.453 OA
ATOM     27  C   UNL     1       3.001   3.201  -1.220  0.00  0.00    +0.466 C 
ATOM     28  O   UNL     1       3.416   2.297  -0.179  0.00  0.00    -0.453 OA
ENDBRANCH  16  25
ENDBRANCH   1  17
TORSDOF 4
