REMARK  Name = ZINC43548431
REMARK  2 active torsions:
REMARK  status: ('A' for Active; 'I' for Inactive)
REMARK    1  A    between atoms: C_4  and  N_7
REMARK    2  A    between atoms: N_15  and  C_16
REMARK                            x       y       z     vdW  Elec       q    Type
REMARK                         _______ _______ _______ _____ _____    ______ ____
ROOT
ATOM      1  N   UNL     1       3.582  -0.545   0.591  0.00  0.00    -0.327 N 
ATOM      2  C   UNL     1       4.814   0.221   0.820  0.00  0.00    +0.124 C 
ATOM      3  C   UNL     1       5.621  -0.468   1.928  0.00  0.00    +0.128 C 
ATOM      4  N   UNL     1       5.726  -1.899   1.611  0.00  0.00    -0.282 N 
ATOM      5  C   UNL     1       4.493  -2.666   1.381  0.00  0.00    +0.128 C 
ATOM      6  C   UNL     1       3.686  -1.978   0.280  0.00  0.00    +0.124 C 
ATOM      7  C   UNL     1       6.931  -2.498   1.532  0.00  0.00    +0.307 C 
ATOM      8  O   UNL     1       7.934  -1.890   1.852  0.00  0.00    -0.252 OA
ATOM      9  N   UNL     1       7.024  -3.771   1.099  0.00  0.00    -0.269 N 
ATOM     10  H   UNL     1       6.246  -4.213   0.724  0.00  0.00    +0.156 HD
ENDROOT
BRANCH   9  11
ATOM     11  C   UNL     1       8.244  -4.454   1.189  0.00  0.00    +0.038 A 
ATOM     12  C   UNL     1       9.438  -3.745   1.192  0.00  0.00    +0.027 A 
ATOM     13  C   UNL     1      10.642  -4.418   1.280  0.00  0.00    +0.051 A 
ATOM     14  C   UNL     1      10.661  -5.798   1.366  0.00  0.00    +0.167 A 
ATOM     15  C   UNL     1       9.463  -6.513   1.364  0.00  0.00    +0.169 A 
ATOM     16  C   UNL     1       8.258  -5.840   1.280  0.00  0.00    +0.073 A 
ATOM     17  O   UNL     1       9.758  -7.848   1.461  0.00  0.00    -0.447 OA
ATOM     18  C   UNL     1      11.120  -7.931   1.018  0.00  0.00    +0.254 C 
ATOM     19  O   UNL     1      11.696  -6.694   1.461  0.00  0.00    -0.448 OA
ATOM     20  C   UNL     1      11.202  -8.070  -0.505  0.00  0.00    +0.093 C 
ATOM     21  C   UNL     1      12.430  -8.991  -0.732  0.00  0.00    +0.008 C 
ATOM     22  C   UNL     1      12.334  -9.991   0.448  0.00  0.00    +0.008 C 
ATOM     23  C   UNL     1      11.836  -9.133   1.633  0.00  0.00    +0.093 C 
ENDBRANCH   9  11
BRANCH   1  27
ATOM     24  C   UNL     1      -0.141   1.304   0.835  0.00  0.00    +0.000 A 
ATOM     25  C   UNL     1      -0.044   0.009   0.358  0.00  0.00    +0.002 A 
ATOM     26  C   UNL     1       1.190  -0.607   0.276  0.00  0.00    +0.023 A 
ATOM     27  C   UNL     1       2.333   0.075   0.672  0.00  0.00    +0.030 A 
ATOM     28  C   UNL     1       2.232   1.375   1.151  0.00  0.00    +0.023 A 
ATOM     29  C   UNL     1       0.995   1.986   1.231  0.00  0.00    +0.002 A 
ENDBRANCH   1  27
TORSDOF 2
