REMARK  Name = ZINC09450621
REMARK  4 active torsions:
REMARK  status: ('A' for Active; 'I' for Inactive)
REMARK    1  A    between atoms: C_6  and  C_7
REMARK    2  A    between atoms: C_7  and  C_8
REMARK    3  A    between atoms: C_8  and  N_10
REMARK    4  A    between atoms: N_12  and  C_23
REMARK                            x       y       z     vdW  Elec       q    Type
REMARK                         _______ _______ _______ _____ _____    ______ ____
ROOT
ATOM      1  N   UNL     1      -2.879  -1.653  -1.651  0.00  0.00    -0.159 NA
ATOM      2  C   UNL     1      -3.266  -1.893  -2.899  0.00  0.00    +0.154 C 
ATOM      3  N   UNL     1      -4.381  -2.568  -3.319  0.00  0.00    -0.276 N 
ATOM      4  C   UNL     1      -4.433  -3.050  -4.676  0.00  0.00    +0.116 C 
ATOM      5  C   UNL     1      -4.828  -4.521  -4.795  0.00  0.00    +0.190 C 
ATOM      6  S   UNL     1      -3.314  -5.320  -5.460  0.00  0.00    -0.028 S 
ATOM      7  O   UNL     1      -2.785  -6.195  -4.474  0.00  0.00    -0.174 OA
ATOM      8  O   UNL     1      -3.590  -5.821  -6.761  0.00  0.00    -0.174 OA
ATOM      9  C   UNL     1      -2.216  -3.856  -5.606  0.00  0.00    +0.182 C 
ATOM     10  C   UNL     1      -3.203  -2.685  -5.524  0.00  0.00    +0.097 C 
ATOM     11  S   UNL     1      -2.454  -1.403  -4.414  0.00  0.00    -0.086 S 
ENDROOT
BRANCH   3  12
ATOM     12  C   UNL     1      -5.452  -2.787  -2.444  0.00  0.00    +0.039 A 
ATOM     13  C   UNL     1      -5.343  -2.425  -1.108  0.00  0.00    +0.027 A 
ATOM     14  C   UNL     1      -6.399  -2.639  -0.244  0.00  0.00    +0.051 A 
ATOM     15  C   UNL     1      -7.570  -3.217  -0.708  0.00  0.00    +0.166 A 
ATOM     16  C   UNL     1      -7.683  -3.582  -2.047  0.00  0.00    +0.168 A 
ATOM     17  C   UNL     1      -6.625  -3.361  -2.914  0.00  0.00    +0.073 A 
ATOM     18  O   UNL     1      -8.920  -4.123  -2.249  0.00  0.00    -0.453 OA
ATOM     19  C   UNL     1      -9.411  -4.461  -0.939  0.00  0.00    +0.466 C 
ATOM     20  O   UNL     1      -8.737  -3.530  -0.071  0.00  0.00    -0.453 OA
ENDBRANCH   3  12
BRANCH   1  21
ATOM     21  C   UNL     1      -1.760  -0.970  -1.421  0.00  0.00    +0.243 C 
ATOM     22  O   UNL     1      -1.092  -0.566  -2.353  0.00  0.00    -0.273 OA
BRANCH  21  23
ATOM     23  C   UNL     1      -1.322  -0.697  -0.006  0.00  0.00    +0.133 C 
BRANCH  23  29
ATOM     24  C   UNL     1      -0.069   1.469  -0.032  0.00  0.00    +0.007 A 
ATOM     25  C   UNL     1       1.110   2.190  -0.045  0.00  0.00    +0.038 A 
ATOM     26  C   UNL     1       2.326   1.527  -0.049  0.00  0.00    +0.123 A 
ATOM     27  C   UNL     1       2.358   0.143  -0.038  0.00  0.00    +0.038 A 
ATOM     28  C   UNL     1       1.178  -0.576  -0.024  0.00  0.00    +0.007 A 
ATOM     29  C   UNL     1      -0.035   0.087  -0.021  0.00  0.00    -0.038 A 
ATOM     30  F   UNL     1       3.479   2.230  -0.062  0.00  0.00    -0.205 F 
ENDBRANCH  23  29
ENDBRANCH  21  23
ENDBRANCH   1  21
TORSDOF 4
