REMARK  Name = ZINC02841798
REMARK  7 active torsions:
REMARK  status: ('A' for Active; 'I' for Inactive)
REMARK    1  A    between atoms: C_1  and  C_2
REMARK    2  A    between atoms: N_5  and  C_7
REMARK    3  A    between atoms: C_15  and  N_31
REMARK    4  A    between atoms: C_16  and  C_29
REMARK    5  A    between atoms: C_17  and  C_19
REMARK    6  A    between atoms: C_22  and  N_25
REMARK    7  A    between atoms: C_26  and  C_28
REMARK                            x       y       z     vdW  Elec       q    Type
REMARK                         _______ _______ _______ _____ _____    ______ ____
ROOT
ATOM      1  C   UNL     1       5.455   4.324   1.082  0.00  0.00    +0.068 C 
ATOM      2  C   UNL     1       4.097   4.472   0.444  0.00  0.00    +0.068 A 
ATOM      3  C   UNL     1       3.707   5.495  -0.411  0.00  0.00    +0.050 A 
ATOM      4  C   UNL     1       2.408   5.272  -0.773  0.00  0.00    +0.230 A 
ATOM      5  N   UNL     1       2.003   4.140  -0.157  0.00  0.00    -0.200 N 
ATOM      6  N   UNL     1       3.079   3.660   0.606  0.00  0.00    -0.168 NA
ATOM      7  O   UNL     1       1.728   6.095  -1.609  0.00  0.00    -0.423 OA
ATOM      8  C   UNL     1       2.441   7.005  -2.304  0.00  0.00    +0.200 C 
ATOM      9  C   UNL     1       3.727   7.320  -2.033  0.00  0.00    +0.098 C 
ATOM     10  C   UNL     1       4.497   6.678  -0.907  0.00  0.00    +0.101 C 
ENDROOT
BRANCH   5  11
ATOM     11  C   UNL     1       0.734   3.553  -0.256  0.00  0.00    +0.070 A 
ATOM     12  C   UNL     1       0.603   2.171  -0.239  0.00  0.00    +0.028 A 
ATOM     13  C   UNL     1      -0.649   1.595  -0.337  0.00  0.00    +0.003 A 
ATOM     14  C   UNL     1      -1.771   2.394  -0.458  0.00  0.00    +0.020 A 
ATOM     15  C   UNL     1      -1.645   3.772  -0.470  0.00  0.00    +0.043 A 
ATOM     16  C   UNL     1      -0.395   4.353  -0.372  0.00  0.00    +0.048 A 
ATOM     17 CL   UNL     1      -3.058   4.771  -0.615  0.00  0.00    -0.083 Cl
ENDBRANCH   5  11
BRANCH  10  18
ATOM     18  C   UNL     1       4.685   7.670   0.212  0.00  0.00    -0.034 A 
ATOM     19  C   UNL     1       3.582   8.226   0.833  0.00  0.00    +0.006 A 
ATOM     20  C   UNL     1       3.751   9.132   1.862  0.00  0.00    +0.023 A 
ATOM     21  C   UNL     1       5.030   9.492   2.265  0.00  0.00    +0.033 A 
ATOM     22  C   UNL     1       6.136   8.937   1.635  0.00  0.00    +0.023 A 
ATOM     23  C   UNL     1       5.960   8.027   0.610  0.00  0.00    +0.006 A 
BRANCH  21  24
ATOM     24  N   UNL     1       5.205  10.415   3.303  0.00  0.00    -0.286 N 
ATOM     25  C   UNL     1       6.255  11.259   3.285  0.00  0.00    +0.214 C 
ATOM     26  O   UNL     1       6.995  11.285   2.324  0.00  0.00    -0.276 OA
ATOM     27  C   UNL     1       6.511  12.169   4.458  0.00  0.00    +0.109 C 
ATOM     28  H   UNL     1       4.570  10.446   4.035  0.00  0.00    +0.155 HD
ENDBRANCH  21  24
ENDBRANCH  10  18
BRANCH   8  29
ATOM     29  N   UNL     1       1.824   7.649  -3.348  0.00  0.00    -0.328 N 
ATOM     30  H   UNL     1       0.901   7.444  -3.567  0.00  0.00    +0.145 HD
ATOM     31  H   UNL     1       2.310   8.309  -3.866  0.00  0.00    +0.145 HD
ENDBRANCH   8  29
BRANCH   9  32
ATOM     32  C   UNL     1       4.382   8.301  -2.845  0.00  0.00    +0.101 C 
ATOM     33  N   UNL     1       4.902   9.079  -3.489  0.00  0.00    -0.191 NA
ENDBRANCH   9  32
TORSDOF 5
