REMARK  Name = ZINC31383319
REMARK  15 active torsions:
REMARK  status: ('A' for Active; 'I' for Inactive)
REMARK    1  A    between atoms: C_1  and  C_2
REMARK    2  A    between atoms: C_2  and  N_3
REMARK    3  A    between atoms: N_3  and  C_4
REMARK    4  A    between atoms: N_3  and  C_6
REMARK    5  A    between atoms: C_4  and  C_5
REMARK    6  A    between atoms: C_6  and  C_8
REMARK    7  A    between atoms: C_6  and  C_24
REMARK    8  A    between atoms: C_8  and  N_9
REMARK    9  A    between atoms: C_10  and  C_12
REMARK   10  A    between atoms: C_14  and  S_20
REMARK   11  A    between atoms: C_17  and  O_18
REMARK   12  A    between atoms: O_18  and  C_19
REMARK   13  A    between atoms: S_20  and  N_23
REMARK   14  A    between atoms: C_24  and  C_25
REMARK   15  A    between atoms: C_24  and  C_26
REMARK                            x       y       z     vdW  Elec       q    Type
REMARK                         _______ _______ _______ _____ _____    ______ ____
ROOT
ATOM      1  N   UNL     1      -0.818   0.731   3.486  0.00  0.00    -0.313 N 
ATOM      2  C   UNL     1      -1.340  -0.039   4.462  0.00  0.00    +0.248 C 
ATOM      3  O   UNL     1      -2.257  -0.798   4.212  0.00  0.00    -0.270 OA
ATOM      4  H   UNL     1       0.011   1.417   3.712  0.00  0.00    +0.149 HD
ENDROOT
BRANCH   2   5
ATOM      5  C   UNL     1      -0.800   0.040   5.832  0.00  0.00    +0.080 A 
ATOM      6  C   UNL     1       0.253   0.911   6.123  0.00  0.00    +0.045 A 
ATOM      7  C   UNL     1       0.753   0.980   7.405  0.00  0.00    +0.106 A 
ATOM      8  C   UNL     1       0.215   0.190   8.409  0.00  0.00    +0.032 A 
ATOM      9  C   UNL     1      -0.825  -0.675   8.135  0.00  0.00    +0.048 A 
ATOM     10  C   UNL     1      -1.344  -0.754   6.851  0.00  0.00    +0.132 A 
BRANCH   7  11
ATOM     11  S   UNL     1       2.080   2.079   7.771  0.00  0.00    +0.056 S 
ATOM     12  O   UNL     1       2.731   1.561   8.924  0.00  0.00    -0.153 OA
ATOM     13  O   UNL     1       2.766   2.309   6.548  0.00  0.00    -0.153 OA
BRANCH  11  14
ATOM     14  N   UNL     1       1.409   3.526   8.216  0.00  0.00    -0.204 NA
ATOM     15  H   UNL     1       2.209   4.243   8.454  0.00  0.00    +0.144 HD
ATOM     16  H   UNL     1       0.774   3.379   9.102  0.00  0.00    +0.144 HD
ENDBRANCH  11  14
ENDBRANCH   7  11
BRANCH  10  17
ATOM     17  O   UNL     1      -2.370  -1.599   6.581  0.00  0.00    -0.494 OA
ATOM     18  C   UNL     1      -2.873  -2.377   7.670  0.00  0.00    +0.277 C 
ENDBRANCH  10  17
ENDBRANCH   2   5
BRANCH   1  19
ATOM     19  C   UNL     1      -1.354   0.652   2.125  0.00  0.00    +0.089 C 
BRANCH  19  20
ATOM     20  C   UNL     1      -0.742   1.764   1.271  0.00  0.00    -0.049 C 
BRANCH  20  21
ATOM     21  C   UNL     1      -1.116   1.545  -0.197  0.00  0.00    -0.029 C 
ATOM     22  C   UNL     1       0.022   2.037  -1.093  0.00  0.00    +0.005 C 
ATOM     23  C   UNL     1      -2.393   2.324  -0.519  0.00  0.00    +0.005 C 
ENDBRANCH  20  21
BRANCH  20  24
ATOM     24  N   UNL     1      -1.255   3.065   1.718  0.00  0.00    +0.382 N 
ATOM     25  H   UNL     1      -2.353   3.036   1.652  0.00  0.00    -0.081 HD
BRANCH  24  27
ATOM     26  C   UNL     1       0.629   3.314   3.262  0.00  0.00    -0.017 C 
ATOM     27  C   UNL     1      -0.894   3.320   3.119  0.00  0.00    -0.082 C 
ENDBRANCH  24  27
BRANCH  24  28
ATOM     28  C   UNL     1      -0.779   4.147   0.846  0.00  0.00    -0.082 C 
ATOM     29  C   UNL     1      -1.625   5.401   1.080  0.00  0.00    -0.017 C 
ENDBRANCH  24  28
ENDBRANCH  20  24
ENDBRANCH  19  20
ENDBRANCH   1  19
TORSDOF 10
