REMARK  Name = ZINC33301897
REMARK  6 active torsions:
REMARK  status: ('A' for Active; 'I' for Inactive)
REMARK    1  A    between atoms: C_1  and  C_2
REMARK    2  A    between atoms: C_5  and  C_31
REMARK    3  A    between atoms: C_6  and  N_8
REMARK    4  A    between atoms: C_17  and  S_21
REMARK    5  A    between atoms: C_18  and  N_20
REMARK    6  A    between atoms: S_21  and  C_24
REMARK                            x       y       z     vdW  Elec       q    Type
REMARK                         _______ _______ _______ _____ _____    ______ ____
ROOT
ATOM      1  N   UNL     1       0.189   8.201   7.110  0.00  0.00    -0.327 N 
ATOM      2  C   UNL     1       1.393   7.360   7.157  0.00  0.00    +0.124 C 
ATOM      3  C   UNL     1       1.643   6.753   5.775  0.00  0.00    +0.127 C 
ATOM      4  N   UNL     1       0.470   5.966   5.369  0.00  0.00    -0.297 N 
ATOM      5  C   UNL     1      -0.735   6.807   5.322  0.00  0.00    +0.127 C 
ATOM      6  C   UNL     1      -0.984   7.414   6.704  0.00  0.00    +0.124 C 
ATOM      7  C   UNL     1       0.687   5.343   4.153  0.00  0.00    +0.220 A 
ATOM      8  N   UNL     1       1.848   5.516   3.537  0.00  0.00    -0.221 NA
ATOM      9  C   UNL     1       2.093   4.936   2.371  0.00  0.00    +0.145 A 
ATOM     10  C   UNL     1       1.122   4.140   1.794  0.00  0.00    +0.151 A 
ATOM     11  C   UNL     1      -0.093   3.981   2.464  0.00  0.00    +0.147 A 
ATOM     12  N   UNL     1      -0.270   4.589   3.633  0.00  0.00    -0.198 NA
ENDROOT
BRANCH   1  18
ATOM     13  C   UNL     1      -0.654   7.872  11.941  0.00  0.00    +0.044 C 
ATOM     14  C   UNL     1      -0.443   8.696  10.696  0.00  0.00    -0.049 A 
ATOM     15  C   UNL     1      -0.465  10.077  10.770  0.00  0.00    +0.004 A 
ATOM     16  C   UNL     1      -0.271  10.836   9.631  0.00  0.00    +0.005 A 
ATOM     17  C   UNL     1      -0.049  10.217   8.416  0.00  0.00    -0.029 A 
ATOM     18  C   UNL     1      -0.031   8.830   8.338  0.00  0.00    +0.033 A 
ATOM     19  C   UNL     1      -0.226   8.071   9.484  0.00  0.00    +0.026 A 
ATOM     20  C   UNL     1       0.168  11.045   7.176  0.00  0.00    +0.045 C 
ENDBRANCH   1  18
BRANCH  11  21
ATOM     21  N   UNL     1      -1.097   3.197   1.921  0.00  0.00    -0.341 N 
ATOM     22  H   UNL     1      -2.051   3.077   2.455  0.00  0.00    +0.144 HD
ATOM     23  H   UNL     1      -0.941   2.695   0.955  0.00  0.00    +0.144 HD
ENDBRANCH  11  21
BRANCH  10  24
ATOM     24  S   UNL     1       1.407   3.351   0.245  0.00  0.00    +0.030 S 
ATOM     25  O   UNL     1       2.729   3.693  -0.148  0.00  0.00    -0.164 OA
ATOM     26  O   UNL     1       0.275   3.630  -0.567  0.00  0.00    -0.164 OA
BRANCH  24  27
ATOM     27  C   UNL     1       1.402   1.613   0.537  0.00  0.00    +0.094 A 
ATOM     28  C   UNL     1       0.243   0.884   0.346  0.00  0.00    +0.029 A 
ATOM     29  C   UNL     1       0.239  -0.479   0.574  0.00  0.00    +0.022 A 
ATOM     30  C   UNL     1       1.394  -1.114   0.995  0.00  0.00    +0.041 A 
ATOM     31  C   UNL     1       2.553  -0.383   1.187  0.00  0.00    +0.022 A 
ATOM     32  C   UNL     1       2.556   0.980   0.958  0.00  0.00    +0.029 A 
ATOM     33 CL   UNL     1       1.389  -2.826   1.283  0.00  0.00    -0.084 Cl
ENDBRANCH  24  27
ENDBRANCH  10  24
TORSDOF 4
