REMARK  Name = ZINC01569053
REMARK  7 active torsions:
REMARK  status: ('A' for Active; 'I' for Inactive)
REMARK    1  A    between atoms: C_6  and  N_7
REMARK    2  A    between atoms: N_7  and  C_8
REMARK    3  A    between atoms: C_8  and  C_9
REMARK    4  A    between atoms: C_9  and  C_11
REMARK    5  A    between atoms: C_9  and  O_21
REMARK    6  A    between atoms: C_11  and  O_12
REMARK    7  A    between atoms: O_12  and  C_13
REMARK                            x       y       z     vdW  Elec       q    Type
REMARK                         _______ _______ _______ _____ _____    ______ ____
ROOT
ATOM      1  C   UNL     1      -2.703   4.025   0.037  0.00  0.00    +0.169 C 
ENDROOT
BRANCH   1   2
ATOM      2  O   UNL     1      -3.376   3.546  -1.129  0.00  0.00    -0.387 OA
ATOM      3  H   UNL     1      -2.980   3.841  -1.961  0.00  0.00    +0.210 HD
ENDBRANCH   1   2
BRANCH   1   4
ATOM      4  C   UNL     1      -1.254   3.533   0.027  0.00  0.00    +0.136 C 
BRANCH   4   5
ATOM      5  N   UNL     1      -1.236   2.068   0.019  0.00  0.00    -0.341 N 
ATOM      6  H   UNL     1      -2.070   1.573   0.020  0.00  0.00    +0.146 HD
BRANCH   5  12
ATOM      7  C   UNL     1       1.178   2.093   0.002  0.00  0.00    +0.024 A 
ATOM      8  C   UNL     1       2.382   1.416  -0.013  0.00  0.00    +0.023 A 
ATOM      9  C   UNL     1       2.399   0.033  -0.020  0.00  0.00    +0.059 A 
ATOM     10  C   UNL     1       1.209  -0.677  -0.013  0.00  0.00    +0.061 A 
ATOM     11  C   UNL     1       0.002  -0.004   0.002  0.00  0.00    +0.044 A 
ATOM     12  C   UNL     1      -0.017   1.385   0.010  0.00  0.00    +0.029 A 
ATOM     13 CL   UNL     1       1.234  -2.413  -0.023  0.00  0.00    -0.082 Cl
ATOM     14 CL   UNL     1       3.913  -0.815  -0.038  0.00  0.00    -0.082 Cl
ENDBRANCH   5  12
ENDBRANCH   4   5
ENDBRANCH   1   4
BRANCH   1  15
ATOM     15  C   UNL     1      -2.722   5.555   0.045  0.00  0.00    +0.262 C 
BRANCH  15  16
ATOM     16  O   UNL     1      -4.070   6.013   0.171  0.00  0.00    -0.488 OA
BRANCH  16  17
ATOM     17  C   UNL     1      -4.264   7.359   0.195  0.00  0.00    +0.139 A 
ATOM     18  C   UNL     1      -3.180   8.219   0.099  0.00  0.00    +0.048 A 
ATOM     19  C   UNL     1      -3.379   9.585   0.123  0.00  0.00    +0.023 A 
ATOM     20  C   UNL     1      -4.659  10.097   0.244  0.00  0.00    +0.043 A 
ATOM     21  C   UNL     1      -5.742   9.242   0.340  0.00  0.00    +0.043 A 
ATOM     22  C   UNL     1      -5.548   7.873   0.310  0.00  0.00    +0.084 A 
ATOM     23 CL   UNL     1      -6.907   6.800   0.423  0.00  0.00    -0.080 Cl
ATOM     24 CL   UNL     1      -4.907  11.815   0.274  0.00  0.00    -0.083 Cl
ENDBRANCH  16  17
ENDBRANCH  15  16
ENDBRANCH   1  15
TORSDOF 7
