REMARK  Name = ZINC19531655
REMARK  12 active torsions:
REMARK  status: ('A' for Active; 'I' for Inactive)
REMARK    1  A    between atoms: C_1  and  C_2
REMARK    2  A    between atoms: C_2  and  O_3
REMARK    3  A    between atoms: O_3  and  C_4
REMARK    4  A    between atoms: C_5  and  C_13
REMARK    5  A    between atoms: C_8  and  O_10
REMARK    6  A    between atoms: O_10  and  C_11
REMARK    7  A    between atoms: C_11  and  C_12
REMARK    8  A    between atoms: C_13  and  O_33
REMARK    9  A    between atoms: N_22  and  C_24
REMARK   10  A    between atoms: C_24  and  C_25
REMARK   11  A    between atoms: C_30  and  O_31
REMARK   12  A    between atoms: O_31  and  C_32
REMARK                            x       y       z     vdW  Elec       q    Type
REMARK                         _______ _______ _______ _____ _____    ______ ____
ROOT
ATOM      1  C   UNL     1      -1.483   2.691  -3.592  0.00  0.00    +0.100 C 
ATOM      2  C   UNL     1      -0.854   1.295  -3.622  0.00  0.00    +0.009 C 
ATOM      3  C   UNL     1      -1.960   0.243  -3.503  0.00  0.00    +0.005 C 
ATOM      4  C   UNL     1      -2.703   0.433  -2.179  0.00  0.00    +0.001 C 
ATOM      5  C   UNL     1      -3.317   1.833  -2.133  0.00  0.00    +0.005 C 
ATOM      6  C   UNL     1      -2.208   2.881  -2.256  0.00  0.00    +0.009 C 
ATOM      7  C   UNL     1      -1.208   2.696  -1.112  0.00  0.00    -0.072 C 
ATOM      8  N   UNL     1      -0.626   1.350  -1.183  0.00  0.00    +0.383 N 
ATOM      9  C   UNL     1       0.108   1.153  -2.439  0.00  0.00    -0.072 C 
ATOM     10  H   UNL     1      -1.454   0.626  -1.162  0.00  0.00    -0.081 HD
ENDROOT
BRANCH   1  12
ATOM     11  C   UNL     1      -0.694   5.087  -3.567  0.00  0.00    +0.227 A 
ATOM     12  C   UNL     1      -0.404   3.734  -3.734  0.00  0.00    +0.064 A 
ATOM     13  C   UNL     1       0.897   3.370  -4.026  0.00  0.00    +0.128 A 
ATOM     14  N   UNL     1       1.821   4.312  -4.148  0.00  0.00    -0.203 NA
ATOM     15  C   UNL     1       1.515   5.588  -3.984  0.00  0.00    +0.321 A 
ATOM     16  N   UNL     1       0.283   5.977  -3.699  0.00  0.00    -0.159 NA
BRANCH  11  17
ATOM     17  O   UNL     1      -1.955   5.489  -3.274  0.00  0.00    -0.476 OA
BRANCH  17  19
ATOM     18  C   UNL     1      -3.600   7.123  -2.592  0.00  0.00    +0.048 C 
ATOM     19  C   UNL     1      -2.146   6.878  -3.000  0.00  0.00    +0.227 C 
ENDBRANCH  17  19
ENDBRANCH  11  17
BRANCH  15  20
ATOM     20  O   UNL     1       2.488   6.522  -4.111  0.00  0.00    -0.463 OA
BRANCH  20  21
ATOM     21  C   UNL     1       3.802   6.051  -4.419  0.00  0.00    +0.229 C 
ATOM     22  C   UNL     1       4.758   7.241  -4.522  0.00  0.00    +0.048 C 
ENDBRANCH  20  21
ENDBRANCH  15  20
ENDBRANCH   1  12
BRANCH   1  23
ATOM     23  O   UNL     1      -2.417   2.817  -4.666  0.00  0.00    -0.383 OA
ATOM     24  H   UNL     1      -3.278   2.136  -4.729  0.00  0.00    +0.211 HD
ENDBRANCH   1  23
BRANCH   8  25
ATOM     25  C   UNL     1       0.236   1.087  -0.023  0.00  0.00    -0.039 C 
BRANCH  25  26
ATOM     26  C   UNL     1      -0.521   1.393   1.244  0.00  0.00    -0.022 A 
ATOM     27  C   UNL     1      -0.237   2.541   1.959  0.00  0.00    +0.005 A 
ATOM     28  C   UNL     1      -0.933   2.825   3.119  0.00  0.00    +0.000 A 
ATOM     29  C   UNL     1      -1.909   1.956   3.572  0.00  0.00    +0.004 A 
ATOM     30  C   UNL     1      -2.192   0.805   2.865  0.00  0.00    +0.046 A 
ATOM     31  C   UNL     1      -1.498   0.520   1.698  0.00  0.00    +0.121 A 
BRANCH  31  32
ATOM     32  O   UNL     1      -1.776  -0.612   0.999  0.00  0.00    -0.495 OA
ATOM     33  C   UNL     1      -2.795  -1.465   1.525  0.00  0.00    +0.277 C 
ENDBRANCH  31  32
ENDBRANCH  25  26
ENDBRANCH   8  25
TORSDOF 9
