REMARK  Name = ZINC36525422
REMARK  12 active torsions:
REMARK  status: ('A' for Active; 'I' for Inactive)
REMARK    1  A    between atoms: C_1  and  C_2
REMARK    2  A    between atoms: C_3  and  C_4
REMARK    3  A    between atoms: C_4  and  C_6
REMARK    4  A    between atoms: C_4  and  N_20
REMARK    5  A    between atoms: N_8  and  C_9
REMARK    6  A    between atoms: C_9  and  S_10
REMARK    7  A    between atoms: S_10  and  C_13
REMARK    8  A    between atoms: C_16  and  C_19
REMARK    9  A    between atoms: N_20  and  C_21
REMARK   10  A    between atoms: C_22  and  C_24
REMARK   11  A    between atoms: C_24  and  C_25
REMARK   12  A    between atoms: C_30  and  C_31
REMARK                            x       y       z     vdW  Elec       q    Type
REMARK                         _______ _______ _______ _____ _____    ______ ____
ROOT
ATOM      1  C   UNL     1      -1.103  -2.181   0.001  0.00  0.00    +0.184 C 
ENDROOT
BRANCH   1   2
ATOM      2  C   UNL     1      -1.900  -2.701   1.170  0.00  0.00    +0.239 C 
ATOM      3  O   UNL     1      -1.365  -3.396   2.007  0.00  0.00    -0.273 OA
ATOM      4  N   UNL     1      -3.207  -2.394   1.284  0.00  0.00    -0.294 N 
ATOM      5  H   UNL     1      -3.635  -1.838   0.614  0.00  0.00    +0.150 HD
BRANCH   4   6
ATOM      6  C   UNL     1      -3.982  -2.899   2.420  0.00  0.00    +0.278 C 
BRANCH   6   7
ATOM      7  S   UNL     1      -4.018  -1.647   3.732  0.00  0.00    +0.013 S 
ATOM      8  O   UNL     1      -4.819  -2.096   4.816  0.00  0.00    -0.168 OA
ATOM      9  O   UNL     1      -2.710  -1.138   3.959  0.00  0.00    -0.168 OA
BRANCH   7  10
ATOM     10  C   UNL     1      -4.913  -0.294   3.043  0.00  0.00    +0.090 A 
ATOM     11  C   UNL     1      -4.242   0.698   2.352  0.00  0.00    +0.027 A 
ATOM     12  C   UNL     1      -4.944   1.759   1.811  0.00  0.00    +0.005 A 
ATOM     13  C   UNL     1      -6.317   1.827   1.961  0.00  0.00    -0.050 A 
ATOM     14  C   UNL     1      -6.987   0.835   2.651  0.00  0.00    +0.005 A 
ATOM     15  C   UNL     1      -6.286  -0.228   3.188  0.00  0.00    +0.027 A 
ATOM     16  C   UNL     1      -7.082   2.985   1.372  0.00  0.00    +0.044 C 
ENDBRANCH   7  10
ENDBRANCH   6   7
ENDBRANCH   4   6
ENDBRANCH   1   2
BRANCH   1  17
ATOM     17  N   UNL     1       0.281  -2.651   0.105  0.00  0.00    -0.289 N 
ATOM     18  C   UNL     1       1.090  -2.293   1.273  0.00  0.00    +0.133 C 
ATOM     19  C   UNL     1       0.809  -3.414  -0.872  0.00  0.00    +0.221 C 
ATOM     20  O   UNL     1       0.139  -3.711  -1.839  0.00  0.00    -0.275 OA
BRANCH  19  21
ATOM     21  C   UNL     1       2.232  -3.897  -0.765  0.00  0.00    +0.131 C 
BRANCH  21  22
ATOM     22  C   UNL     1       2.575  -4.723  -1.978  0.00  0.00    -0.036 A 
ATOM     23  C   UNL     1       2.447  -6.099  -1.936  0.00  0.00    +0.004 A 
ATOM     24  C   UNL     1       2.761  -6.857  -3.048  0.00  0.00    +0.000 A 
ATOM     25  C   UNL     1       3.204  -6.239  -4.203  0.00  0.00    +0.000 A 
ATOM     26  C   UNL     1       3.331  -4.863  -4.245  0.00  0.00    +0.003 A 
ATOM     27  C   UNL     1       3.013  -4.105  -3.134  0.00  0.00    -0.047 A 
ATOM     28  C   UNL     1       3.146  -2.605  -3.181  0.00  0.00    +0.044 C 
ENDBRANCH  21  22
ENDBRANCH  19  21
ENDBRANCH   1  17
BRANCH   1  31
ATOM     29  C   UNL     1      -0.018   1.503   0.010  0.00  0.00    +0.035 C 
ATOM     30  C   UNL     1       0.002  -0.004   0.002  0.00  0.00    -0.032 C 
ATOM     31  C   UNL     1      -1.123  -0.674   0.009  0.00  0.00    +0.000 C 
ENDBRANCH   1  31
TORSDOF 8
