REMARK  Name = ZINC19805635
REMARK  7 active torsions:
REMARK  status: ('A' for Active; 'I' for Inactive)
REMARK    1  A    between atoms: C_8  and  N_24
REMARK    2  A    between atoms: C_9  and  N_11
REMARK    3  A    between atoms: N_11  and  S_12
REMARK    4  A    between atoms: S_12  and  C_15
REMARK    5  A    between atoms: C_19  and  N_21
REMARK    6  A    between atoms: N_24  and  C_25
REMARK    7  A    between atoms: C_29  and  C_31
REMARK                            x       y       z     vdW  Elec       q    Type
REMARK                         _______ _______ _______ _____ _____    ______ ____
ROOT
ATOM      1  C   UNL     1       0.061   1.344   0.689  0.00  0.00    +0.002 A 
ATOM      2  C   UNL     1       1.220   2.080   0.458  0.00  0.00    +0.002 A 
ATOM      3  C   UNL     1       2.398   1.458   0.173  0.00  0.00    +0.030 A 
ATOM      4  C   UNL     1       2.449   0.056   0.112  0.00  0.00    +0.092 A 
ATOM      5  C   UNL     1       1.271  -0.692   0.347  0.00  0.00    +0.091 A 
ATOM      6  C   UNL     1       0.074  -0.017   0.637  0.00  0.00    +0.030 A 
ATOM      7  N   UNL     1       1.310  -2.031   0.290  0.00  0.00    -0.227 NA
ATOM      8  C   UNL     1       2.444  -2.642   0.017  0.00  0.00    +0.167 A 
ATOM      9  C   UNL     1       3.622  -1.894  -0.218  0.00  0.00    +0.203 A 
ATOM     10  N   UNL     1       3.598  -0.578  -0.166  0.00  0.00    -0.224 NA
ENDROOT
BRANCH   8  11
ATOM     11  N   UNL     1       2.484  -4.028  -0.041  0.00  0.00    -0.297 N 
ATOM     12  H   UNL     1       3.332  -4.484  -0.160  0.00  0.00    +0.154 HD
BRANCH  11  13
ATOM     13  C   UNL     1       1.303  -4.766   0.072  0.00  0.00    +0.033 A 
ATOM     14  C   UNL     1       0.131  -4.298  -0.512  0.00  0.00    +0.023 A 
ATOM     15  C   UNL     1      -1.040  -5.025  -0.404  0.00  0.00    +0.003 A 
ATOM     16  C   UNL     1      -1.055  -6.220   0.285  0.00  0.00    +0.015 A 
ATOM     17  C   UNL     1       0.117  -6.700   0.876  0.00  0.00    +0.065 A 
ATOM     18  C   UNL     1       1.301  -5.969   0.762  0.00  0.00    +0.038 A 
BRANCH  17  19
ATOM     19  C   UNL     1       0.104  -7.978   1.614  0.00  0.00    +0.387 C 
ATOM     20  O   UNL     1      -0.933  -8.619   1.709  0.00  0.00    -0.241 OA
ATOM     21  O   UNL     1       1.131  -8.396   2.130  0.00  0.00    -0.241 OA
ENDBRANCH  17  19
ENDBRANCH  11  13
ENDBRANCH   8  11
BRANCH   9  22
ATOM     22  N   UNL     1       4.809  -2.550  -0.505  0.00  0.00    -0.074 NA
BRANCH  22  23
ATOM     23  S   UNL     1       6.191  -1.680  -0.781  0.00  0.00    +0.093 S 
ATOM     24  O   UNL     1       5.981  -0.955  -1.985  0.00  0.00    -0.148 OA
ATOM     25  O   UNL     1       6.520  -1.041   0.445  0.00  0.00    -0.148 OA
BRANCH  23  26
ATOM     26  C   UNL     1       7.479  -2.837  -1.107  0.00  0.00    +0.113 A 
ATOM     27  C   UNL     1       8.240  -3.337  -0.067  0.00  0.00    +0.029 A 
ATOM     28  C   UNL     1       9.250  -4.244  -0.323  0.00  0.00    +0.004 A 
ATOM     29  C   UNL     1       9.500  -4.653  -1.620  0.00  0.00    +0.033 A 
ATOM     30  C   UNL     1       8.739  -4.154  -2.660  0.00  0.00    +0.128 A 
ATOM     31  C   UNL     1       7.725  -3.250  -2.403  0.00  0.00    +0.061 A 
BRANCH  30  32
ATOM     32  N   UNL     1       9.006  -4.591  -4.049  0.00  0.00    +0.056 N 
ATOM     33  O   UNL     1       9.891  -5.385  -4.273  0.00  0.00    -0.126 OA
ATOM     34  O   UNL     1       8.341  -4.155  -4.959  0.00  0.00    -0.126 OA
ENDBRANCH  30  32
ENDBRANCH  23  26
ENDBRANCH  22  23
ENDBRANCH   9  22
TORSDOF 7
