REMARK  Name = ZINC60168898
REMARK  2 active torsions:
REMARK  status: ('A' for Active; 'I' for Inactive)
REMARK    1  A    between atoms: C_3  and  N_8
REMARK    2  A    between atoms: C_11  and  C_13
REMARK                            x       y       z     vdW  Elec       q    Type
REMARK                         _______ _______ _______ _____ _____    ______ ____
ROOT
ATOM      1  N   UNL     1       3.585   2.126  -0.021  0.00  0.00    -0.236 N 
ATOM      2  C   UNL     1       4.694   1.788   0.673  0.00  0.00    +0.049 A 
ATOM      3  C   UNL     1       5.636   2.725   0.404  0.00  0.00    +0.006 A 
ATOM      4  C   UNL     1       5.034   3.633  -0.485  0.00  0.00    +0.151 A 
ATOM      5  N   UNL     1       3.802   3.202  -0.696  0.00  0.00    -0.161 NA
ATOM      6  C   UNL     1       7.025   2.730   0.979  0.00  0.00    +0.039 C 
ATOM      7  C   UNL     1       7.050   1.782   2.185  0.00  0.00    +0.005 C 
ATOM      8  C   UNL     1       6.428   0.439   1.793  0.00  0.00    +0.006 C 
ATOM      9  C   UNL     1       4.917   0.611   1.588  0.00  0.00    +0.056 C 
ENDROOT
BRANCH   4  10
ATOM     10  C   UNL     1       5.660   4.835  -1.073  0.00  0.00    +0.270 C 
ATOM     11  O   UNL     1       6.809   5.118  -0.798  0.00  0.00    -0.268 OA
ATOM     12  N   UNL     1       4.956   5.617  -1.915  0.00  0.00    -0.264 N 
ATOM     13  C   UNL     1       5.549   6.756  -2.474  0.00  0.00    +0.147 A 
ATOM     14  C   UNL     1       6.863   7.197  -2.248  0.00  0.00    +0.064 A 
ATOM     15  C   UNL     1       7.051   8.328  -2.966  0.00  0.00    +0.107 A 
ATOM     16  N   UNL     1       5.902   8.597  -3.621  0.00  0.00    -0.283 N 
ATOM     17  H   UNL     1       5.747   9.350  -4.213  0.00  0.00    +0.188 HD
ATOM     18  N   UNL     1       4.976   7.596  -3.303  0.00  0.00    -0.159 NA
ATOM     19  H   UNL     1       4.038   5.391  -2.135  0.00  0.00    +0.157 HD
ENDBRANCH   4  10
BRANCH   1  22
ATOM     20  C   UNL     1       0.696   0.194   1.184  0.00  0.00    +0.003 A 
ATOM     21  C   UNL     1       1.883   0.899   1.178  0.00  0.00    +0.028 A 
ATOM     22  C   UNL     1       2.381   1.410  -0.013  0.00  0.00    +0.067 A 
ATOM     23  C   UNL     1       1.683   1.209  -1.197  0.00  0.00    +0.043 A 
ATOM     24  C   UNL     1       0.496   0.503  -1.185  0.00  0.00    +0.020 A 
ATOM     25  C   UNL     1       0.002  -0.005   0.004  0.00  0.00    +0.015 A 
ATOM     26 BR   UNL     1      -0.456   0.229  -2.796  0.00  0.00    -0.050 Br
ENDBRANCH   1  22
TORSDOF 2
