REMARK  Name = ZINC40755226
REMARK  5 active torsions:
REMARK  status: ('A' for Active; 'I' for Inactive)
REMARK    1  A    between atoms: C_1  and  C_2
REMARK    2  A    between atoms: C_6  and  N_9
REMARK    3  A    between atoms: C_7  and  C_8
REMARK    4  A    between atoms: C_11  and  N_28
REMARK    5  A    between atoms: C_12  and  N_16
REMARK                            x       y       z     vdW  Elec       q    Type
REMARK                         _______ _______ _______ _____ _____    ______ ____
ROOT
ATOM      1  N   UNL     1       0.082  -2.803   2.401  0.00  0.00    -0.298 N 
ATOM      2  C   UNL     1      -0.014  -4.190   2.389  0.00  0.00    +0.149 A 
ATOM      3  C   UNL     1      -0.110  -4.904   3.585  0.00  0.00    +0.106 A 
ATOM      4  C   UNL     1      -0.204  -6.295   3.516  0.00  0.00    +0.147 A 
ATOM      5  N   UNL     1      -0.199  -6.883   2.322  0.00  0.00    -0.219 NA
ATOM      6  C   UNL     1      -0.107  -6.172   1.217  0.00  0.00    +0.225 A 
ATOM      7  N   UNL     1      -0.021  -4.857   1.238  0.00  0.00    -0.219 NA
ATOM      8  H   UNL     1       0.171  -2.330   3.243  0.00  0.00    +0.154 HD
ENDROOT
BRANCH   4   9
ATOM      9  N   UNL     1      -0.302  -7.054   4.676  0.00  0.00    -0.311 N 
ATOM     10  C   UNL     1      -1.607  -7.289   5.309  0.00  0.00    +0.125 C 
ATOM     11  C   UNL     1      -1.816  -8.801   5.455  0.00  0.00    +0.125 C 
ATOM     12  N   UNL     1      -0.616  -9.384   6.070  0.00  0.00    -0.314 N 
ATOM     13  C   UNL     1       0.690  -9.150   5.437  0.00  0.00    +0.125 C 
ATOM     14  C   UNL     1       0.898  -7.642   5.288  0.00  0.00    +0.125 C 
ATOM     15  C   UNL     1      -0.713 -10.143   7.231  0.00  0.00    +0.099 A 
ATOM     16  C   UNL     1      -1.966 -10.454   7.748  0.00  0.00    +0.042 A 
ATOM     17  C   UNL     1      -2.049 -11.210   8.904  0.00  0.00    +0.005 A 
ATOM     18  C   UNL     1      -0.870 -11.632   9.505  0.00  0.00    +0.018 A 
ATOM     19  C   UNL     1       0.340 -11.288   8.936  0.00  0.00    +0.084 A 
ATOM     20  N   UNL     1       0.388 -10.569   7.830  0.00  0.00    -0.350 N 
ATOM     21  H   UNL     1       1.251 -10.344   7.449  0.00  0.00    +0.166 HD
ENDBRANCH   4   9
BRANCH   1  27
ATOM     22  C   UNL     1       1.234   1.234  -0.156  0.00  0.00    +0.044 C 
ATOM     23  C   UNL     1       0.600  -0.130  -0.069  0.00  0.00    -0.046 A 
ATOM     24  C   UNL     1      -0.016  -0.678  -1.179  0.00  0.00    +0.004 A 
ATOM     25  C   UNL     1      -0.600  -1.929  -1.104  0.00  0.00    +0.002 A 
ATOM     26  C   UNL     1      -0.569  -2.637   0.082  0.00  0.00    +0.023 A 
ATOM     27  C   UNL     1       0.049  -2.090   1.200  0.00  0.00    +0.036 A 
ATOM     28  C   UNL     1       0.638  -0.834   1.119  0.00  0.00    -0.026 A 
ATOM     29  C   UNL     1       1.315  -0.239   2.327  0.00  0.00    +0.046 C 
ENDBRANCH   1  27
BRANCH   3  30
ATOM     30  N   UNL     1      -0.111  -4.242   4.823  0.00  0.00    -0.353 N 
ATOM     31  H   UNL     1      -0.118  -3.272   4.854  0.00  0.00    +0.143 HD
ATOM     32  H   UNL     1      -0.105  -4.753   5.647  0.00  0.00    +0.143 HD
ENDBRANCH   3  30
TORSDOF 3
