REMARK  Name = ZINC36629514
REMARK  6 active torsions:
REMARK  status: ('A' for Active; 'I' for Inactive)
REMARK    1  A    between atoms: C_1  and  N_2
REMARK    2  A    between atoms: C_8  and  N_13
REMARK    3  A    between atoms: C_9  and  C_10
REMARK    4  A    between atoms: C_14  and  C_16
REMARK    5  A    between atoms: C_16  and  C_17
REMARK    6  A    between atoms: C_20  and  C_23
REMARK                            x       y       z     vdW  Elec       q    Type
REMARK                         _______ _______ _______ _____ _____    ______ ____
ROOT
ATOM      1  N   UNL     1       0.848  -5.858   2.215  0.00  0.00    -0.279 N 
ATOM      2  C   UNL     1       1.839  -6.107   3.094  0.00  0.00    +0.222 C 
ATOM      3  O   UNL     1       2.519  -5.196   3.515  0.00  0.00    -0.275 OA
ATOM      4  H   UNL     1       0.305  -6.588   1.878  0.00  0.00    +0.155 HD
ENDROOT
BRANCH   1  12
ATOM      5  C   UNL     1      -0.018   1.465   0.010  0.00  0.00    -0.096 C 
ATOM      6  N   UNL     1       0.002  -0.004   0.002  0.00  0.00    +0.381 N 
ATOM      7  C   UNL     1      -1.376  -0.512   0.008  0.00  0.00    -0.074 C 
ATOM      8  C   UNL     1      -1.389  -2.010  -0.313  0.00  0.00    +0.018 C 
ATOM      9  C   UNL     1      -0.409  -2.698   0.626  0.00  0.00    -0.027 A 
ATOM     10  C   UNL     1       0.522  -1.973   1.288  0.00  0.00    -0.021 A 
ATOM     11  S   UNL     1       1.416  -3.159   2.244  0.00  0.00    -0.079 S 
ATOM     12  C   UNL     1       0.605  -4.560   1.793  0.00  0.00    +0.084 A 
ATOM     13  C   UNL     1      -0.363  -4.120   0.903  0.00  0.00    +0.068 A 
ATOM     14  C   UNL     1       0.715  -0.492   1.197  0.00  0.00    -0.036 C 
ATOM     15  H   UNL     1       0.475  -0.329  -0.828  0.00  0.00    -0.082 HD
BRANCH  13  16
ATOM     16  C   UNL     1      -1.299  -5.053   0.268  0.00  0.00    +0.244 C 
ATOM     17  O   UNL     1      -1.013  -5.574  -0.794  0.00  0.00    -0.270 OA
ATOM     18  N   UNL     1      -2.476  -5.334   0.861  0.00  0.00    -0.325 N 
ATOM     19  H   UNL     1      -2.704  -4.919   1.707  0.00  0.00    +0.145 HD
ATOM     20  H   UNL     1      -3.096  -5.952   0.441  0.00  0.00    +0.145 HD
ENDBRANCH  13  16
ENDBRANCH   1  12
BRANCH   2  21
ATOM     21  C   UNL     1       2.103  -7.518   3.552  0.00  0.00    +0.131 C 
BRANCH  21  22
ATOM     22  C   UNL     1       3.254  -7.523   4.525  0.00  0.00    -0.039 A 
ATOM     23  C   UNL     1       4.549  -7.672   4.061  0.00  0.00    +0.005 A 
ATOM     24  C   UNL     1       5.606  -7.677   4.947  0.00  0.00    +0.009 A 
ATOM     25  C   UNL     1       5.369  -7.533   6.312  0.00  0.00    -0.018 A 
ATOM     26  C   UNL     1       4.063  -7.383   6.775  0.00  0.00    +0.009 A 
ATOM     27  C   UNL     1       3.013  -7.374   5.879  0.00  0.00    +0.005 A 
BRANCH  25  28
ATOM     28  C   UNL     1       6.502  -7.538   7.270  0.00  0.00    -0.018 A 
ATOM     29  C   UNL     1       7.808  -7.682   6.807  0.00  0.00    +0.008 A 
ATOM     30  C   UNL     1       8.858  -7.686   7.703  0.00  0.00    +0.001 A 
ATOM     31  C   UNL     1       8.616  -7.548   9.057  0.00  0.00    +0.000 A 
ATOM     32  C   UNL     1       7.321  -7.405   9.523  0.00  0.00    +0.001 A 
ATOM     33  C   UNL     1       6.264  -7.394   8.636  0.00  0.00    +0.008 A 
ENDBRANCH  25  28
ENDBRANCH  21  22
ENDBRANCH   2  21
TORSDOF 5
