REMARK  Name = ZINC34757258
REMARK  6 active torsions:
REMARK  status: ('A' for Active; 'I' for Inactive)
REMARK    1  A    between atoms: C_1  and  C_2
REMARK    2  A    between atoms: C_2  and  C_3
REMARK    3  A    between atoms: C_2  and  C_4
REMARK    4  A    between atoms: C_7  and  N_10
REMARK    5  A    between atoms: C_18  and  O_28
REMARK    6  A    between atoms: O_28  and  C_29
REMARK                            x       y       z     vdW  Elec       q    Type
REMARK                         _______ _______ _______ _____ _____    ______ ____
ROOT
ATOM      1  N   UNL     1       3.023  -3.679   4.388  0.00  0.00    -0.269 N 
ATOM      2  C   UNL     1       2.217  -3.616   5.467  0.00  0.00    +0.307 C 
ATOM      3  O   UNL     1       1.056  -3.966   5.379  0.00  0.00    -0.252 OA
ATOM      4  N   UNL     1       2.698  -3.166   6.642  0.00  0.00    -0.280 N 
ATOM      5  C   UNL     1       1.880  -3.196   7.866  0.00  0.00    +0.116 C 
ATOM      6  C   UNL     1       2.550  -4.145   8.860  0.00  0.00    +0.075 C 
ATOM      7  C   UNL     1       4.024  -3.861   8.958  0.00  0.00    +0.056 A 
ATOM      8  C   UNL     1       4.719  -3.179   7.989  0.00  0.00    +0.053 A 
ATOM      9  C   UNL     1       6.091  -2.978   8.162  0.00  0.00    +0.230 A 
ATOM     10  N   UNL     1       6.680  -3.441   9.257  0.00  0.00    -0.179 NA
ATOM     11  C   UNL     1       5.977  -4.086  10.175  0.00  0.00    +0.221 A 
ATOM     12  N   UNL     1       4.678  -4.295  10.033  0.00  0.00    -0.219 NA
ATOM     13  N   UNL     1       6.615  -4.554  11.310  0.00  0.00    -0.295 N 
ATOM     14  C   UNL     1       5.899  -5.377  12.297  0.00  0.00    +0.136 C 
ATOM     15  C   UNL     1       6.735  -6.630  12.580  0.00  0.00    +0.179 C 
ATOM     16  O   UNL     1       8.066  -6.240  12.925  0.00  0.00    -0.377 OA
ATOM     17  C   UNL     1       8.763  -5.552  11.884  0.00  0.00    +0.179 C 
ATOM     18  C   UNL     1       8.032  -4.248  11.563  0.00  0.00    +0.136 C 
ATOM     19  C   UNL     1       4.061  -2.632   6.755  0.00  0.00    +0.151 C 
ATOM     20  H   UNL     1       3.965  -3.464   4.473  0.00  0.00    +0.156 HD
ENDROOT
BRANCH   1  24
ATOM     21  C   UNL     1       1.468  -4.798   0.688  0.00  0.00    -0.045 A 
ATOM     22  C   UNL     1       2.506  -3.886   0.753  0.00  0.00    +0.006 A 
ATOM     23  C   UNL     1       3.023  -3.513   1.978  0.00  0.00    +0.023 A 
ATOM     24  C   UNL     1       2.500  -4.055   3.145  0.00  0.00    +0.035 A 
ATOM     25  C   UNL     1       1.458  -4.970   3.076  0.00  0.00    +0.023 A 
ATOM     26  C   UNL     1       0.942  -5.335   1.849  0.00  0.00    +0.006 A 
BRANCH  21  28
ATOM     27  C   UNL     1       0.366  -3.967  -1.372  0.00  0.00    +0.012 C 
ATOM     28  C   UNL     1       0.906  -5.203  -0.650  0.00  0.00    +0.013 C 
ATOM     29  C   UNL     1       2.010  -5.844  -1.494  0.00  0.00    +0.012 C 
ENDBRANCH  21  28
ENDBRANCH   1  24
BRANCH   9  30
ATOM     30  O   UNL     1       6.811  -2.317   7.223  0.00  0.00    -0.435 OA
BRANCH  30  31
ATOM     31  C   UNL     1       8.145  -2.160   7.436  0.00  0.00    +0.166 A 
ATOM     32  C   UNL     1       8.899  -3.216   7.926  0.00  0.00    +0.052 A 
ATOM     33  C   UNL     1      10.255  -3.055   8.141  0.00  0.00    +0.042 A 
ATOM     34  C   UNL     1      10.861  -1.841   7.867  0.00  0.00    +0.126 A 
ATOM     35  C   UNL     1      10.112  -0.785   7.378  0.00  0.00    +0.080 A 
ATOM     36  C   UNL     1       8.755  -0.944   7.156  0.00  0.00    +0.168 A 
ATOM     37  F   UNL     1       8.024   0.084   6.673  0.00  0.00    -0.202 F 
ATOM     38  F   UNL     1      12.187  -1.686   8.079  0.00  0.00    -0.205 F 
ENDBRANCH  30  31
ENDBRANCH   9  30
TORSDOF 4
