REMARK  Name = ZINC01083543
REMARK  10 active torsions:
REMARK  status: ('A' for Active; 'I' for Inactive)
REMARK    1  A    between atoms: C_1  and  C_2
REMARK    2  A    between atoms: C_6  and  C_33
REMARK    3  A    between atoms: C_7  and  N_8
REMARK    4  A    between atoms: C_9  and  C_11
REMARK    5  A    between atoms: C_11  and  C_13
REMARK    6  A    between atoms: C_11  and  N_22
REMARK    7  A    between atoms: C_16  and  N_19
REMARK    8  A    between atoms: N_19  and  C_20
REMARK    9  A    between atoms: N_19  and  C_21
REMARK   10  A    between atoms: C_23  and  C_28
REMARK                            x       y       z     vdW  Elec       q    Type
REMARK                         _______ _______ _______ _____ _____    ______ ____
ROOT
ATOM      1  C   UNL     1      -0.416   0.013   4.915  0.00  0.00    +0.193 C 
ENDROOT
BRANCH   1   2
ATOM      2  C   UNL     1      -1.737   0.713   5.110  0.00  0.00    -0.018 A 
ATOM      3  C   UNL     1      -2.809   0.025   5.648  0.00  0.00    +0.008 A 
ATOM      4  C   UNL     1      -4.021   0.663   5.827  0.00  0.00    +0.023 A 
ATOM      5  C   UNL     1      -4.162   1.997   5.466  0.00  0.00    +0.029 A 
ATOM      6  C   UNL     1      -3.082   2.685   4.926  0.00  0.00    +0.023 A 
ATOM      7  C   UNL     1      -1.872   2.042   4.755  0.00  0.00    +0.008 A 
BRANCH   5   8
ATOM      8  N   UNL     1      -5.386   2.646   5.646  0.00  0.00    -0.336 N 
ATOM      9  C   UNL     1      -6.485   1.959   6.328  0.00  0.00    +0.129 C 
ATOM     10  C   UNL     1      -5.570   4.013   5.153  0.00  0.00    +0.129 C 
ENDBRANCH   5   8
ENDBRANCH   1   2
BRANCH   1  11
ATOM     11  N   UNL     1      -0.184  -0.910   6.029  0.00  0.00    -0.275 N 
ATOM     12  C   UNL     1       0.788  -0.940   7.114  0.00  0.00    +0.152 C 
ATOM     13  C   UNL     1       0.129  -2.226   7.596  0.00  0.00    +0.126 C 
ATOM     14  C   UNL     1      -0.791  -2.035   6.427  0.00  0.00    +0.219 C 
ATOM     15  O   UNL     1      -1.736  -2.665   6.001  0.00  0.00    -0.275 OA
BRANCH  12  16
ATOM     16  C   UNL     1       2.207  -1.131   6.643  0.00  0.00    +0.126 A 
ATOM     17  C   UNL     1       3.291  -0.512   7.143  0.00  0.00    +0.046 A 
ATOM     18  C   UNL     1       4.405  -0.984   6.412  0.00  0.00    +0.041 A 
ATOM     19  C   UNL     1       3.935  -1.863   5.509  0.00  0.00    +0.195 A 
ATOM     20  O   UNL     1       2.603  -1.952   5.658  0.00  0.00    -0.466 OA
ENDBRANCH  12  16
ENDBRANCH   1  11
BRANCH   1  22
ATOM     21  N   UNL     1      -0.237  -0.118   2.452  0.00  0.00    -0.283 N 
ATOM     22  C   UNL     1      -0.442  -0.757   3.620  0.00  0.00    +0.242 C 
ATOM     23  O   UNL     1      -0.647  -1.953   3.630  0.00  0.00    -0.273 OA
ATOM     24  H   UNL     1      -0.125   0.845   2.439  0.00  0.00    +0.155 HD
BRANCH  21  31
ATOM     25  C   UNL     1       1.619  -2.268   2.264  0.00  0.00    +0.045 C 
ATOM     26  C   UNL     1       0.705  -1.901   1.123  0.00  0.00    -0.029 A 
ATOM     27  C   UNL     1       0.749  -2.620  -0.056  0.00  0.00    +0.005 A 
ATOM     28  C   UNL     1      -0.088  -2.284  -1.104  0.00  0.00    +0.001 A 
ATOM     29  C   UNL     1      -0.972  -1.229  -0.976  0.00  0.00    +0.005 A 
ATOM     30  C   UNL     1      -1.022  -0.507   0.201  0.00  0.00    -0.029 A 
ATOM     31  C   UNL     1      -0.186  -0.845   1.257  0.00  0.00    +0.039 A 
ATOM     32  C   UNL     1      -1.985   0.644   0.339  0.00  0.00    +0.045 C 
ENDBRANCH  21  31
ENDBRANCH   1  22
TORSDOF 6
