REMARK  Name = ZINC08798805
REMARK  14 active torsions:
REMARK  status: ('A' for Active; 'I' for Inactive)
REMARK    1  A    between atoms: C_1  and  C_2
REMARK    2  A    between atoms: C_3  and  C_31
REMARK    3  A    between atoms: C_4  and  C_30
REMARK    4  A    between atoms: C_5  and  S_10
REMARK    5  A    between atoms: C_6  and  C_9
REMARK    6  A    between atoms: C_7  and  C_8
REMARK    7  A    between atoms: S_10  and  N_13
REMARK    8  A    between atoms: N_13  and  C_14
REMARK    9  A    between atoms: C_14  and  C_15
REMARK   10  A    between atoms: C_15  and  C_17
REMARK   11  A    between atoms: C_15  and  N_68
REMARK   12  A    between atoms: N_26  and  C_27
REMARK   13  A    between atoms: C_28  and  N_68
REMARK   14  A    between atoms: C_29  and  N_68
REMARK                            x       y       z     vdW  Elec       q    Type
REMARK                         _______ _______ _______ _____ _____    ______ ____
ROOT
ATOM      1  C   UNL     1       1.456  -1.948   6.668  0.00  0.00    +0.095 C 
ENDROOT
BRANCH   1   2
ATOM      2  N   UNL     1       2.332  -2.835   7.437  0.00  0.00    -0.191 NA
ATOM      3  H   UNL     1       3.095  -3.254   7.009  0.00  0.00    +0.148 HD
BRANCH   2   4
ATOM      4  S   UNL     1       2.021  -3.121   9.038  0.00  0.00    +0.059 S 
ATOM      5  O   UNL     1       3.018  -4.028   9.489  0.00  0.00    -0.153 OA
ATOM      6  O   UNL     1       1.814  -1.853   9.645  0.00  0.00    -0.153 OA
BRANCH   4  11
ATOM      7  C   UNL     1      -3.243  -6.055   9.334  0.00  0.00    +0.044 C 
ATOM      8  C   UNL     1      -1.928  -5.323   9.260  0.00  0.00    -0.044 A 
ATOM      9  C   UNL     1      -1.910  -3.950   9.093  0.00  0.00    -0.043 A 
ATOM     10  C   UNL     1      -0.704  -3.278   9.025  0.00  0.00    -0.021 A 
ATOM     11  C   UNL     1       0.484  -3.978   9.125  0.00  0.00    +0.112 A 
ATOM     12  C   UNL     1       0.466  -5.351   9.287  0.00  0.00    -0.021 A 
ATOM     13  C   UNL     1      -0.740  -6.022   9.359  0.00  0.00    -0.043 A 
ATOM     14  C   UNL     1      -0.760  -7.518   9.542  0.00  0.00    +0.044 C 
ATOM     15  C   UNL     1       1.761  -6.114   9.389  0.00  0.00    +0.046 C 
ATOM     16  C   UNL     1      -0.684  -1.782   8.843  0.00  0.00    +0.046 C 
ATOM     17  C   UNL     1      -3.205  -3.188   8.985  0.00  0.00    +0.044 C 
ENDBRANCH   4  11
ENDBRANCH   2   4
ENDBRANCH   1   2
BRANCH   1  18
ATOM     18  C   UNL     1       2.230  -1.368   5.482  0.00  0.00    -0.023 C 
BRANCH  18  19
ATOM     19  C   UNL     1       1.353  -0.395   4.737  0.00  0.00    -0.059 A 
ATOM     20  C   UNL     1       0.074  -0.763   4.361  0.00  0.00    +0.004 A 
ATOM     21  C   UNL     1      -0.725   0.127   3.676  0.00  0.00    +0.023 A 
ATOM     22  C   UNL     1      -0.251   1.401   3.358  0.00  0.00    +0.033 A 
ATOM     23  C   UNL     1       1.027   1.766   3.741  0.00  0.00    -0.026 A 
ATOM     24  C   UNL     1       1.826   0.864   4.427  0.00  0.00    +0.007 A 
ATOM     25  C   UNL     1       1.592   3.132   3.443  0.00  0.00    +0.038 C 
ATOM     26  C   UNL     1       0.738   3.820   2.375  0.00  0.00    +0.024 C 
ATOM     27  C   UNL     1      -0.735   3.663   2.776  0.00  0.00    +0.105 C 
ATOM     28  N   UNL     1      -1.105   2.252   2.657  0.00  0.00    -0.333 N 
ATOM     29  C   UNL     1      -2.503   2.039   3.055  0.00  0.00    +0.129 C 
ENDBRANCH  18  19
BRANCH  18  32
ATOM     30  C   UNL     1       1.544  -3.429   4.412  0.00  0.00    -0.096 C 
ATOM     31  C   UNL     1       3.072  -1.928   3.282  0.00  0.00    -0.096 C 
ATOM     32  N   UNL     1       2.654  -2.470   4.593  0.00  0.00    +0.381 N 
ATOM     33  H   UNL     1       3.450  -2.957   5.021  0.00  0.00    -0.082 HD
ENDBRANCH  18  32
ENDBRANCH   1  18
TORSDOF 6
