REMARK  Name = ZINC66166014
REMARK  13 active torsions:
REMARK  status: ('A' for Active; 'I' for Inactive)
REMARK    1  A    between atoms: C_1  and  C_2
REMARK    2  A    between atoms: C_2  and  C_4
REMARK    3  A    between atoms: C_2  and  O_20
REMARK    4  A    between atoms: C_4  and  N_5
REMARK    5  A    between atoms: N_5  and  C_6
REMARK    6  A    between atoms: C_9  and  O_12
REMARK    7  A    between atoms: O_12  and  C_13
REMARK    8  A    between atoms: C_13  and  C_14
REMARK    9  A    between atoms: O_20  and  C_21
REMARK   10  A    between atoms: C_24  and  C_27
REMARK   11  A    between atoms: C_27  and  C_28
REMARK   12  A    between atoms: C_27  and  C_29
REMARK   13  A    between atoms: C_27  and  C_30
REMARK                            x       y       z     vdW  Elec       q    Type
REMARK                         _______ _______ _______ _____ _____    ______ ____
ROOT
ATOM      1  N   UNL     1      -1.678  -1.770   0.270  0.00  0.00    -0.340 N 
ATOM      2  H   UNL     1      -0.909  -2.361   0.260  0.00  0.00    +0.146 HD
ENDROOT
BRANCH   1   3
ATOM      3  C   UNL     1      -2.965  -2.300   0.410  0.00  0.00    +0.027 A 
ATOM      4  C   UNL     1      -4.067  -1.455   0.418  0.00  0.00    +0.026 A 
ATOM      5  C   UNL     1      -5.338  -1.979   0.556  0.00  0.00    +0.047 A 
ATOM      6  C   UNL     1      -5.513  -3.348   0.686  0.00  0.00    +0.121 A 
ATOM      7  C   UNL     1      -4.413  -4.193   0.679  0.00  0.00    +0.047 A 
ATOM      8  C   UNL     1      -3.143  -3.672   0.535  0.00  0.00    +0.026 A 
BRANCH   6   9
ATOM      9  O   UNL     1      -6.765  -3.863   0.822  0.00  0.00    -0.487 OA
BRANCH   9  10
ATOM     10  C   UNL     1      -6.872  -5.282   0.952  0.00  0.00    +0.264 C 
BRANCH  10  11
ATOM     11  C   UNL     1      -8.323  -5.666   1.091  0.00  0.00    -0.010 A 
ATOM     12  C   UNL     1      -8.902  -5.734   2.344  0.00  0.00    +0.007 A 
ATOM     13  C   UNL     1     -10.233  -6.086   2.471  0.00  0.00    +0.000 A 
ATOM     14  C   UNL     1     -10.984  -6.369   1.346  0.00  0.00    +0.000 A 
ATOM     15  C   UNL     1     -10.405  -6.300   0.093  0.00  0.00    +0.000 A 
ATOM     16  C   UNL     1      -9.075  -5.944  -0.035  0.00  0.00    +0.007 A 
ENDBRANCH  10  11
ENDBRANCH   9  10
ENDBRANCH   6   9
ENDBRANCH   1   3
BRANCH   1  17
ATOM     17  C   UNL     1      -1.491  -0.323   0.138  0.00  0.00    +0.145 C 
BRANCH  17  19
ATOM     18  C   UNL     1       0.195   1.500  -0.138  0.00  0.00    +0.053 C 
ATOM     19  C   UNL     1       0.000  -0.012   0.000  0.00  0.00    +0.187 C 
BRANCH  19  20
ATOM     20  O   UNL     1       0.693  -0.477   1.160  0.00  0.00    -0.488 OA
BRANCH  20  21
ATOM     21  C   UNL     1       2.014  -0.764   1.016  0.00  0.00    +0.121 A 
ATOM     22  C   UNL     1       2.721  -1.330   2.067  0.00  0.00    +0.046 A 
ATOM     23  C   UNL     1       4.063  -1.621   1.917  0.00  0.00    +0.008 A 
ATOM     24  C   UNL     1       4.702  -1.348   0.722  0.00  0.00    -0.042 A 
ATOM     25  C   UNL     1       4.000  -0.783  -0.326  0.00  0.00    +0.008 A 
ATOM     26  C   UNL     1       2.656  -0.496  -0.184  0.00  0.00    +0.046 A 
BRANCH  24  27
ATOM     27  C   UNL     1       6.167  -1.665   0.563  0.00  0.00    -0.013 C 
ATOM     28  C   UNL     1       6.388  -3.165   0.766  0.00  0.00    +0.015 C 
ATOM     29  C   UNL     1       6.624  -1.268  -0.842  0.00  0.00    +0.015 C 
ATOM     30  C   UNL     1       6.974  -0.885   1.602  0.00  0.00    +0.015 C 
ENDBRANCH  24  27
ENDBRANCH  20  21
ENDBRANCH  19  20
ENDBRANCH  17  19
ENDBRANCH   1  17
TORSDOF 9
