REMARK  Name = ZINC13509491
REMARK  6 active torsions:
REMARK  status: ('A' for Active; 'I' for Inactive)
REMARK    1  A    between atoms: C_9  and  S_13
REMARK    2  A    between atoms: C_10  and  C_11
REMARK    3  A    between atoms: S_13  and  C_14
REMARK    4  A    between atoms: C_14  and  C_15
REMARK    5  A    between atoms: N_17  and  C_18
REMARK    6  A    between atoms: C_19  and  C_27
REMARK                            x       y       z     vdW  Elec       q    Type
REMARK                         _______ _______ _______ _____ _____    ______ ____
ROOT
ATOM      1  C   UNL     1       2.078  -4.706  -0.043  0.00  0.00    +0.172 C 
ENDROOT
BRANCH   1   2
ATOM      2  C   UNL     1       2.418  -6.174  -0.055  0.00  0.00    +0.228 C 
ATOM      3  O   UNL     1       1.532  -7.002  -0.052  0.00  0.00    -0.275 OA
ATOM      4  N   UNL     1       3.708  -6.567  -0.068  0.00  0.00    -0.279 N 
ATOM      5  H   UNL     1       4.416  -5.904  -0.070  0.00  0.00    +0.155 HD
BRANCH   4   6
ATOM      6  C   UNL     1       4.021  -7.918  -0.079  0.00  0.00    +0.084 A 
ATOM      7  C   UNL     1       5.275  -8.512  -0.099  0.00  0.00    +0.068 A 
ATOM      8  C   UNL     1       5.330  -9.963  -0.103  0.00  0.00    -0.023 A 
ATOM      9  C   UNL     1       4.131 -10.585  -0.097  0.00  0.00    -0.004 A 
ATOM     10  S   UNL     1       2.942  -9.273  -0.078  0.00  0.00    -0.077 S 
ATOM     11  C   UNL     1       3.878 -12.061  -0.106  0.00  0.00    +0.043 C 
ATOM     12  C   UNL     1       5.180 -12.772  -0.500  0.00  0.00    +0.005 C 
ATOM     13  C   UNL     1       6.330 -12.194   0.331  0.00  0.00    +0.005 C 
ATOM     14  C   UNL     1       6.627 -10.762  -0.119  0.00  0.00    +0.037 C 
BRANCH   7  15
ATOM     15  C   UNL     1       6.499  -7.704  -0.111  0.00  0.00    +0.244 C 
ATOM     16  O   UNL     1       7.021  -7.375   0.938  0.00  0.00    -0.270 OA
ATOM     17  N   UNL     1       7.045  -7.326  -1.284  0.00  0.00    -0.325 N 
ATOM     18  H   UNL     1       6.629  -7.589  -2.119  0.00  0.00    +0.145 HD
ATOM     19  H   UNL     1       7.855  -6.792  -1.292  0.00  0.00    +0.145 HD
ENDBRANCH   7  15
ENDBRANCH   4   6
ENDBRANCH   1   2
BRANCH   1  20
ATOM     20  S   UNL     1       0.279  -4.504  -0.026  0.00  0.00    -0.095 S 
BRANCH  20  29
ATOM     21  C   UNL     1      -1.193  -0.744   0.008  0.00  0.00    +0.031 A 
ATOM     22  C   UNL     1       0.002  -0.004   0.002  0.00  0.00    +0.005 A 
ATOM     23  C   UNL     1      -0.017   1.401   0.010  0.00  0.00    +0.059 A 
ATOM     24  C   UNL     1       1.156   2.101   0.002  0.00  0.00    +0.163 A 
ATOM     25  C   UNL     1       2.387   1.428  -0.009  0.00  0.00    +0.164 A 
ATOM     26  C   UNL     1       2.434   0.051  -0.018  0.00  0.00    +0.077 A 
ATOM     27  C   UNL     1       1.243  -0.691  -0.012  0.00  0.00    +0.076 A 
ATOM     28  N   UNL     1       1.273  -2.030  -0.020  0.00  0.00    -0.239 NA
ATOM     29  C   UNL     1       0.169  -2.746  -0.015  0.00  0.00    +0.115 A 
ATOM     30  C   UNL     1      -1.106  -2.130  -0.001  0.00  0.00    +0.084 A 
ATOM     31  O   UNL     1       3.556   2.126  -0.011  0.00  0.00    -0.485 OA
ATOM     32  C   UNL     1       3.482   3.506  -0.383  0.00  0.00    +0.270 C 
ATOM     33  C   UNL     1       2.311   4.146   0.374  0.00  0.00    +0.270 C 
ATOM     34  O   UNL     1       1.109   3.462   0.003  0.00  0.00    -0.485 OA
BRANCH  30  35
ATOM     35  C   UNL     1      -2.294  -2.929   0.006  0.00  0.00    +0.102 C 
ATOM     36  N   UNL     1      -3.237  -3.563   0.010  0.00  0.00    -0.191 NA
ENDBRANCH  30  35
ENDBRANCH  20  29
ENDBRANCH   1  20
TORSDOF 6
