REMARK  Name = ZINC09349779
REMARK  6 active torsions:
REMARK  status: ('A' for Active; 'I' for Inactive)
REMARK    1  A    between atoms: C_1  and  C_2
REMARK    2  A    between atoms: C_4  and  C_37
REMARK    3  A    between atoms: N_20  and  C_23
REMARK    4  A    between atoms: C_26  and  N_31
REMARK    5  A    between atoms: C_28  and  O_29
REMARK    6  A    between atoms: O_29  and  C_30
REMARK                            x       y       z     vdW  Elec       q    Type
REMARK                         _______ _______ _______ _____ _____    ______ ____
ROOT
ATOM      1  C   UNL     1       6.503   0.283   1.661  0.00  0.00    +0.044 C 
ATOM      2  C   UNL     1       5.682   0.606   0.440  0.00  0.00    -0.050 A 
ATOM      3  C   UNL     1       6.307   0.921  -0.753  0.00  0.00    +0.008 A 
ATOM      4  C   UNL     1       5.560   1.217  -1.874  0.00  0.00    -0.029 A 
ATOM      5  C   UNL     1       4.169   1.201  -1.814  0.00  0.00    +0.039 A 
ATOM      6  C   UNL     1       3.551   0.883  -0.608  0.00  0.00    -0.027 A 
ATOM      7  C   UNL     1       4.300   0.586   0.508  0.00  0.00    +0.008 A 
ATOM      8  C   UNL     1       2.073   0.954  -0.872  0.00  0.00    +0.053 C 
ATOM      9  C   UNL     1       1.387  -0.387  -0.588  0.00  0.00    +0.089 C 
ATOM     10  C   UNL     1       0.002  -0.004   0.002  0.00  0.00    +0.074 C 
ATOM     11  C   UNL     1      -0.019   1.535   0.011  0.00  0.00    -0.054 C 
ATOM     12  C   UNL     1       1.902   1.799   1.385  0.00  0.00    -0.076 C 
ATOM     13  C   UNL     1       0.677   1.840   2.315  0.00  0.00    -0.020 C 
ATOM     14  C   UNL     1      -0.536   2.029   1.379  0.00  0.00    -0.016 C 
ATOM     15  C   UNL     1      -0.972  -0.514  -1.036  0.00  0.00    +0.229 C 
ATOM     16  O   UNL     1      -2.179  -0.420  -0.970  0.00  0.00    -0.275 OA
ATOM     17  N   UNL     1      -0.295  -1.083  -2.039  0.00  0.00    -0.206 N 
ATOM     18  C   UNL     1       1.035  -1.067  -1.891  0.00  0.00    +0.230 C 
ATOM     19  O   UNL     1       1.833  -1.527  -2.680  0.00  0.00    -0.275 OA
ATOM     20  C   UNL     1       1.954   1.335  -2.323  0.00  0.00    +0.212 C 
ATOM     21  O   UNL     1       0.926   1.498  -2.947  0.00  0.00    -0.277 OA
ATOM     22  N   UNL     1       3.209   1.460  -2.795  0.00  0.00    -0.286 N 
ATOM     23  C   UNL     1       6.252   1.560  -3.168  0.00  0.00    +0.045 C 
ATOM     24  H   UNL     1       3.422   1.701  -3.710  0.00  0.00    +0.155 HD
ATOM     25  N   UNL     1       1.386   1.903   0.000  0.00  0.00    +0.395 N 
ATOM     26  H   UNL     1       1.508   2.860  -0.349  0.00  0.00    -0.079 HD
ENDROOT
BRANCH  17  27
ATOM     27  C   UNL     1      -0.927  -1.651  -3.156  0.00  0.00    +0.086 A 
ATOM     28  C   UNL     1      -1.195  -0.873  -4.273  0.00  0.00    +0.030 A 
ATOM     29  C   UNL     1      -1.814  -1.435  -5.374  0.00  0.00    +0.035 A 
ATOM     30  C   UNL     1      -2.176  -2.770  -5.361  0.00  0.00    +0.130 A 
ATOM     31  C   UNL     1      -1.917  -3.550  -4.250  0.00  0.00    +0.080 A 
ATOM     32  C   UNL     1      -1.293  -2.995  -3.144  0.00  0.00    +0.144 A 
BRANCH  30  33
ATOM     33  N   UNL     1      -2.844  -3.365  -6.541  0.00  0.00    +0.057 N 
ATOM     34  O   UNL     1      -3.165  -4.540  -6.531  0.00  0.00    -0.126 OA
ATOM     35  O   UNL     1      -3.073  -2.679  -7.521  0.00  0.00    -0.126 OA
ENDBRANCH  30  33
BRANCH  32  36
ATOM     36  O   UNL     1      -1.038  -3.760  -2.050  0.00  0.00    -0.493 OA
ATOM     37  C   UNL     1      -1.441  -5.130  -2.108  0.00  0.00    +0.277 C 
ENDBRANCH  32  36
ENDBRANCH  17  27
TORSDOF 3
