REMARK  Name = ZINC13339412
REMARK  5 active torsions:
REMARK  status: ('A' for Active; 'I' for Inactive)
REMARK    1  A    between atoms: C_1  and  C_2
REMARK    2  A    between atoms: N_4  and  C_5
REMARK    3  A    between atoms: C_8  and  C_11
REMARK    4  A    between atoms: C_24  and  C_25
REMARK    5  A    between atoms: C_27  and  N_48
REMARK                            x       y       z     vdW  Elec       q    Type
REMARK                         _______ _______ _______ _____ _____    ______ ____
ROOT
ATOM      1  C   UNL     1       2.641   4.292  -0.050  0.00  0.00    +0.011 C 
ATOM      2  C   UNL     1       2.655   5.634  -0.140  0.00  0.00    -0.038 C 
ATOM      3  C   UNL     1       1.372   6.441  -0.139  0.00  0.00    -0.041 C 
ATOM      4  C   UNL     1       2.551   8.447  -0.815  0.00  0.00    -0.040 C 
ATOM      5  C   UNL     1       3.866   7.755  -0.587  0.00  0.00    -0.024 A 
ATOM      6  C   UNL     1       3.924   6.389  -0.251  0.00  0.00    +0.068 A 
ATOM      7  N   UNL     1       5.068   5.767  -0.034  0.00  0.00    -0.247 NA
ATOM      8  C   UNL     1       6.246   6.386  -0.121  0.00  0.00    +0.072 A 
ATOM      9  C   UNL     1       7.449   5.696   0.119  0.00  0.00    +0.028 A 
ATOM     10  C   UNL     1       8.636   6.354   0.019  0.00  0.00    +0.002 A 
ATOM     11  C   UNL     1       8.683   7.704  -0.318  0.00  0.00    +0.001 A 
ATOM     12  C   UNL     1       7.538   8.405  -0.557  0.00  0.00    +0.011 A 
ATOM     13  C   UNL     1       6.301   7.761  -0.462  0.00  0.00    +0.015 A 
ATOM     14  C   UNL     1       5.046   8.475  -0.705  0.00  0.00    +0.076 A 
ATOM     15  C   UNL     1       0.217   8.169  -1.381  0.00  0.00    -0.095 C 
ATOM     16  N   UNL     1       1.506   7.474  -1.188  0.00  0.00    +0.383 N 
ATOM     17  H   UNL     1       1.775   7.020  -2.069  0.00  0.00    -0.081 HD
ENDROOT
BRANCH   1  21
ATOM     18  C   UNL     1      -0.995   2.261   0.768  0.00  0.00    +0.033 A 
ATOM     19  C   UNL     1      -0.078   1.711  -0.122  0.00  0.00    +0.024 A 
ATOM     20  C   UNL     1       1.102   2.368  -0.392  0.00  0.00    +0.010 A 
ATOM     21  C   UNL     1       1.381   3.587   0.235  0.00  0.00    -0.025 A 
ATOM     22  C   UNL     1       0.459   4.133   1.134  0.00  0.00    +0.010 A 
ATOM     23  C   UNL     1      -0.719   3.470   1.398  0.00  0.00    +0.024 A 
BRANCH  18  27
ATOM     24  C   UNL     1      -4.634   1.580   1.433  0.00  0.00    +0.109 C 
ATOM     25  C   UNL     1      -3.322   2.298   1.249  0.00  0.00    +0.214 C 
ATOM     26  O   UNL     1      -3.282   3.510   1.295  0.00  0.00    -0.276 OA
ATOM     27  N   UNL     1      -2.193   1.595   1.034  0.00  0.00    -0.286 N 
ATOM     28  H   UNL     1      -2.212   0.625   1.063  0.00  0.00    +0.155 HD
ENDBRANCH  18  27
ENDBRANCH   1  21
BRANCH  14  29
ATOM     29  C   UNL     1       5.037   9.909  -1.063  0.00  0.00    +0.387 C 
ATOM     30  O   UNL     1       5.086  10.244  -2.230  0.00  0.00    -0.241 OA
ATOM     31  O   UNL     1       4.974  10.844  -0.096  0.00  0.00    -0.241 OA
ENDBRANCH  14  29
TORSDOF 3
