REMARK  Name = ZINC04029359
REMARK  7 active torsions:
REMARK  status: ('A' for Active; 'I' for Inactive)
REMARK    1  A    between atoms: C_1  and  C_2
REMARK    2  A    between atoms: C_5  and  N_9
REMARK    3  A    between atoms: C_10  and  C_12
REMARK    4  A    between atoms: C_24  and  C_26
REMARK    5  A    between atoms: C_24  and  C_27
REMARK    6  A    between atoms: C_29  and  C_31
REMARK    7  A    between atoms: C_29  and  C_32
REMARK                            x       y       z     vdW  Elec       q    Type
REMARK                         _______ _______ _______ _____ _____    ______ ____
ROOT
ATOM      1  C   UNL     1      -4.923   3.881  -0.148  0.00  0.00    +0.238 C 
ATOM      2  C   UNL     1      -5.128   4.625   1.138  0.00  0.00    +0.191 C 
ATOM      3  C   UNL     1      -6.108   4.037   2.126  0.00  0.00    +0.187 C 
ATOM      4  C   UNL     1      -7.032   2.973   1.638  0.00  0.00    +0.209 C 
ATOM      5  C   UNL     1      -6.505   2.131   0.476  0.00  0.00    +0.286 C 
ATOM      6  O   UNL     1      -5.909   2.965  -0.520  0.00  0.00    -0.333 OA
ATOM      7  O   UNL     1      -7.717   1.587  -0.104  0.00  0.00    -0.318 OA
ATOM      8  C   UNL     1      -8.796   2.444   0.292  0.00  0.00    +0.168 C 
ATOM      9  O   UNL     1      -8.291   3.469   1.163  0.00  0.00    -0.338 OA
ATOM     10  C   UNL     1      -9.855   1.623   1.030  0.00  0.00    +0.074 C 
ATOM     11  C   UNL     1      -9.420   3.087  -0.948  0.00  0.00    +0.074 C 
ATOM     12  O   UNL     1      -5.348   3.583   3.234  0.00  0.00    -0.341 OA
ATOM     13  C   UNL     1      -4.144   4.366   3.215  0.00  0.00    +0.166 C 
ATOM     14  O   UNL     1      -3.885   4.742   1.856  0.00  0.00    -0.340 OA
ATOM     15  C   UNL     1      -2.978   3.536   3.755  0.00  0.00    +0.074 C 
ATOM     16  C   UNL     1      -4.328   5.620   4.073  0.00  0.00    +0.074 C 
ENDROOT
BRANCH   1  18
ATOM     17  N   UNL     1      -2.457   3.822   0.044  0.00  0.00    -0.283 N 
ATOM     18  C   UNL     1      -3.615   3.138  -0.050  0.00  0.00    +0.249 C 
ATOM     19  O   UNL     1      -3.604   1.926  -0.056  0.00  0.00    -0.273 OA
ATOM     20  H   UNL     1      -2.470   4.789   0.125  0.00  0.00    +0.155 HD
BRANCH  17  25
ATOM     21  C   UNL     1       2.491   1.048  -0.036  0.00  0.00    +0.045 C 
ATOM     22  C   UNL     1       1.177   1.784  -0.014  0.00  0.00    -0.032 A 
ATOM     23  C   UNL     1       0.106   1.307  -0.747  0.00  0.00    +0.006 A 
ATOM     24  C   UNL     1      -1.099   1.983  -0.733  0.00  0.00    +0.023 A 
ATOM     25  C   UNL     1      -1.237   3.138   0.025  0.00  0.00    +0.035 A 
ATOM     26  C   UNL     1      -0.160   3.616   0.760  0.00  0.00    +0.043 A 
ATOM     27  C   UNL     1       1.044   2.938   0.739  0.00  0.00    +0.046 A 
ATOM     28 CL   UNL     1       2.392   3.535   1.656  0.00  0.00    -0.083 Cl
ENDBRANCH  17  25
ENDBRANCH   1  18
TORSDOF 2
