REMARK  Name = ZINC40923813
REMARK  6 active torsions:
REMARK  status: ('A' for Active; 'I' for Inactive)
REMARK    1  A    between atoms: C_1  and  C_2
REMARK    2  A    between atoms: C_3  and  C_28
REMARK    3  A    between atoms: C_4  and  C_12
REMARK    4  A    between atoms: C_17  and  O_18
REMARK    5  A    between atoms: O_18  and  C_19
REMARK    6  A    between atoms: C_19  and  C_20
REMARK                            x       y       z     vdW  Elec       q    Type
REMARK                         _______ _______ _______ _____ _____    ______ ____
ROOT
ATOM      1  C   UNL     1      -0.018   1.503   0.010  0.00  0.00    +0.061 C 
ATOM      2  C   UNL     1       0.002  -0.004   0.002  0.00  0.00    +0.018 C 
ATOM      3  C   UNL     1      -1.163  -0.667   0.004  0.00  0.00    +0.060 C 
ATOM      4  C   UNL     1      -1.255  -2.170  -0.015  0.00  0.00    +0.182 C 
ATOM      5  N   UNL     1       0.061  -2.739   0.250  0.00  0.00    -0.201 N 
ATOM      6  C   UNL     1       1.211  -2.015   0.245  0.00  0.00    +0.240 A 
ATOM      7  N   UNL     1       2.186  -2.836   0.511  0.00  0.00    -0.092 NA
ATOM      8  N   UNL     1       1.730  -4.029   0.689  0.00  0.00    -0.021 NA
ATOM      9  N   UNL     1       0.444  -4.045   0.547  0.00  0.00    -0.042 NA
ATOM     10  N   UNL     1       1.214  -0.651  -0.013  0.00  0.00    -0.286 N 
ATOM     11  H   UNL     1       2.039  -0.172  -0.193  0.00  0.00    +0.155 HD
ENDROOT
BRANCH   4  12
ATOM     12  C   UNL     1      -1.737  -2.627  -1.368  0.00  0.00    +0.024 A 
ATOM     13  C   UNL     1      -1.004  -2.328  -2.500  0.00  0.00    +0.025 A 
ATOM     14  C   UNL     1      -1.446  -2.747  -3.742  0.00  0.00    +0.018 A 
ATOM     15  C   UNL     1      -2.622  -3.467  -3.853  0.00  0.00    +0.019 A 
ATOM     16  C   UNL     1      -3.358  -3.768  -2.724  0.00  0.00    +0.047 A 
ATOM     17  C   UNL     1      -2.914  -3.353  -1.476  0.00  0.00    +0.127 A 
ATOM     18 BR   UNL     1      -0.441  -2.336  -5.290  0.00  0.00    -0.050 Br
BRANCH  17  19
ATOM     19  O   UNL     1      -3.634  -3.653  -0.363  0.00  0.00    -0.487 OA
BRANCH  19  20
ATOM     20  C   UNL     1      -4.835  -4.403  -0.550  0.00  0.00    +0.266 C 
BRANCH  20  21
ATOM     21  C   UNL     1      -5.494  -4.638   0.785  0.00  0.00    +0.008 A 
ATOM     22  C   UNL     1      -4.916  -4.140   1.938  0.00  0.00    +0.008 A 
ATOM     23  C   UNL     1      -5.519  -4.356   3.162  0.00  0.00    +0.000 A 
ATOM     24  C   UNL     1      -6.702  -5.070   3.235  0.00  0.00    +0.001 A 
ATOM     25  C   UNL     1      -7.280  -5.568   2.083  0.00  0.00    +0.020 A 
ATOM     26  C   UNL     1      -6.679  -5.348   0.856  0.00  0.00    +0.047 A 
ATOM     27 CL   UNL     1      -7.409  -5.968  -0.592  0.00  0.00    -0.083 Cl
ENDBRANCH  20  21
ENDBRANCH  19  20
ENDBRANCH  17  19
ENDBRANCH   4  12
BRANCH   3  28
ATOM     28  C   UNL     1      -2.364   0.081   0.026  0.00  0.00    +0.241 C 
ATOM     29  O   UNL     1      -2.323   1.298   0.042  0.00  0.00    -0.271 OA
ATOM     30  N   UNL     1      -3.554  -0.553   0.029  0.00  0.00    -0.325 N 
ATOM     31  H   UNL     1      -3.586  -1.522   0.016  0.00  0.00    +0.145 HD
ATOM     32  H   UNL     1      -4.377  -0.040   0.043  0.00  0.00    +0.145 HD
ENDBRANCH   3  28
TORSDOF 5
