REMARK  Name = ZINC64188123
REMARK  10 active torsions:
REMARK  status: ('A' for Active; 'I' for Inactive)
REMARK    1  A    between atoms: C_1  and  C_2
REMARK    2  A    between atoms: C_4  and  C_12
REMARK    3  A    between atoms: C_12  and  C_14
REMARK    4  A    between atoms: C_14  and  C_16
REMARK    5  A    between atoms: C_14  and  S_17
REMARK    6  A    between atoms: S_17  and  C_18
REMARK    7  A    between atoms: C_22  and  C_27
REMARK    8  A    between atoms: N_23  and  C_24
REMARK    9  A    between atoms: C_27  and  C_28
REMARK   10  A    between atoms: C_28  and  C_29
REMARK                            x       y       z     vdW  Elec       q    Type
REMARK                         _______ _______ _______ _____ _____    ______ ____
ROOT
ATOM      1  S   UNL     1      -4.843  -0.262  -1.669  0.00  0.00    -0.107 S 
ENDROOT
BRANCH   1   2
ATOM      2  C   UNL     1      -6.448  -1.108  -1.668  0.00  0.00    +0.237 C 
ATOM      3  N   UNL     1      -6.982  -1.201  -0.298  0.00  0.00    -0.238 N 
ATOM      4  N   UNL     1      -7.096  -2.569  -0.018  0.00  0.00    -0.174 NA
ATOM      5  C   UNL     1      -6.713  -3.287  -1.009  0.00  0.00    +0.118 C 
ATOM      6  N   UNL     1      -6.293  -2.512  -2.084  0.00  0.00    -0.286 N 
ATOM      7  H   UNL     1      -7.209  -0.465   0.291  0.00  0.00    +0.171 HD
BRANCH   6   8
ATOM      8  C   UNL     1      -5.793  -2.994  -3.374  0.00  0.00    +0.077 C 
ATOM      9  C   UNL     1      -5.220  -1.957  -4.341  0.00  0.00    +0.024 C 
ATOM     10  C   UNL     1      -6.578  -2.600  -4.627  0.00  0.00    +0.024 C 
ENDBRANCH   6   8
BRANCH   5  11
ATOM     11  C   UNL     1      -6.717  -4.794  -1.009  0.00  0.00    +0.082 C 
BRANCH  11  12
ATOM     12  C   UNL     1      -7.361  -5.302   0.283  0.00  0.00    +0.103 C 
BRANCH  12  13
ATOM     13  C   UNL     1      -7.366  -6.809   0.283  0.00  0.00    +0.211 C 
ATOM     14  O   UNL     1      -6.900  -7.417  -0.657  0.00  0.00    -0.276 OA
ATOM     15  N   UNL     1      -7.887  -7.481   1.329  0.00  0.00    -0.329 N 
ATOM     16  H   UNL     1      -8.260  -6.995   2.081  0.00  0.00    +0.145 HD
ATOM     17  H   UNL     1      -7.890  -8.451   1.329  0.00  0.00    +0.145 HD
ENDBRANCH  12  13
ENDBRANCH  11  12
ENDBRANCH   5  11
ENDBRANCH   1   2
BRANCH   1  18
ATOM     18  C   UNL     1      -3.914  -1.081  -0.344  0.00  0.00    +0.117 C 
ATOM     19  C   UNL     1      -3.498  -2.480  -0.802  0.00  0.00    +0.027 C 
BRANCH  18  20
ATOM     20  C   UNL     1      -2.684  -0.273  -0.019  0.00  0.00    +0.174 C 
ATOM     21  O   UNL     1      -2.207   0.469  -0.854  0.00  0.00    -0.291 OA
BRANCH  20  24
ATOM     22  C   UNL     1      -1.322   1.924   1.836  0.00  0.00    +0.035 C 
ATOM     23  C   UNL     1      -0.938   0.444   1.798  0.00  0.00    +0.111 C 
ATOM     24  C   UNL     1      -2.087  -0.378   1.255  0.00  0.00    +0.027 C 
ATOM     25  C   UNL     1      -2.428  -1.255   2.269  0.00  0.00    +0.006 A 
ATOM     26  C   UNL     1      -3.412  -2.266   2.376  0.00  0.00    +0.010 A 
ATOM     27  C   UNL     1      -3.527  -2.987   3.514  0.00  0.00    +0.001 A 
ATOM     28  C   UNL     1      -2.695  -2.778   4.626  0.00  0.00    +0.002 A 
ATOM     29  C   UNL     1      -1.725  -1.838   4.626  0.00  0.00    +0.026 A 
ATOM     30  C   UNL     1      -1.533  -1.008   3.426  0.00  0.00    +0.043 A 
ATOM     31  N   UNL     1      -0.692  -0.049   3.157  0.00  0.00    -0.377 N 
ATOM     32  H   UNL     1      -0.010   0.287   3.760  0.00  0.00    +0.160 HD
ENDBRANCH  20  24
ENDBRANCH  18  20
ENDBRANCH   1  18
TORSDOF 8
