REMARK  Name = ZINC02743265
REMARK  1 active torsions:
REMARK  status: ('A' for Active; 'I' for Inactive)
REMARK    1  A    between atoms: C_6  and  N_7
REMARK                            x       y       z     vdW  Elec       q    Type
REMARK                         _______ _______ _______ _____ _____    ______ ____
ROOT
ATOM      1  N   UNL     1       2.724   4.149  -0.001  0.00  0.00    -0.266 N 
ATOM      2  C   UNL     1       1.382   4.280   0.010  0.00  0.00    +0.339 C 
ATOM      3  O   UNL     1       0.880   5.387   0.013  0.00  0.00    -0.247 OA
ATOM      4  N   UNL     1       0.598   3.184   0.019  0.00  0.00    -0.190 N 
ATOM      5  C   UNL     1      -0.765   3.172   0.032  0.00  0.00    +0.134 A 
ATOM      6  C   UNL     1      -1.161   1.880   0.032  0.00  0.00    +0.056 A 
ATOM      7  C   UNL     1      -0.012   1.075   0.029  0.00  0.00    +0.150 A 
ATOM      8  N   UNL     1       1.037   1.854   0.018  0.00  0.00    -0.170 NA
ATOM      9 BR   UNL     1      -2.949   1.265   0.039  0.00  0.00    -0.047 Br
ATOM     10  H   UNL     1       3.125   3.268   0.064  0.00  0.00    +0.157 HD
ENDROOT
BRANCH   1  16
ATOM     11  C   UNL     1       4.732   5.217  -0.811  0.00  0.00    +0.025 A 
ATOM     12  C   UNL     1       5.531   6.339  -0.920  0.00  0.00    +0.023 A 
ATOM     13  C   UNL     1       5.147   7.525  -0.320  0.00  0.00    +0.059 A 
ATOM     14  C   UNL     1       3.958   7.592   0.387  0.00  0.00    +0.061 A 
ATOM     15  C   UNL     1       3.152   6.474   0.494  0.00  0.00    +0.044 A 
ATOM     16  C   UNL     1       3.537   5.283  -0.108  0.00  0.00    +0.036 A 
ATOM     17 CL   UNL     1       3.478   9.081   1.139  0.00  0.00    -0.082 Cl
ATOM     18 CL   UNL     1       6.156   8.931  -0.454  0.00  0.00    -0.082 Cl
ENDBRANCH   1  16
TORSDOF 1
