REMARK  Name = ZINC49677563
REMARK  3 active torsions:
REMARK  status: ('A' for Active; 'I' for Inactive)
REMARK    1  A    between atoms: C_1  and  C_2
REMARK    2  A    between atoms: C_4  and  N_9
REMARK    3  A    between atoms: C_10  and  C_12
REMARK                            x       y       z     vdW  Elec       q    Type
REMARK                         _______ _______ _______ _____ _____    ______ ____
ROOT
ATOM      1  N   UNL     1       0.028  -2.771  -2.419  0.00  0.00    -0.281 N 
ATOM      2  C   UNL     1       0.148  -4.113  -2.427  0.00  0.00    +0.248 C 
ATOM      3  O   UNL     1       0.162  -4.728  -1.379  0.00  0.00    -0.270 OA
ATOM      4  H   UNL     1      -0.060  -2.287  -3.255  0.00  0.00    +0.155 HD
ENDROOT
BRANCH   2   5
ATOM      5  C   UNL     1       0.262  -4.837  -3.710  0.00  0.00    +0.039 A 
ATOM      6  C   UNL     1       0.252  -4.126  -4.917  0.00  0.00    +0.017 A 
ATOM      7  C   UNL     1       0.357  -4.785  -6.108  0.00  0.00    +0.049 A 
ATOM      8  C   UNL     1       0.476  -6.168  -6.134  0.00  0.00    +0.155 A 
ATOM      9  C   UNL     1       0.488  -6.896  -4.932  0.00  0.00    +0.110 A 
ATOM     10  C   UNL     1       0.386  -6.223  -3.717  0.00  0.00    +0.044 A 
ATOM     11  N   UNL     1       0.613  -8.207  -5.275  0.00  0.00    -0.216 NA
ATOM     12  C   UNL     1       0.674  -8.297  -6.569  0.00  0.00    +0.309 A 
ATOM     13  O   UNL     1       0.593  -7.078  -7.125  0.00  0.00    -0.442 OA
ENDBRANCH   2   5
BRANCH   1  17
ATOM     14  C   UNL     1       1.621  -2.350   2.212  0.00  0.00    +0.045 C 
ATOM     15  C   UNL     1       0.794  -1.849   1.056  0.00  0.00    -0.035 A 
ATOM     16  C   UNL     1       0.793  -2.538  -0.141  0.00  0.00    +0.027 A 
ATOM     17  C   UNL     1       0.031  -2.075  -1.206  0.00  0.00    +0.034 A 
ATOM     18  C   UNL     1      -0.729  -0.921  -1.063  0.00  0.00    +0.024 A 
ATOM     19  C   UNL     1      -0.724  -0.237   0.136  0.00  0.00    +0.017 A 
ATOM     20  C   UNL     1       0.032  -0.703   1.197  0.00  0.00    +0.021 A 
ATOM     21 BR   UNL     1       0.030   0.233   2.841  0.00  0.00    -0.050 Br
ENDBRANCH   1  17
TORSDOF 2
