REMARK  Name = ZINC20086271
REMARK  9 active torsions:
REMARK  status: ('A' for Active; 'I' for Inactive)
REMARK    1  A    between atoms: C_1  and  C_2
REMARK    2  A    between atoms: C_2  and  O_4
REMARK    3  A    between atoms: O_4  and  C_5
REMARK    4  A    between atoms: C_6  and  O_32
REMARK    5  A    between atoms: C_8  and  C_12
REMARK    6  A    between atoms: N_22  and  C_25
REMARK    7  A    between atoms: C_27  and  N_31
REMARK    8  A    between atoms: C_28  and  C_29
REMARK    9  A    between atoms: O_32  and  C_33
REMARK                            x       y       z     vdW  Elec       q    Type
REMARK                         _______ _______ _______ _____ _____    ______ ____
ROOT
ATOM      1  C   UNL     1      -5.005   3.818   0.078  0.00  0.00    +0.103 C 
ATOM      2  C   UNL     1      -3.661   3.138   0.057  0.00  0.00    +0.072 A 
ATOM      3  C   UNL     1      -2.513   3.873   0.049  0.00  0.00    +0.148 A 
ATOM      4  C   UNL     1      -1.226   3.163   0.031  0.00  0.00    +0.041 A 
ATOM      5  C   UNL     1      -0.016   3.862   0.023  0.00  0.00    +0.013 A 
ATOM      6  C   UNL     1       1.164   3.172   0.007  0.00  0.00    +0.001 A 
ATOM      7  C   UNL     1       1.170   1.784   0.001  0.00  0.00    +0.002 A 
ATOM      8  C   UNL     1      -0.013   1.076   0.008  0.00  0.00    +0.026 A 
ATOM      9  C   UNL     1      -1.225   1.758   0.017  0.00  0.00    +0.055 A 
ATOM     10  N   UNL     1      -2.424   1.076   0.029  0.00  0.00    -0.311 N 
ATOM     11  C   UNL     1      -3.596   1.733   0.045  0.00  0.00    +0.259 A 
ATOM     12  O   UNL     1      -4.634   1.092   0.050  0.00  0.00    -0.267 OA
ATOM     13  C   UNL     1      -2.420  -0.389   0.019  0.00  0.00    +0.152 C 
ATOM     14  O   UNL     1      -2.539   5.220   0.059  0.00  0.00    -0.440 OA
ATOM     15  C   UNL     1      -3.656   5.874  -0.306  0.00  0.00    +0.199 C 
ATOM     16  C   UNL     1      -4.864   5.261  -0.319  0.00  0.00    +0.098 C 
ENDROOT
BRANCH   1  20
ATOM     17  C   UNL     1      -6.636   3.600   4.026  0.00  0.00    +0.187 A 
ATOM     18  C   UNL     1      -7.322   3.030   2.957  0.00  0.00    +0.164 A 
ATOM     19  C   UNL     1      -6.792   3.107   1.679  0.00  0.00    +0.054 A 
ATOM     20  C   UNL     1      -5.581   3.740   1.469  0.00  0.00    -0.030 A 
ATOM     21  C   UNL     1      -4.900   4.306   2.530  0.00  0.00    +0.023 A 
ATOM     22  C   UNL     1      -5.425   4.237   3.808  0.00  0.00    +0.064 A 
ATOM     23 BR   UNL     1      -4.490   5.013   5.258  0.00  0.00    -0.046 Br
BRANCH  18  24
ATOM     24  O   UNL     1      -8.511   2.404   3.165  0.00  0.00    -0.491 OA
ATOM     25  C   UNL     1      -9.157   1.843   2.022  0.00  0.00    +0.277 C 
ENDBRANCH  18  24
BRANCH  17  26
ATOM     26  O   UNL     1      -7.154   3.531   5.282  0.00  0.00    -0.421 OA
BRANCH  26  28
ATOM     27  C   UNL     1      -8.573   4.525   7.041  0.00  0.00    +0.136 C 
ATOM     28  C   UNL     1      -7.962   4.533   5.664  0.00  0.00    +0.309 C 
ATOM     29  O   UNL     1      -8.200   5.441   4.903  0.00  0.00    -0.251 OA
ENDBRANCH  26  28
ENDBRANCH  17  26
ENDBRANCH   1  20
BRANCH  15  30
ATOM     30  N   UNL     1      -3.571   7.193  -0.675  0.00  0.00    -0.328 N 
ATOM     31  H   UNL     1      -4.476   7.740  -0.977  0.00  0.00    +0.145 HD
ATOM     32  H   UNL     1      -2.596   7.704  -0.670  0.00  0.00    +0.145 HD
ENDBRANCH  15  30
BRANCH  16  33
ATOM     33  C   UNL     1      -6.025   5.999  -0.716  0.00  0.00    +0.101 C 
ATOM     34  N   UNL     1      -6.947   6.584  -1.031  0.00  0.00    -0.191 NA
ENDBRANCH  16  33
TORSDOF 6
