REMARK  Name = ZINC39737970
REMARK  4 active torsions:
REMARK  status: ('A' for Active; 'I' for Inactive)
REMARK    1  A    between atoms: C_1  and  C_2
REMARK    2  A    between atoms: C_17  and  C_25
REMARK    3  A    between atoms: C_22  and  C_23
REMARK    4  A    between atoms: C_22  and  O_24
REMARK                            x       y       z     vdW  Elec       q    Type
REMARK                         _______ _______ _______ _____ _____    ______ ____
ROOT
ATOM      1  C   UNL     1       0.218   0.951   0.506  0.00  0.00    +0.012 C 
ATOM      2  C   UNL     1       0.201  -0.561   0.274  0.00  0.00    -0.026 C 
ATOM      3  C   UNL     1      -1.246  -1.060   0.270  0.00  0.00    +0.012 C 
ATOM      4  C   UNL     1      -1.900  -0.738   1.615  0.00  0.00    +0.065 C 
ATOM      5  C   UNL     1      -1.123  -1.423   2.739  0.00  0.00    +0.170 C 
ATOM      6  C   UNL     1       0.327  -0.936   2.741  0.00  0.00    +0.069 C 
ATOM      7  C   UNL     1       0.977  -1.259   1.394  0.00  0.00    +0.000 C 
ATOM      8  C   UNL     1       0.957  -2.771   1.164  0.00  0.00    +0.004 C 
ATOM      9  C   UNL     1       1.602  -3.092  -0.186  0.00  0.00    +0.004 C 
ATOM     10  C   UNL     1       0.820  -2.398  -1.302  0.00  0.00    -0.004 C 
ATOM     11  C   UNL     1       0.854  -0.879  -1.072  0.00  0.00    -0.001 C 
ATOM     12  C   UNL     1       0.136  -0.129  -2.188  0.00  0.00    +0.005 C 
ATOM     13  C   UNL     1       0.703  -0.500  -3.569  0.00  0.00    +0.010 C 
ATOM     14  C   UNL     1       0.566  -2.002  -3.724  0.00  0.00    -0.000 C 
ATOM     15  C   UNL     1       1.454  -2.684  -2.650  0.00  0.00    +0.001 C 
ATOM     16  C   UNL     1       1.442  -4.150  -3.098  0.00  0.00    +0.007 C 
ATOM     17  C   UNL     1       1.578  -4.042  -4.641  0.00  0.00    +0.035 C 
ATOM     18  C   UNL     1       1.083  -2.602  -5.029  0.00  0.00    +0.069 C 
ATOM     19  C   UNL     1       2.207  -1.736  -5.601  0.00  0.00    +0.042 C 
ATOM     20  C   UNL     1      -0.891  -2.415  -3.506  0.00  0.00    +0.014 C 
ATOM     21  O   UNL     1      -1.733  -1.108   4.002  0.00  0.00    -0.346 OA
ATOM     22  C   UNL     1      -2.611  -2.225   4.279  0.00  0.00    +0.191 C 
ATOM     23  C   UNL     1      -1.798  -3.414   3.709  0.00  0.00    +0.191 C 
ATOM     24  O   UNL     1      -1.153  -2.843   2.552  0.00  0.00    -0.346 OA
ENDROOT
BRANCH  18  25
ATOM     25  O   UNL     1       0.018  -2.721  -5.974  0.00  0.00    -0.388 OA
ATOM     26  H   UNL     1       0.287  -3.097  -6.824  0.00  0.00    +0.210 HD
ENDBRANCH  18  25
TORSDOF 1
