REMARK  Name = ZINC46556833
REMARK  9 active torsions:
REMARK  status: ('A' for Active; 'I' for Inactive)
REMARK    1  A    between atoms: C_1  and  N_2
REMARK    2  A    between atoms: N_2  and  C_3
REMARK    3  A    between atoms: N_2  and  C_18
REMARK    4  A    between atoms: C_3  and  C_4
REMARK    5  A    between atoms: N_6  and  C_7
REMARK    6  A    between atoms: C_11  and  C_13
REMARK    7  A    between atoms: C_18  and  C_19
REMARK    8  A    between atoms: N_24  and  C_25
REMARK    9  A    between atoms: C_28  and  C_31
REMARK                            x       y       z     vdW  Elec       q    Type
REMARK                         _______ _______ _______ _____ _____    ______ ____
ROOT
ATOM      1  C   UNL     1       0.209   0.843  -0.164  0.00  0.00    -0.095 C 
ATOM      2  N   UNL     1       0.257  -0.613   0.030  0.00  0.00    +0.389 N 
ATOM      3  H   UNL     1       0.766  -1.037  -0.731  0.00  0.00    -0.081 HD
ENDROOT
BRANCH   2   4
ATOM      4  C   UNL     1      -1.111  -1.148   0.063  0.00  0.00    +0.019 C 
BRANCH   4   5
ATOM      5  C   UNL     1      -1.761  -0.947  -1.281  0.00  0.00    +0.201 C 
ATOM      6  O   UNL     1      -1.146  -0.410  -2.178  0.00  0.00    -0.278 OA
ATOM      7  N   UNL     1      -3.027  -1.363  -1.486  0.00  0.00    -0.287 N 
ATOM      8  H   UNL     1      -3.495  -1.852  -0.792  0.00  0.00    +0.155 HD
BRANCH   7   9
ATOM      9  C   UNL     1      -3.665  -1.089  -2.702  0.00  0.00    +0.034 A 
ATOM     10  C   UNL     1      -2.939  -1.099  -3.886  0.00  0.00    +0.025 A 
ATOM     11  C   UNL     1      -3.571  -0.829  -5.083  0.00  0.00    +0.022 A 
ATOM     12  C   UNL     1      -4.927  -0.548  -5.104  0.00  0.00    +0.053 A 
ATOM     13  C   UNL     1      -5.652  -0.538  -3.926  0.00  0.00    +0.075 A 
ATOM     14  C   UNL     1      -5.026  -0.814  -2.726  0.00  0.00    +0.037 A 
ATOM     15 CL   UNL     1      -5.718  -0.208  -6.612  0.00  0.00    -0.083 Cl
BRANCH  13  16
ATOM     16  C   UNL     1      -7.127  -0.233  -3.953  0.00  0.00    +0.419 C 
ATOM     17  F   UNL     1      -7.637  -0.282  -2.651  0.00  0.00    -0.166 F 
ATOM     18  F   UNL     1      -7.329   1.045  -4.485  0.00  0.00    -0.166 F 
ATOM     19  F   UNL     1      -7.785  -1.178  -4.747  0.00  0.00    -0.166 F 
ENDBRANCH  13  16
ENDBRANCH   7   9
ENDBRANCH   4   5
ENDBRANCH   2   4
BRANCH   2  20
ATOM     20  C   UNL     1       0.932  -0.915   1.299  0.00  0.00    +0.019 C 
BRANCH  20  21
ATOM     21  C   UNL     1       2.371  -0.476   1.220  0.00  0.00    +0.204 C 
ATOM     22  O   UNL     1       2.793   0.039   0.206  0.00  0.00    -0.277 OA
ATOM     23  N   UNL     1       3.190  -0.654   2.276  0.00  0.00    -0.241 N 
ATOM     24  C   UNL     1       4.477  -0.261   2.205  0.00  0.00    +0.310 C 
ATOM     25  O   UNL     1       4.900   0.255   1.189  0.00  0.00    -0.252 OA
ATOM     26  N   UNL     1       5.295  -0.440   3.261  0.00  0.00    -0.269 N 
ATOM     27  H   UNL     1       2.852  -1.066   3.087  0.00  0.00    +0.159 HD
ATOM     28  H   UNL     1       4.979  -0.918   4.044  0.00  0.00    +0.156 HD
BRANCH  26  29
ATOM     29  C   UNL     1       6.596   0.063   3.228  0.00  0.00    +0.035 A 
ATOM     30  C   UNL     1       6.865   1.250   2.555  0.00  0.00    +0.024 A 
ATOM     31  C   UNL     1       8.148   1.749   2.520  0.00  0.00    +0.020 A 
ATOM     32  C   UNL     1       9.181   1.061   3.162  0.00  0.00    +0.052 A 
ATOM     33  C   UNL     1       8.908  -0.132   3.838  0.00  0.00    +0.020 A 
ATOM     34  C   UNL     1       7.621  -0.622   3.873  0.00  0.00    +0.024 A 
BRANCH  32  35
ATOM     35  C   UNL     1      10.517   1.576   3.128  0.00  0.00    +0.099 C 
ATOM     36  N   UNL     1      11.576   1.985   3.100  0.00  0.00    -0.191 NA
ENDBRANCH  32  35
ENDBRANCH  26  29
ENDBRANCH  20  21
ENDBRANCH   2  20
TORSDOF 8
