REMARK  Name = ZINC50360665
REMARK  6 active torsions:
REMARK  status: ('A' for Active; 'I' for Inactive)
REMARK    1  A    between atoms: C_1  and  C_2
REMARK    2  A    between atoms: C_2  and  C_4
REMARK    3  A    between atoms: C_2  and  N_14
REMARK    4  A    between atoms: C_7  and  N_10
REMARK    5  A    between atoms: N_14  and  C_15
REMARK    6  A    between atoms: C_15  and  C_16
REMARK                            x       y       z     vdW  Elec       q    Type
REMARK                         _______ _______ _______ _____ _____    ______ ____
ROOT
ATOM      1  C   UNL     1       0.169   1.493  -0.121  0.00  0.00    -0.009 C 
ATOM      2  C   UNL     1       0.012  -0.025  -0.012  0.00  0.00    -0.043 C 
ENDROOT
BRANCH   2   3
ATOM      3  C   UNL     1       0.738  -0.518   1.212  0.00  0.00    -0.062 A 
ATOM      4  C   UNL     1       2.110  -0.692   1.178  0.00  0.00    +0.004 A 
ATOM      5  C   UNL     1       2.778  -1.144   2.299  0.00  0.00    +0.023 A 
ATOM      6  C   UNL     1       2.072  -1.425   3.461  0.00  0.00    +0.035 A 
ATOM      7  C   UNL     1       0.694  -1.250   3.492  0.00  0.00    +0.023 A 
ATOM      8  C   UNL     1       0.032  -0.792   2.370  0.00  0.00    +0.004 A 
BRANCH   6   9
ATOM      9  N   UNL     1       2.746  -1.884   4.598  0.00  0.00    -0.270 N 
ATOM     10  C   UNL     1       3.998  -1.458   4.857  0.00  0.00    +0.301 C 
ATOM     11  O   UNL     1       4.506  -0.603   4.157  0.00  0.00    -0.253 OA
ATOM     12  N   UNL     1       4.688  -1.980   5.891  0.00  0.00    -0.313 N 
ATOM     13  H   UNL     1       2.312  -2.509   5.200  0.00  0.00    +0.156 HD
ATOM     14  H   UNL     1       4.282  -2.662   6.449  0.00  0.00    +0.146 HD
ATOM     15  H   UNL     1       5.589  -1.673   6.077  0.00  0.00    +0.146 HD
ENDBRANCH   6   9
ENDBRANCH   2   3
BRANCH   2  16
ATOM     16  N   UNL     1       0.578  -0.663  -1.208  0.00  0.00    +0.388 N 
ATOM     17  H   UNL     1       1.535  -0.365  -1.327  0.00  0.00    -0.084 HD
ATOM     18  H   UNL     1       0.549  -1.666  -1.100  0.00  0.00    -0.084 HD
BRANCH  16  19
ATOM     19  C   UNL     1      -0.205  -0.275  -2.388  0.00  0.00    -0.006 C 
BRANCH  19  20
ATOM     20  C   UNL     1       0.376  -0.929  -3.615  0.00  0.00    +0.091 A 
ATOM     21  C   UNL     1       0.022  -2.130  -4.108  0.00  0.00    +0.059 A 
ATOM     22  C   UNL     1       0.814  -2.349  -5.259  0.00  0.00    +0.070 A 
ATOM     23  C   UNL     1       1.604  -1.268  -5.401  0.00  0.00    +0.184 A 
ATOM     24  O   UNL     1       1.331  -0.410  -4.404  0.00  0.00    -0.454 OA
ATOM     25 BR   UNL     1       2.878  -1.002  -6.772  0.00  0.00    -0.007 Br
ATOM     26 BR   UNL     1       0.770  -3.869  -6.383  0.00  0.00    -0.046 Br
ENDBRANCH  19  20
ENDBRANCH  16  19
ENDBRANCH   2  16
TORSDOF 5
