REMARK  Name = ZINC38984633
REMARK  8 active torsions:
REMARK  status: ('A' for Active; 'I' for Inactive)
REMARK    1  A    between atoms: C_1  and  C_2
REMARK    2  A    between atoms: C_5  and  N_8
REMARK    3  A    between atoms: C_9  and  C_11
REMARK    4  A    between atoms: C_11  and  S_12
REMARK    5  A    between atoms: S_12  and  C_13
REMARK    6  A    between atoms: C_17  and  C_21
REMARK    7  A    between atoms: N_19  and  N_20
REMARK    8  A    between atoms: C_24  and  C_27
REMARK                            x       y       z     vdW  Elec       q    Type
REMARK                         _______ _______ _______ _____ _____    ______ ____
ROOT
ATOM      1  C   UNL     1       0.597  -8.760   2.631  0.00  0.00    +0.214 C 
ATOM      2  N   UNL     1      -0.575  -9.293   1.899  0.00  0.00    -0.228 NA
ATOM      3  N   UNL     1      -0.131  -9.367   0.498  0.00  0.00    -0.234 NA
ATOM      4  C   UNL     1       1.286  -9.799   0.617  0.00  0.00    +0.185 C 
ATOM      5  N   UNL     1       1.786  -9.084   1.815  0.00  0.00    -0.197 NA
ATOM      6  H   UNL     1      -1.370  -8.680   1.995  0.00  0.00    +0.143 HD
ATOM      7  H   UNL     1      -0.197  -8.465   0.050  0.00  0.00    +0.143 HD
ENDROOT
BRANCH   4   8
ATOM      8  C   UNL     1       2.078  -9.387  -0.626  0.00  0.00    +0.187 C 
ATOM      9  C   UNL     1       1.469  -9.998  -1.876  0.00  0.00    +0.034 C 
ATOM     10  C   UNL     1       2.453 -10.778  -2.365  0.00  0.00    +0.091 C 
ATOM     11  N   UNL     1       3.554 -10.707  -1.572  0.00  0.00    -0.154 NA
ATOM     12  N   UNL     1       3.433  -9.961  -0.593  0.00  0.00    -0.176 NA
BRANCH  10  13
ATOM     13  C   UNL     1       2.348 -11.599  -3.597  0.00  0.00    +0.002 A 
ATOM     14  C   UNL     1       1.170 -11.595  -4.342  0.00  0.00    +0.011 A 
ATOM     15  C   UNL     1       1.078 -12.360  -5.486  0.00  0.00    +0.020 A 
ATOM     16  C   UNL     1       2.153 -13.131  -5.894  0.00  0.00    +0.041 A 
ATOM     17  C   UNL     1       3.325 -13.139  -5.158  0.00  0.00    +0.020 A 
ATOM     18  C   UNL     1       3.429 -12.372  -4.015  0.00  0.00    +0.011 A 
ATOM     19 CL   UNL     1       2.030 -14.093  -7.335  0.00  0.00    -0.084 Cl
ENDBRANCH  10  13
ENDBRANCH   4   8
BRANCH   5  20
ATOM     20  N   UNL     1       2.722  -9.909   2.562  0.00  0.00    -0.264 NA
ATOM     21  H   UNL     1       3.035  -9.435   3.396  0.00  0.00    +0.137 HD
ATOM     22  H   UNL     1       2.315 -10.804   2.787  0.00  0.00    +0.137 HD
ENDBRANCH   5  20
BRANCH   1  23
ATOM     23  S   UNL     1       0.446  -6.963   2.823  0.00  0.00    -0.115 S 
BRANCH  23  24
ATOM     24  C   UNL     1       0.309  -6.349   1.121  0.00  0.00    +0.168 C 
BRANCH  24  26
ATOM     25  N   UNL     1       0.059  -4.170  -0.021  0.00  0.00    -0.285 N 
ATOM     26  C   UNL     1       0.175  -4.848   1.138  0.00  0.00    +0.227 C 
ATOM     27  O   UNL     1       0.173  -4.251   2.193  0.00  0.00    -0.275 OA
ATOM     28  H   UNL     1      -0.017  -4.651  -0.860  0.00  0.00    +0.155 HD
BRANCH  25  33
ATOM     29  C   UNL     1       0.008   1.503   0.007  0.00  0.00    +0.044 C 
ATOM     30  C   UNL     1       0.022  -0.004  -0.001  0.00  0.00    -0.050 A 
ATOM     31  C   UNL     1       0.777  -0.692   0.931  0.00  0.00    +0.005 A 
ATOM     32  C   UNL     1       0.791  -2.073   0.927  0.00  0.00    +0.023 A 
ATOM     33  C   UNL     1       0.046  -2.771  -0.014  0.00  0.00    +0.033 A 
ATOM     34  C   UNL     1      -0.712  -2.077  -0.948  0.00  0.00    +0.023 A 
ATOM     35  C   UNL     1      -0.726  -0.696  -0.936  0.00  0.00    +0.005 A 
ENDBRANCH  25  33
ENDBRANCH  24  26
ENDBRANCH  23  24
ENDBRANCH   1  23
TORSDOF 7
