REMARK  Name = ZINC29397870
REMARK  8 active torsions:
REMARK  status: ('A' for Active; 'I' for Inactive)
REMARK    1  A    between atoms: C_1  and  C_2
REMARK    2  A    between atoms: C_4  and  O_5
REMARK    3  A    between atoms: N_13  and  C_14
REMARK    4  A    between atoms: C_14  and  C_15
REMARK    5  A    between atoms: N_17  and  C_18
REMARK    6  A    between atoms: C_18  and  C_19
REMARK    7  A    between atoms: N_21  and  C_22
REMARK    8  A    between atoms: C_27  and  C_28
REMARK                            x       y       z     vdW  Elec       q    Type
REMARK                         _______ _______ _______ _____ _____    ______ ____
ROOT
ATOM      1  C   UNL     1      -0.727   1.607  -1.213  0.00  0.00    +0.233 C 
ATOM      2  O   UNL     1      -1.717   2.297  -1.089  0.00  0.00    -0.274 OA
ATOM      3  N   UNL     1      -0.280   1.286  -2.443  0.00  0.00    -0.305 N 
ATOM      4  H   UNL     1       0.618   0.661  -2.556  0.00  0.00    +0.149 HD
ENDROOT
BRANCH   1   5
ATOM      5  C   UNL     1       0.002   1.109   0.008  0.00  0.00    +0.209 C 
BRANCH   5  17
ATOM      6  C   UNL     1       2.553  -0.616   6.449  0.00  0.00    +0.045 C 
ATOM      7  C   UNL     1       1.323   0.239   6.290  0.00  0.00    -0.033 A 
ATOM      8  C   UNL     1       0.657   0.712   7.376  0.00  0.00    +0.091 A 
ATOM      9  C   UNL     1      -0.492   1.510   7.202  0.00  0.00    +0.285 A 
ATOM     10  O   UNL     1      -0.955   1.822   5.981  0.00  0.00    -0.425 OA
ATOM     11  C   UNL     1      -0.341   1.385   4.861  0.00  0.00    +0.141 A 
ATOM     12  C   UNL     1       0.812   0.583   4.962  0.00  0.00    +0.021 A 
ATOM     13  C   UNL     1       1.454   0.129   3.804  0.00  0.00    +0.014 A 
ATOM     14  C   UNL     1       0.956   0.459   2.578  0.00  0.00    +0.026 A 
ATOM     15  C   UNL     1      -0.184   1.258   2.471  0.00  0.00    +0.039 A 
ATOM     16  C   UNL     1      -0.831   1.718   3.609  0.00  0.00    +0.072 A 
ATOM     17  N   UNL     1      -0.677   1.592   1.213  0.00  0.00    -0.376 N 
ATOM     18  H   UNL     1      -1.578   2.217   1.124  0.00  0.00    +0.160 HD
BRANCH   9  19
ATOM     19  O   UNL     1      -1.079   1.927   8.184  0.00  0.00    -0.480 OA
ATOM     20  H   UNL     1      -1.978   2.550   8.064  0.00  0.00    +0.295 HD
ENDBRANCH   9  19
ENDBRANCH   5  17
ENDBRANCH   1   5
BRANCH   3  21
ATOM     21  C   UNL     1      -0.989   1.770  -3.630  0.00  0.00    +0.200 C 
BRANCH  21  22
ATOM     22  C   UNL     1      -0.290   1.274  -4.870  0.00  0.00    +0.234 C 
ATOM     23  O   UNL     1       0.703   0.585  -4.771  0.00  0.00    -0.274 OA
ATOM     24  N   UNL     1      -0.768   1.597  -6.088  0.00  0.00    -0.284 N 
ATOM     25  H   UNL     1      -1.718   2.146  -6.178  0.00  0.00    +0.155 HD
BRANCH  24  26
ATOM     26  C   UNL     1      -0.057   1.236  -7.237  0.00  0.00    +0.038 A 
ATOM     27  C   UNL     1       1.315   1.029  -7.170  0.00  0.00    +0.023 A 
ATOM     28  C   UNL     1       2.015   0.671  -8.306  0.00  0.00    +0.003 A 
ATOM     29  C   UNL     1       1.351   0.519  -9.509  0.00  0.00    +0.020 A 
ATOM     30  C   UNL     1      -0.015   0.724  -9.580  0.00  0.00    +0.046 A 
ATOM     31  C   UNL     1      -0.722   1.077  -8.445  0.00  0.00    -0.011 A 
ATOM     32  C   UNL     1      -2.211   1.295  -8.521  0.00  0.00    +0.047 C 
ATOM     33 CL   UNL     1      -0.844   0.531 -11.093  0.00  0.00    -0.083 Cl
ENDBRANCH  24  26
ENDBRANCH  21  22
ENDBRANCH   3  21
TORSDOF 6
