REMARK  Name = ZINC66067971
REMARK  9 active torsions:
REMARK  status: ('A' for Active; 'I' for Inactive)
REMARK    1  A    between atoms: C_1  and  O_2
REMARK    2  A    between atoms: O_2  and  C_3
REMARK    3  A    between atoms: C_6  and  C_10
REMARK    4  A    between atoms: C_8  and  O_9
REMARK    5  A    between atoms: C_10  and  N_11
REMARK    6  A    between atoms: N_11  and  C_12
REMARK    7  A    between atoms: C_12  and  C_13
REMARK    8  A    between atoms: C_13  and  C_14
REMARK    9  A    between atoms: C_14  and  N_15
REMARK                            x       y       z     vdW  Elec       q    Type
REMARK                         _______ _______ _______ _____ _____    ______ ____
ROOT
ATOM      1  C   UNL     1      -6.732  -3.534  -1.338  0.00  0.00    -0.081 C 
ENDROOT
BRANCH   1   2
ATOM      2  N   UNL     1      -5.431  -2.852  -1.347  0.00  0.00    +0.382 N 
ATOM      3  H   UNL     1      -5.518  -1.966  -1.821  0.00  0.00    -0.085 HD
ATOM      4  H   UNL     1      -4.754  -3.426  -1.828  0.00  0.00    -0.085 HD
BRANCH   2   5
ATOM      5  C   UNL     1      -4.987  -2.627   0.035  0.00  0.00    -0.047 C 
BRANCH   5   9
ATOM      6  C   UNL     1      -1.201  -0.638   0.010  0.00  0.00    +0.161 A 
ATOM      7  C   UNL     1      -2.374   0.099   0.019  0.00  0.00    +0.049 A 
ATOM      8  C   UNL     1      -3.596  -0.546   0.027  0.00  0.00    +0.005 A 
ATOM      9  C   UNL     1      -3.652  -1.928   0.026  0.00  0.00    -0.061 A 
ATOM     10  C   UNL     1      -2.485  -2.669   0.017  0.00  0.00    +0.051 A 
ATOM     11  C   UNL     1      -1.257  -2.028   0.003  0.00  0.00    +0.159 A 
BRANCH   6  13
ATOM     12  C   UNL     1      -0.017   1.425   0.010  0.00  0.00    +0.277 C 
ATOM     13  O   UNL     1       0.002  -0.004   0.002  0.00  0.00    -0.491 OA
ENDBRANCH   6  13
BRANCH  11  14
ATOM     14  O   UNL     1      -0.108  -2.756  -0.012  0.00  0.00    -0.503 OA
ATOM     15  H   UNL     1       0.232  -2.972   0.867  0.00  0.00    +0.292 HD
ENDBRANCH  11  14
ENDBRANCH   5   9
ENDBRANCH   2   5
ENDBRANCH   1   2
BRANCH   1  16
ATOM     16  C   UNL     1      -7.195  -3.769  -2.778  0.00  0.00    +0.000 C 
BRANCH  16  17
ATOM     17  C   UNL     1      -8.550  -4.478  -2.769  0.00  0.00    +0.116 C 
BRANCH  17  18
ATOM     18  N   UNL     1      -8.993  -4.703  -4.147  0.00  0.00    -0.224 N 
ATOM     19  C   UNL     1      -9.736  -3.828  -4.858  0.00  0.00    +0.246 C 
ATOM     20  O   UNL     1     -10.149  -2.748  -4.494  0.00  0.00    -0.273 OA
ATOM     21  C   UNL     1      -9.941  -4.481  -6.201  0.00  0.00    +0.113 C 
ATOM     22  C   UNL     1      -9.362  -3.616  -7.329  0.00  0.00    +0.035 C 
ATOM     23  C   UNL     1     -10.338  -3.841  -8.513  0.00  0.00    +0.003 C 
ATOM     24  C   UNL     1     -11.717  -3.925  -7.811  0.00  0.00    +0.003 C 
ATOM     25  C   UNL     1     -11.429  -4.685  -6.498  0.00  0.00    +0.035 C 
ATOM     26  N   UNL     1      -9.236  -5.760  -6.099  0.00  0.00    -0.285 N 
ATOM     27  C   UNL     1      -8.706  -5.800  -4.860  0.00  0.00    +0.309 C 
ATOM     28  O   UNL     1      -8.046  -6.728  -4.437  0.00  0.00    -0.252 OA
ATOM     29  H   UNL     1      -9.162  -6.440  -6.787  0.00  0.00    +0.151 HD
ENDBRANCH  17  18
ENDBRANCH  16  17
ENDBRANCH   1  16
TORSDOF 8
