REMARK  Name = ZINC36909238
REMARK  4 active torsions:
REMARK  status: ('A' for Active; 'I' for Inactive)
REMARK    1  A    between atoms: C_6  and  C_7
REMARK    2  A    between atoms: C_7  and  N_8
REMARK    3  A    between atoms: C_16  and  C_17
REMARK    4  A    between atoms: C_17  and  C_18
REMARK                            x       y       z     vdW  Elec       q    Type
REMARK                         _______ _______ _______ _____ _____    ______ ____
ROOT
ATOM      1  N   UNL     1      -1.726  -1.017  -1.368  0.00  0.00    -0.323 N 
ATOM      2  C   UNL     1      -2.533  -0.194  -2.130  0.00  0.00    +0.069 A 
ATOM      3  C   UNL     1      -3.158   1.024  -1.900  0.00  0.00    +0.031 A 
ATOM      4  C   UNL     1      -3.917   1.603  -2.894  0.00  0.00    +0.040 A 
ATOM      5  C   UNL     1      -4.061   0.976  -4.126  0.00  0.00    +0.126 A 
ATOM      6  C   UNL     1      -3.447  -0.233  -4.370  0.00  0.00    +0.068 A 
ATOM      7  C   UNL     1      -2.674  -0.833  -3.373  0.00  0.00    +0.092 A 
ATOM      8  N   UNL     1      -1.962  -1.987  -3.307  0.00  0.00    -0.232 NA
ATOM      9  C   UNL     1      -1.404  -2.092  -2.137  0.00  0.00    +0.112 A 
ATOM     10  F   UNL     1      -4.808   1.556  -5.091  0.00  0.00    -0.205 F 
ENDROOT
BRANCH   1  11
ATOM     11  C   UNL     1      -1.293  -0.775   0.011  0.00  0.00    +0.158 C 
BRANCH  11  17
ATOM     12  C   UNL     1      -0.017   1.378   0.010  0.00  0.00    +0.007 A 
ATOM     13  C   UNL     1       1.171   2.086   0.002  0.00  0.00    +0.020 A 
ATOM     14  C   UNL     1       2.378   1.410  -0.013  0.00  0.00    +0.041 A 
ATOM     15  C   UNL     1       2.396   0.027  -0.021  0.00  0.00    +0.020 A 
ATOM     16  C   UNL     1       1.208  -0.679  -0.013  0.00  0.00    +0.007 A 
ATOM     17  C   UNL     1       0.002  -0.004   0.002  0.00  0.00    -0.028 A 
ATOM     18 CL   UNL     1       3.870   2.298  -0.023  0.00  0.00    -0.084 Cl
ENDBRANCH  11  17
ENDBRANCH   1  11
BRANCH   9  19
ATOM     19  C   UNL     1      -0.531  -3.239  -1.696  0.00  0.00    +0.090 C 
BRANCH  19  20
ATOM     20  C   UNL     1      -1.400  -4.325  -1.058  0.00  0.00    +0.116 C 
ATOM     21 CL   UNL     1      -0.355  -5.697  -0.531  0.00  0.00    -0.125 Cl
ENDBRANCH  19  20
ENDBRANCH   9  19
TORSDOF 4
