REMARK  Name = ZINC32754147
REMARK  7 active torsions:
REMARK  status: ('A' for Active; 'I' for Inactive)
REMARK    1  A    between atoms: C_3  and  N_12
REMARK    2  A    between atoms: C_5  and  N_7
REMARK    3  A    between atoms: N_7  and  S_8
REMARK    4  A    between atoms: S_8  and  N_11
REMARK    5  A    between atoms: C_13  and  C_15
REMARK    6  A    between atoms: C_15  and  O_16
REMARK    7  A    between atoms: O_16  and  C_17
REMARK                            x       y       z     vdW  Elec       q    Type
REMARK                         _______ _______ _______ _____ _____    ______ ____
ROOT
ATOM      1  N   UNL     1       2.445   3.228  -0.018  0.00  0.00    -0.283 N 
ATOM      2  C   UNL     1       3.529   2.451   0.178  0.00  0.00    +0.255 C 
ATOM      3  O   UNL     1       3.399   1.253   0.315  0.00  0.00    -0.272 OA
ATOM      4  H   UNL     1       2.568   4.301  -0.227  0.00  0.00    +0.155 HD
ENDROOT
BRANCH   1   7
ATOM      5  C   UNL     1      -0.362   1.068   0.978  0.00  0.00    +0.004 A 
ATOM      6  C   UNL     1       0.904   1.620   0.916  0.00  0.00    +0.023 A 
ATOM      7  C   UNL     1       1.163   2.670   0.044  0.00  0.00    +0.035 A 
ATOM      8  C   UNL     1       0.151   3.164  -0.765  0.00  0.00    +0.050 A 
ATOM      9  C   UNL     1      -1.119   2.608  -0.701  0.00  0.00    +0.077 A 
ATOM     10  C   UNL     1      -1.371   1.555   0.170  0.00  0.00    +0.027 A 
BRANCH   9  11
ATOM     11  N   UNL     1      -2.142   3.103  -1.514  0.00  0.00    -0.087 NA
BRANCH  11  12
ATOM     12  S   UNL     1      -3.123   2.055  -2.339  0.00  0.00    +0.126 S 
ATOM     13  O   UNL     1      -3.632   1.136  -1.383  0.00  0.00    -0.137 OA
ATOM     14  O   UNL     1      -3.970   2.851  -3.157  0.00  0.00    -0.137 OA
BRANCH  12  15
ATOM     15  N   UNL     1      -2.157   1.185  -3.365  0.00  0.00    -0.189 NA
ATOM     16  H   UNL     1      -2.774   0.474  -3.935  0.00  0.00    +0.146 HD
ATOM     17  H   UNL     1      -1.406   0.633  -2.781  0.00  0.00    +0.146 HD
ENDBRANCH  12  15
ENDBRANCH  11  12
ENDBRANCH   9  11
ENDBRANCH   1   7
BRANCH   2  18
ATOM     18  C   UNL     1       4.901   3.071   0.227  0.00  0.00    +0.324 C 
BRANCH  18  19
ATOM     19  O   UNL     1       5.878   2.050   0.444  0.00  0.00    -0.482 OA
BRANCH  19  20
ATOM     20  C   UNL     1       7.177   2.444   0.514  0.00  0.00    +0.135 A 
ATOM     21  C   UNL     1       7.505   3.785   0.377  0.00  0.00    +0.049 A 
ATOM     22  C   UNL     1       8.825   4.183   0.449  0.00  0.00    +0.042 A 
ATOM     23  C   UNL     1       9.822   3.245   0.658  0.00  0.00    +0.125 A 
ATOM     24  C   UNL     1       9.498   1.907   0.794  0.00  0.00    +0.057 A 
ATOM     25  C   UNL     1       8.177   1.505   0.728  0.00  0.00    +0.062 A 
ATOM     26 BR   UNL     1       7.732  -0.322   0.922  0.00  0.00    -0.046 Br
ATOM     27  F   UNL     1      11.114   3.637   0.727  0.00  0.00    -0.205 F 
ENDBRANCH  19  20
ENDBRANCH  18  19
ENDBRANCH   2  18
TORSDOF 7
