REMARK  Name = ZINC13465522
REMARK  3 active torsions:
REMARK  status: ('A' for Active; 'I' for Inactive)
REMARK    1  A    between atoms: C_4  and  C_7
REMARK    2  A    between atoms: C_10  and  C_13
REMARK    3  A    between atoms: N_18  and  N_19
REMARK                            x       y       z     vdW  Elec       q    Type
REMARK                         _______ _______ _______ _____ _____    ______ ____
ROOT
ATOM      1  C   UNL     1       7.412  -2.755  -0.087  0.00  0.00    +0.055 A 
ATOM      2  C   UNL     1       8.595  -2.092  -0.085  0.00  0.00    +0.075 A 
ATOM      3  S   UNL     1       9.769  -3.433  -0.111  0.00  0.00    -0.056 S 
ATOM      4  C   UNL     1       8.690  -4.721  -0.122  0.00  0.00    +0.192 A 
ATOM      5  N   UNL     1       7.472  -4.117  -0.101  0.00  0.00    -0.332 N 
ATOM      6  N   UNL     1       8.964  -6.030  -0.142  0.00  0.00    -0.123 NA
ATOM      7  H   UNL     1       6.659  -4.646  -0.099  0.00  0.00    +0.168 HD
ENDROOT
BRANCH   6   8
ATOM      8  N   UNL     1      10.189  -6.432  -0.154  0.00  0.00    -0.141 NA
ATOM      9  C   UNL     1      10.461  -7.732  -0.174  0.00  0.00    +0.157 C 
ATOM     10  C   UNL     1      11.797  -8.364  -0.184  0.00  0.00    +0.028 A 
ATOM     11  C   UNL     1      13.096  -7.865  -0.177  0.00  0.00    +0.012 A 
ATOM     12  C   UNL     1      14.163  -8.739  -0.191  0.00  0.00    +0.001 A 
ATOM     13  C   UNL     1      13.943 -10.107  -0.212  0.00  0.00    +0.002 A 
ATOM     14  C   UNL     1      12.659 -10.612  -0.219  0.00  0.00    +0.024 A 
ATOM     15  C   UNL     1      11.572  -9.748  -0.205  0.00  0.00    +0.043 A 
ATOM     16  N   UNL     1      10.200  -9.966  -0.207  0.00  0.00    -0.280 N 
ATOM     17  C   UNL     1       9.529  -8.802  -0.183  0.00  0.00    +0.269 C 
ATOM     18  O   UNL     1       8.316  -8.684  -0.173  0.00  0.00    -0.268 OA
ATOM     19  H   UNL     1       9.782 -10.841  -0.220  0.00  0.00    +0.155 HD
ENDBRANCH   6   8
BRANCH   1  23
ATOM     20  C   UNL     1       3.698  -0.688  -0.037  0.00  0.00    -0.018 A 
ATOM     21  C   UNL     1       4.895   0.029  -0.040  0.00  0.00    +0.009 A 
ATOM     22  C   UNL     1       6.098  -0.640  -0.056  0.00  0.00    +0.010 A 
ATOM     23  C   UNL     1       6.121  -2.036  -0.069  0.00  0.00    -0.001 A 
ATOM     24  C   UNL     1       4.922  -2.753  -0.067  0.00  0.00    +0.010 A 
ATOM     25  C   UNL     1       3.720  -2.083  -0.045  0.00  0.00    +0.009 A 
BRANCH  20  29
ATOM     26  C   UNL     1      -0.017   1.379   0.010  0.00  0.00    +0.000 A 
ATOM     27  C   UNL     1       1.169   2.092   0.002  0.00  0.00    +0.001 A 
ATOM     28  C   UNL     1       2.377   1.427  -0.013  0.00  0.00    +0.008 A 
ATOM     29  C   UNL     1       2.402   0.033  -0.021  0.00  0.00    -0.018 A 
ATOM     30  C   UNL     1       1.205  -0.680  -0.013  0.00  0.00    +0.008 A 
ATOM     31  C   UNL     1       0.002  -0.004   0.002  0.00  0.00    +0.001 A 
ENDBRANCH  20  29
ENDBRANCH   1  23
TORSDOF 3
