REMARK  Name = ZINC32998103
REMARK  5 active torsions:
REMARK  status: ('A' for Active; 'I' for Inactive)
REMARK    1  A    between atoms: C_1  and  C_2
REMARK    2  A    between atoms: C_2  and  S_3
REMARK    3  A    between atoms: S_3  and  C_4
REMARK    4  A    between atoms: C_17  and  C_20
REMARK    5  A    between atoms: C_28  and  C_30
REMARK                            x       y       z     vdW  Elec       q    Type
REMARK                         _______ _______ _______ _____ _____    ______ ____
ROOT
ATOM      1  C   UNL     1      -0.108   7.858   0.183  0.00  0.00    +0.212 A 
ATOM      2  N   UNL     1       0.650   7.262  -0.733  0.00  0.00    -0.184 NA
ATOM      3  C   UNL     1       0.717   5.942  -0.758  0.00  0.00    +0.248 A 
ATOM      4  C   UNL     1      -0.020   5.207   0.198  0.00  0.00    +0.156 A 
ATOM      5  N   UNL     1      -0.759   5.861   1.081  0.00  0.00    -0.141 NA
ATOM      6  N   UNL     1      -0.797   7.149   1.068  0.00  0.00    -0.122 NA
ATOM      7  C   UNL     1       0.051   3.731   0.198  0.00  0.00    +0.030 A 
ATOM      8  C   UNL     1      -1.093   2.947   0.276  0.00  0.00    +0.032 A 
ATOM      9  C   UNL     1      -0.982   1.569   0.290  0.00  0.00    +0.042 A 
ATOM     10  C   UNL     1       0.264   0.967   0.235  0.00  0.00    +0.022 A 
ATOM     11  C   UNL     1       1.410   1.736   0.149  0.00  0.00    +0.026 A 
ATOM     12  C   UNL     1       1.314   3.114   0.126  0.00  0.00    +0.050 A 
ATOM     13  N   UNL     1       2.454   3.923   0.017  0.00  0.00    -0.231 N 
ATOM     14  C   UNL     1       2.667   4.671  -1.218  0.00  0.00    +0.306 C 
ATOM     15  O   UNL     1       1.470   5.291  -1.675  0.00  0.00    -0.448 OA
ATOM     16  C   UNL     1       3.334   4.010   1.033  0.00  0.00    +0.220 C 
ATOM     17  O   UNL     1       4.317   4.713   0.926  0.00  0.00    -0.275 OA
ATOM     18  C   UNL     1       3.099   3.232   2.303  0.00  0.00    +0.110 C 
ATOM     19 CL   UNL     1      -2.411   0.589   0.384  0.00  0.00    -0.084 Cl
ENDROOT
BRANCH  14  20
ATOM     20  C   UNL     1       3.169   3.728  -2.282  0.00  0.00    +0.050 A 
ATOM     21  C   UNL     1       2.279   3.145  -3.164  0.00  0.00    +0.050 A 
ATOM     22  C   UNL     1       2.739   2.280  -4.141  0.00  0.00    +0.124 A 
ATOM     23  C   UNL     1       4.092   1.999  -4.236  0.00  0.00    +0.041 A 
ATOM     24  C   UNL     1       4.982   2.583  -3.355  0.00  0.00    +0.041 A 
ATOM     25  C   UNL     1       4.522   3.451  -2.380  0.00  0.00    +0.132 A 
ATOM     26  F   UNL     1       5.392   4.026  -1.521  0.00  0.00    -0.205 F 
ATOM     27  F   UNL     1       1.869   1.709  -5.003  0.00  0.00    -0.205 F 
ENDBRANCH  14  20
BRANCH   1  28
ATOM     28  S   UNL     1      -0.200   9.617   0.221  0.00  0.00    -0.085 S 
BRANCH  28  30
ATOM     29  C   UNL     1      -1.568  11.337   1.845  0.00  0.00    +0.016 C 
ATOM     30  C   UNL     1      -1.331   9.843   1.616  0.00  0.00    +0.074 C 
ENDBRANCH  28  30
ENDBRANCH   1  28
TORSDOF 3
