REMARK  Name = ZINC60341417
REMARK  6 active torsions:
REMARK  status: ('A' for Active; 'I' for Inactive)
REMARK    1  A    between atoms: C_3  and  N_18
REMARK    2  A    between atoms: C_6  and  C_7
REMARK    3  A    between atoms: C_7  and  N_8
REMARK    4  A    between atoms: C_12  and  C_15
REMARK    5  A    between atoms: C_19  and  C_21
REMARK    6  A    between atoms: C_21  and  C_22
REMARK                            x       y       z     vdW  Elec       q    Type
REMARK                         _______ _______ _______ _____ _____    ______ ____
ROOT
ATOM      1  C   UNL     1      -0.013   1.375  -0.179  0.00  0.00    +0.003 A 
ATOM      2  C   UNL     1       1.174   2.081  -0.182  0.00  0.00    +0.023 A 
ATOM      3  C   UNL     1       2.380   1.411  -0.018  0.00  0.00    +0.033 A 
ATOM      4  C   UNL     1       2.387   0.032   0.148  0.00  0.00    +0.023 A 
ATOM      5  C   UNL     1       1.197  -0.668   0.150  0.00  0.00    +0.003 A 
ATOM      6  C   UNL     1      -0.002   0.002  -0.014  0.00  0.00    -0.064 A 
ENDROOT
BRANCH   3   7
ATOM      7  N   UNL     1       3.584   2.123  -0.021  0.00  0.00    -0.285 N 
ATOM      8  C   UNL     1       3.628   3.375   0.478  0.00  0.00    +0.222 C 
ATOM      9  O   UNL     1       2.649   3.848   1.016  0.00  0.00    -0.275 OA
ATOM     10  H   UNL     1       4.387   1.717  -0.382  0.00  0.00    +0.155 HD
BRANCH   8  11
ATOM     11  C   UNL     1       4.893   4.186   0.368  0.00  0.00    +0.131 C 
BRANCH  11  12
ATOM     12  C   UNL     1       4.680   5.538   0.999  0.00  0.00    -0.034 A 
ATOM     13  C   UNL     1       4.207   6.588   0.235  0.00  0.00    +0.053 A 
ATOM     14  C   UNL     1       4.009   7.834   0.813  0.00  0.00    +0.164 A 
ATOM     15  C   UNL     1       4.285   8.022   2.161  0.00  0.00    +0.180 A 
ATOM     16  C   UNL     1       4.761   6.964   2.922  0.00  0.00    +0.086 A 
ATOM     17  C   UNL     1       4.952   5.723   2.341  0.00  0.00    +0.028 A 
ATOM     18 CL   UNL     1       5.112   7.195   4.607  0.00  0.00    -0.080 Cl
ATOM     19  O   UNL     1       4.090   9.234   2.750  0.00  0.00    -0.483 OA
ATOM     20  C   UNL     1       3.968  10.361   1.876  0.00  0.00    +0.270 C 
ATOM     21  C   UNL     1       3.004   9.988   0.742  0.00  0.00    +0.270 C 
ATOM     22  O   UNL     1       3.546   8.859   0.047  0.00  0.00    -0.485 OA
ENDBRANCH  11  12
ENDBRANCH   8  11
ENDBRANCH   3   7
BRANCH   6  23
ATOM     23  C   UNL     1      -1.299  -0.765  -0.011  0.00  0.00    -0.043 C 
BRANCH  23  24
ATOM     24  N   UNL     1      -1.625  -1.179  -1.382  0.00  0.00    +0.383 N 
ATOM     25  C   UNL     1      -1.870   0.011  -2.206  0.00  0.00    -0.078 C 
ATOM     26  C   UNL     1      -2.131  -0.411  -3.653  0.00  0.00    -0.018 C 
ATOM     27  C   UNL     1      -3.358  -1.327  -3.699  0.00  0.00    +0.009 C 
ATOM     28  C   UNL     1      -3.121  -2.527  -2.778  0.00  0.00    +0.058 C 
ATOM     29  C   UNL     1      -2.824  -2.027  -1.363  0.00  0.00    -0.066 C 
ATOM     30  H   UNL     1      -0.852  -1.700  -1.768  0.00  0.00    -0.081 HD
BRANCH  28  31
ATOM     31  C   UNL     1      -4.353  -3.396  -2.757  0.00  0.00    +0.212 C 
ATOM     32  O   UNL     1      -4.934  -3.599  -1.712  0.00  0.00    -0.276 OA
ATOM     33  N   UNL     1      -4.808  -3.947  -3.900  0.00  0.00    -0.329 N 
ATOM     34  H   UNL     1      -4.343  -3.785  -4.736  0.00  0.00    +0.145 HD
ATOM     35  H   UNL     1      -5.601  -4.506  -3.886  0.00  0.00    +0.145 HD
ENDBRANCH  28  31
ENDBRANCH  23  24
ENDBRANCH   6  23
TORSDOF 6
