REMARK  Name = ZINC16635663
REMARK  8 active torsions:
REMARK  status: ('A' for Active; 'I' for Inactive)
REMARK    1  A    between atoms: C_1  and  N_51
REMARK    2  A    between atoms: C_2  and  C_3
REMARK    3  A    between atoms: C_2  and  N_51
REMARK    4  A    between atoms: N_5  and  C_6
REMARK    5  A    between atoms: C_14  and  C_16
REMARK    6  A    between atoms: C_14  and  C_22
REMARK    7  A    between atoms: C_14  and  N_51
REMARK    8  A    between atoms: N_24  and  C_25
REMARK                            x       y       z     vdW  Elec       q    Type
REMARK                         _______ _______ _______ _____ _____    ______ ____
ROOT
ATOM      1  C   UNL     1      -1.507   1.425  -3.644  0.00  0.00    +0.051 C 
ENDROOT
BRANCH   1   2
ATOM      2  C   UNL     1      -0.574   2.105  -4.613  0.00  0.00    -0.052 A 
ATOM      3  C   UNL     1      -0.625   3.477  -4.775  0.00  0.00    +0.002 A 
ATOM      4  C   UNL     1       0.234   4.100  -5.661  0.00  0.00    +0.000 A 
ATOM      5  C   UNL     1       1.137   3.351  -6.392  0.00  0.00    +0.000 A 
ATOM      6  C   UNL     1       1.184   1.978  -6.234  0.00  0.00    +0.000 A 
ATOM      7  C   UNL     1       0.328   1.355  -5.345  0.00  0.00    +0.002 A 
ENDBRANCH   1   2
BRANCH   1   8
ATOM      8  C   UNL     1      -2.908   1.442  -4.199  0.00  0.00    +0.208 C 
ATOM      9  O   UNL     1      -3.797   1.992  -3.586  0.00  0.00    -0.277 OA
ATOM     10  N   UNL     1      -3.172   0.845  -5.379  0.00  0.00    -0.287 N 
ATOM     11  H   UNL     1      -2.450   0.464  -5.902  0.00  0.00    +0.155 HD
BRANCH  10  12
ATOM     12  C   UNL     1      -4.490   0.774  -5.848  0.00  0.00    +0.034 A 
ATOM     13  C   UNL     1      -4.919  -0.344  -6.549  0.00  0.00    +0.026 A 
ATOM     14  C   UNL     1      -6.220  -0.414  -7.006  0.00  0.00    +0.040 A 
ATOM     15  C   UNL     1      -7.094   0.635  -6.775  0.00  0.00    +0.124 A 
ATOM     16  C   UNL     1      -6.666   1.754  -6.081  0.00  0.00    +0.040 A 
ATOM     17  C   UNL     1      -5.367   1.826  -5.617  0.00  0.00    +0.026 A 
ATOM     18  F   UNL     1      -8.365   0.567  -7.228  0.00  0.00    -0.205 F 
ENDBRANCH  10  12
ENDBRANCH   1   8
BRANCH   1  20
ATOM     19  C   UNL     1      -0.101   2.348  -1.902  0.00  0.00    -0.094 C 
ATOM     20  N   UNL     1      -1.493   2.163  -2.363  0.00  0.00    +0.394 N 
ATOM     21  H   UNL     1      -1.923   3.084  -2.504  0.00  0.00    -0.080 HD
BRANCH  20  22
ATOM     22  C   UNL     1      -2.268   1.422  -1.346  0.00  0.00    +0.020 C 
BRANCH  22  23
ATOM     23  C   UNL     1      -2.425   2.292  -0.125  0.00  0.00    +0.201 C 
ATOM     24  O   UNL     1      -1.929   3.399  -0.102  0.00  0.00    -0.278 OA
ATOM     25  N   UNL     1      -3.115   1.841   0.941  0.00  0.00    -0.285 N 
ATOM     26  H   UNL     1      -3.445   0.929   0.954  0.00  0.00    +0.155 HD
BRANCH  25  27
ATOM     27  C   UNL     1      -3.356   2.688   2.029  0.00  0.00    +0.070 A 
ATOM     28  C   UNL     1      -2.311   3.407   2.597  0.00  0.00    +0.064 A 
ATOM     29  C   UNL     1      -2.553   4.245   3.668  0.00  0.00    +0.022 A 
ATOM     30  C   UNL     1      -3.831   4.362   4.182  0.00  0.00    +0.003 A 
ATOM     31  C   UNL     1      -4.873   3.645   3.623  0.00  0.00    +0.022 A 
ATOM     32  C   UNL     1      -4.639   2.808   2.548  0.00  0.00    +0.064 A 
ATOM     33 CL   UNL     1      -5.947   1.907   1.848  0.00  0.00    -0.082 Cl
ATOM     34 CL   UNL     1      -0.704   3.256   1.957  0.00  0.00    -0.082 Cl
ENDBRANCH  25  27
ENDBRANCH  22  23
ENDBRANCH  20  22
ENDBRANCH   1  20
TORSDOF 7
