REMARK  Name = ZINC06727367
REMARK  5 active torsions:
REMARK  status: ('A' for Active; 'I' for Inactive)
REMARK    1  A    between atoms: C_1  and  C_2
REMARK    2  A    between atoms: C_6  and  C_9
REMARK    3  A    between atoms: C_7  and  O_8
REMARK    4  A    between atoms: C_20  and  N_42
REMARK    5  A    between atoms: C_21  and  O_23
REMARK                            x       y       z     vdW  Elec       q    Type
REMARK                         _______ _______ _______ _____ _____    ______ ____
ROOT
ATOM      1  C   UNL     1      -4.224   2.465   2.353  0.00  0.00    +0.227 C 
ATOM      2  N   UNL     1      -4.573   3.435   3.407  0.00  0.00    -0.313 N 
ATOM      3  C   UNL     1      -4.451   4.762   3.081  0.00  0.00    +0.080 A 
ATOM      4  C   UNL     1      -4.516   5.219   1.758  0.00  0.00    +0.067 A 
ATOM      5  C   UNL     1      -4.379   6.651   1.577  0.00  0.00    -0.027 A 
ATOM      6  C   UNL     1      -4.201   7.372   2.710  0.00  0.00    -0.021 A 
ATOM      7  S   UNL     1      -4.214   6.176   4.017  0.00  0.00    -0.080 S 
ATOM      8  C   UNL     1      -4.030   8.855   2.804  0.00  0.00    -0.036 C 
ATOM      9  C   UNL     1      -4.689   8.845   0.473  0.00  0.00    -0.074 C 
ATOM     10  C   UNL     1      -4.426   7.357   0.226  0.00  0.00    +0.018 C 
ATOM     11  C   UNL     1      -3.719  10.841   1.444  0.00  0.00    -0.096 C 
ATOM     12  C   UNL     1      -4.714   4.199   0.696  0.00  0.00    +0.220 C 
ATOM     13  N   UNL     1      -4.614   2.943   1.032  0.00  0.00    -0.223 NA
ATOM     14  H   UNL     1      -4.872   3.151   4.285  0.00  0.00    +0.149 HD
ATOM     15  N   UNL     1      -3.707   9.362   1.448  0.00  0.00    +0.381 N 
ATOM     16  H   UNL     1      -2.770   9.035   1.183  0.00  0.00    -0.082 HD
ENDROOT
BRANCH   1  22
ATOM     17  C   UNL     1      -0.013   1.086   0.008  0.00  0.00    +0.047 C 
ATOM     18  C   UNL     1      -0.718   1.572   1.248  0.00  0.00    -0.008 A 
ATOM     19  C   UNL     1      -0.000   1.806   2.405  0.00  0.00    +0.022 A 
ATOM     20  C   UNL     1      -0.647   2.251   3.543  0.00  0.00    +0.019 A 
ATOM     21  C   UNL     1      -2.014   2.464   3.526  0.00  0.00    +0.026 A 
ATOM     22  C   UNL     1      -2.736   2.232   2.371  0.00  0.00    +0.037 A 
ATOM     23  C   UNL     1      -2.088   1.790   1.227  0.00  0.00    +0.127 A 
ATOM     24 BR   UNL     1       0.338   2.570   5.126  0.00  0.00    -0.050 Br
BRANCH  23  25
ATOM     25  O   UNL     1      -2.795   1.566   0.088  0.00  0.00    -0.506 OA
ATOM     26  H   UNL     1      -3.137   0.665   0.008  0.00  0.00    +0.292 HD
ENDBRANCH  23  25
ENDBRANCH   1  22
BRANCH  12  27
ATOM     27  O   UNL     1      -4.990   4.562  -0.579  0.00  0.00    -0.492 OA
ATOM     28  H   UNL     1      -5.099   3.816  -1.185  0.00  0.00    +0.294 HD
ENDBRANCH  12  27
TORSDOF 3
