REMARK  Name = ZINC50045506
REMARK  2 active torsions:
REMARK  status: ('A' for Active; 'I' for Inactive)
REMARK    1  A    between atoms: C_3  and  N_9
REMARK    2  A    between atoms: C_10  and  C_12
REMARK                            x       y       z     vdW  Elec       q    Type
REMARK                         _______ _______ _______ _____ _____    ______ ____
ROOT
ATOM      1  N   UNL     1       3.584   2.131  -0.021  0.00  0.00    -0.279 N 
ATOM      2  C   UNL     1       3.565   3.475  -0.116  0.00  0.00    +0.251 C 
ATOM      3  O   UNL     1       2.505   4.071  -0.103  0.00  0.00    -0.270 OA
ATOM      4  H   UNL     1       4.429   1.661   0.049  0.00  0.00    +0.155 HD
ENDROOT
BRANCH   1   7
ATOM      5  C   UNL     1       0.065   1.242  -0.622  0.00  0.00    +0.005 A 
ATOM      6  C   UNL     1       1.250   1.953  -0.619  0.00  0.00    +0.026 A 
ATOM      7  C   UNL     1       2.382   1.412  -0.024  0.00  0.00    +0.072 A 
ATOM      8  C   UNL     1       2.321   0.155   0.567  0.00  0.00    +0.179 A 
ATOM      9  C   UNL     1       1.130  -0.552   0.561  0.00  0.00    +0.160 A 
ATOM     10  C   UNL     1       0.004  -0.007  -0.033  0.00  0.00    +0.041 A 
ATOM     11  F   UNL     1       1.067  -1.773   1.135  0.00  0.00    -0.202 F 
ATOM     12  F   UNL     1       3.420  -0.375   1.146  0.00  0.00    -0.201 F 
ENDBRANCH   1   7
BRANCH   2  13
ATOM     13  C   UNL     1       4.832   4.224  -0.236  0.00  0.00    +0.075 A 
ATOM     14  C   UNL     1       6.059   3.550  -0.258  0.00  0.00    +0.033 A 
ATOM     15  C   UNL     1       7.218   4.299  -0.372  0.00  0.00    +0.037 A 
ATOM     16  C   UNL     1       7.128   5.677  -0.459  0.00  0.00    +0.127 A 
ATOM     17  N   UNL     1       5.959   6.287  -0.436  0.00  0.00    -0.242 NA
ATOM     18  C   UNL     1       4.827   5.618  -0.335  0.00  0.00    +0.141 A 
ATOM     19 CL   UNL     1       3.318   6.476  -0.317  0.00  0.00    -0.061 Cl
ATOM     20 BR   UNL     1       8.906   3.447  -0.407  0.00  0.00    -0.049 Br
ENDBRANCH   2  13
TORSDOF 2
