REMARK  Name = ZINC63709806
REMARK  10 active torsions:
REMARK  status: ('A' for Active; 'I' for Inactive)
REMARK    1  A    between atoms: C_1  and  O_2
REMARK    2  A    between atoms: O_2  and  C_3
REMARK    3  A    between atoms: C_6  and  C_11
REMARK    4  A    between atoms: C_8  and  O_9
REMARK    5  A    between atoms: O_9  and  C_10
REMARK    6  A    between atoms: C_14  and  C_38
REMARK    7  A    between atoms: C_20  and  C_24
REMARK    8  A    between atoms: N_26  and  C_27
REMARK    9  A    between atoms: C_27  and  C_28
REMARK   10  A    between atoms: C_28  and  C_29
REMARK                            x       y       z     vdW  Elec       q    Type
REMARK                         _______ _______ _______ _____ _____    ______ ____
ROOT
ATOM      1  C   UNL     1       2.700  -2.518   4.335  0.00  0.00    +0.087 C 
ATOM      2  C   UNL     1       1.701  -2.571   5.490  0.00  0.00    +0.052 C 
ATOM      3  C   UNL     1       2.374  -3.111   6.763  0.00  0.00    +0.180 C 
ATOM      4  N   UNL     1       3.544  -2.281   7.021  0.00  0.00    -0.213 NA
ATOM      5  C   UNL     1       4.507  -2.438   5.896  0.00  0.00    +0.153 C 
ATOM      6  N   UNL     1       3.920  -1.788   4.728  0.00  0.00    -0.293 NA
ATOM      7  C   UNL     1       5.766  -1.752   6.439  0.00  0.00    +0.123 C 
ATOM      8  C   UNL     1       5.632  -1.904   7.975  0.00  0.00    +0.114 C 
ATOM      9  N   UNL     1       4.334  -2.600   8.198  0.00  0.00    -0.251 NA
ATOM     10  H   UNL     1       4.580  -1.750   3.966  0.00  0.00    +0.124 HD
ATOM     11  H   UNL     1       3.884  -2.266   9.037  0.00  0.00    +0.141 HD
ENDROOT
BRANCH   1  15
ATOM     12  C   UNL     1       0.892  -0.535   1.004  0.00  0.00    +0.162 A 
ATOM     13  C   UNL     1       1.429   0.204   2.047  0.00  0.00    +0.050 A 
ATOM     14  C   UNL     1       2.012  -0.440   3.122  0.00  0.00    +0.009 A 
ATOM     15  C   UNL     1       2.062  -1.821   3.160  0.00  0.00    -0.027 A 
ATOM     16  C   UNL     1       1.530  -2.564   2.123  0.00  0.00    +0.054 A 
ATOM     17  C   UNL     1       0.938  -1.925   1.045  0.00  0.00    +0.162 A 
BRANCH  12  19
ATOM     18  C   UNL     1       0.307   1.526  -0.028  0.00  0.00    +0.277 C 
ATOM     19  O   UNL     1       0.318   0.097  -0.054  0.00  0.00    -0.491 OA
ENDBRANCH  12  19
BRANCH  17  20
ATOM     20  O   UNL     1       0.408  -2.654   0.027  0.00  0.00    -0.491 OA
ATOM     21  C   UNL     1       0.491  -4.077   0.137  0.00  0.00    +0.277 C 
ENDBRANCH  17  20
ENDBRANCH   1  15
BRANCH   7  22
ATOM     22  C   UNL     1       7.006  -2.450   5.940  0.00  0.00    +0.220 C 
ATOM     23  O   UNL     1       6.907  -3.415   5.213  0.00  0.00    -0.275 OA
ATOM     24  N   UNL     1       8.224  -2.001   6.303  0.00  0.00    -0.315 N 
ATOM     25  H   UNL     1       8.303  -1.230   6.886  0.00  0.00    +0.149 HD
BRANCH  24  26
ATOM     26  C   UNL     1       9.429  -2.679   5.819  0.00  0.00    +0.108 C 
BRANCH  26  27
ATOM     27  C   UNL     1      10.668  -1.976   6.375  0.00  0.00    +0.052 C 
BRANCH  27  28
ATOM     28  C   UNL     1      11.908  -2.673   5.876  0.00  0.00    -0.040 C 
ATOM     29  C   UNL     1      12.651  -2.338   4.798  0.00  0.00    -0.001 A 
ATOM     30  C   UNL     1      12.533  -1.265   3.803  0.00  0.00    +0.010 A 
ATOM     31  C   UNL     1      13.451  -1.184   2.813  0.00  0.00    +0.001 A 
ATOM     32  C   UNL     1      14.511  -2.096   2.714  0.00  0.00    +0.002 A 
ATOM     33  C   UNL     1      14.686  -3.108   3.590  0.00  0.00    +0.026 A 
ATOM     34  C   UNL     1      13.779  -3.288   4.671  0.00  0.00    +0.043 A 
ATOM     35  N   UNL     1      13.735  -4.176   5.634  0.00  0.00    -0.380 N 
ATOM     36  C   UNL     1      12.575  -3.886   6.485  0.00  0.00    +0.144 C 
ATOM     37  H   UNL     1      14.365  -4.902   5.765  0.00  0.00    +0.160 HD
ENDBRANCH  27  28
ENDBRANCH  26  27
ENDBRANCH  24  26
ENDBRANCH   7  22
BRANCH   3  38
ATOM     38  C   UNL     1       2.803  -4.564   6.548  0.00  0.00    +0.406 C 
ATOM     39  F   UNL     1       3.568  -4.656   5.380  0.00  0.00    -0.169 F 
ATOM     40  F   UNL     1       3.566  -4.991   7.640  0.00  0.00    -0.169 F 
ATOM     41  F   UNL     1       1.668  -5.372   6.427  0.00  0.00    -0.169 F 
ENDBRANCH   3  38
TORSDOF 8
