REMARK  Name = ZINC20642214
REMARK  4 active torsions:
REMARK  status: ('A' for Active; 'I' for Inactive)
REMARK    1  A    between atoms: C_1  and  C_2
REMARK    2  A    between atoms: N_17  and  C_18
REMARK    3  A    between atoms: C_22  and  S_24
REMARK    4  A    between atoms: S_24  and  C_25
REMARK                            x       y       z     vdW  Elec       q    Type
REMARK                         _______ _______ _______ _____ _____    ______ ____
ROOT
ATOM      1  C   UNL     1      -1.192  -4.672  -1.067  0.00  0.00    +0.079 C 
ATOM      2  C   UNL     1      -2.318  -4.278  -0.109  0.00  0.00    +0.183 C 
ATOM      3  C   UNL     1      -3.656  -4.798  -0.653  0.00  0.00    +0.096 C 
ATOM      4  C   UNL     1      -4.755  -4.265   0.281  0.00  0.00    +0.111 C 
ATOM      5  C   UNL     1      -4.406  -4.664   1.698  0.00  0.00    +0.016 A 
ATOM      6  C   UNL     1      -5.419  -4.755   2.636  0.00  0.00    +0.009 A 
ATOM      7  C   UNL     1      -5.129  -5.111   3.939  0.00  0.00    +0.002 A 
ATOM      8  C   UNL     1      -3.822  -5.376   4.308  0.00  0.00    +0.024 A 
ATOM      9  C   UNL     1      -2.809  -5.288   3.374  0.00  0.00    +0.083 A 
ATOM     10  C   UNL     1      -3.099  -4.933   2.058  0.00  0.00    +0.147 A 
ATOM     11  O   UNL     1      -2.079  -4.873   1.163  0.00  0.00    -0.466 OA
ATOM     12 CL   UNL     1      -1.170  -5.621   3.840  0.00  0.00    -0.080 Cl
ATOM     13  N   UNL     1      -4.717  -2.795   0.217  0.00  0.00    -0.319 N 
ATOM     14  C   UNL     1      -3.536  -2.162   0.120  0.00  0.00    +0.141 C 
ATOM     15  S   UNL     1      -3.514  -0.451   0.144  0.00  0.00    -0.018 S 
ATOM     16  N   UNL     1      -2.374  -2.823   0.000  0.00  0.00    -0.244 N 
ATOM     17  H   UNL     1      -5.654  -2.219   0.248  0.00  0.00    +0.148 HD
ENDROOT
BRANCH  16  18
ATOM     18  C   UNL     1      -1.179  -2.095  -0.015  0.00  0.00    +0.040 A 
ATOM     19  C   UNL     1      -0.459  -1.915   1.159  0.00  0.00    +0.024 A 
ATOM     20  C   UNL     1       0.721  -1.197   1.145  0.00  0.00    +0.003 A 
ATOM     21  C   UNL     1       1.189  -0.655  -0.036  0.00  0.00    +0.015 A 
ATOM     22  C   UNL     1       0.474  -0.831  -1.214  0.00  0.00    +0.009 A 
ATOM     23  C   UNL     1      -0.716  -1.547  -1.202  0.00  0.00    +0.038 A 
BRANCH  22  24
ATOM     24  S   UNL     1       1.071  -0.138  -2.721  0.00  0.00    -0.129 S 
ATOM     25  C   UNL     1       2.612   0.691  -2.242  0.00  0.00    +0.090 C 
ENDBRANCH  22  24
ENDBRANCH  16  18
TORSDOF 2
