REMARK  Name = ZINC65057340
REMARK  6 active torsions:
REMARK  status: ('A' for Active; 'I' for Inactive)
REMARK    1  A    between atoms: C_1  and  C_2
REMARK    2  A    between atoms: C_7  and  N_8
REMARK    3  A    between atoms: C_9  and  C_11
REMARK    4  A    between atoms: C_11  and  N_12
REMARK    5  A    between atoms: C_18  and  C_25
REMARK    6  A    between atoms: N_21  and  C_24
REMARK                            x       y       z     vdW  Elec       q    Type
REMARK                         _______ _______ _______ _____ _____    ______ ____
ROOT
ATOM      1  N   UNL     1      -0.240  -0.903   5.989  0.00  0.00    -0.251 N 
ATOM      2  C   UNL     1      -1.448  -1.357   6.395  0.00  0.00    +0.268 A 
ATOM      3  O   UNL     1      -2.471  -0.981   5.856  0.00  0.00    -0.267 OA
ATOM      4  C   UNL     1      -1.487  -2.317   7.508  0.00  0.00    +0.100 A 
ATOM      5  C   UNL     1      -2.678  -2.844   8.002  0.00  0.00    +0.130 A 
ATOM      6  N   UNL     1      -2.615  -3.703   9.007  0.00  0.00    -0.235 NA
ATOM      7  C   UNL     1      -1.450  -4.059   9.536  0.00  0.00    +0.162 A 
ATOM      8  N   UNL     1      -0.293  -3.580   9.096  0.00  0.00    -0.209 NA
ATOM      9  C   UNL     1      -0.267  -2.716   8.094  0.00  0.00    +0.153 A 
ATOM     10  N   UNL     1       0.908  -2.191   7.601  0.00  0.00    -0.281 N 
ATOM     11  C   UNL     1       0.892  -1.319   6.577  0.00  0.00    +0.334 A 
ATOM     12  O   UNL     1       1.951  -0.884   6.169  0.00  0.00    -0.246 OA
ATOM     13  C   UNL     1       2.187  -2.591   8.193  0.00  0.00    +0.155 C 
ENDROOT
BRANCH   7  14
ATOM     14  C   UNL     1      -1.442  -5.025  10.660  0.00  0.00    +0.019 A 
ATOM     15  C   UNL     1      -0.235  -5.413  11.240  0.00  0.00    +0.011 A 
ATOM     16  C   UNL     1      -0.234  -6.313  12.286  0.00  0.00    +0.001 A 
ATOM     17  C   UNL     1      -1.427  -6.830  12.759  0.00  0.00    +0.000 A 
ATOM     18  C   UNL     1      -2.627  -6.449  12.187  0.00  0.00    +0.001 A 
ATOM     19  C   UNL     1      -2.642  -5.545  11.144  0.00  0.00    +0.011 A 
ENDBRANCH   7  14
BRANCH   1  20
ATOM     20  C   UNL     1      -0.167   0.054   4.882  0.00  0.00    +0.226 C 
BRANCH  20  22
ATOM     21  N   UNL     1       0.026  -0.014   2.417  0.00  0.00    -0.284 N 
ATOM     22  C   UNL     1      -0.056  -0.694   3.578  0.00  0.00    +0.237 C 
ATOM     23  O   UNL     1      -0.040  -1.906   3.574  0.00  0.00    -0.274 OA
ATOM     24  H   UNL     1       0.079   0.955   2.425  0.00  0.00    +0.155 HD
BRANCH  21  31
ATOM     25  C   UNL     1      -1.265   1.183   0.182  0.00  0.00    +0.046 C 
ATOM     26  C   UNL     1      -0.584  -0.158   0.085  0.00  0.00    -0.028 A 
ATOM     27  C   UNL     1      -0.570  -0.840  -1.116  0.00  0.00    +0.020 A 
ATOM     28  C   UNL     1       0.055  -2.071  -1.206  0.00  0.00    +0.018 A 
ATOM     29  C   UNL     1       0.666  -2.623  -0.094  0.00  0.00    +0.017 A 
ATOM     30  C   UNL     1       0.655  -1.945   1.109  0.00  0.00    +0.024 A 
ATOM     31  C   UNL     1       0.034  -0.706   1.201  0.00  0.00    +0.036 A 
ATOM     32 BR   UNL     1       0.072  -3.002  -2.852  0.00  0.00    -0.050 Br
ENDBRANCH  21  31
ENDBRANCH  20  22
ENDBRANCH   1  20
TORSDOF 4
