REMARK  Name = ZINC21151994
REMARK  11 active torsions:
REMARK  status: ('A' for Active; 'I' for Inactive)
REMARK    1  A    between atoms: C_1  and  C_2
REMARK    2  A    between atoms: C_2  and  C_3
REMARK    3  A    between atoms: C_3  and  C_5
REMARK    4  A    between atoms: C_3  and  S_14
REMARK    5  A    between atoms: N_7  and  C_8
REMARK    6  A    between atoms: S_14  and  C_15
REMARK    7  A    between atoms: C_19  and  C_22
REMARK    8  A    between atoms: C_24  and  C_33
REMARK    9  A    between atoms: C_27  and  N_28
REMARK   10  A    between atoms: C_29  and  C_31
REMARK   11  A    between atoms: C_31  and  C_32
REMARK                            x       y       z     vdW  Elec       q    Type
REMARK                         _______ _______ _______ _____ _____    ______ ____
ROOT
ATOM      1  C   UNL     1      -4.427  -0.374  -0.542  0.00  0.00    +0.213 A 
ATOM      2  N   UNL     1      -3.300  -1.130  -0.675  0.00  0.00    -0.180 NA
ATOM      3  C   UNL     1      -2.143  -0.513  -1.014  0.00  0.00    +0.300 A 
ATOM      4  O   UNL     1      -1.108  -1.142  -1.149  0.00  0.00    -0.263 OA
ATOM      5  C   UNL     1      -2.180   0.941  -1.205  0.00  0.00    +0.161 A 
ATOM      6  N   UNL     1      -3.333   1.570  -1.049  0.00  0.00    -0.141 NA
ATOM      7  N   UNL     1      -4.402   0.933  -0.732  0.00  0.00    -0.122 NA
ENDROOT
BRANCH   5   8
ATOM      8  C   UNL     1      -0.956   1.687  -1.571  0.00  0.00    +0.029 A 
ATOM      9  C   UNL     1      -0.865   2.320  -2.810  0.00  0.00    +0.015 A 
ATOM     10  C   UNL     1       0.277   3.019  -3.144  0.00  0.00    -0.050 A 
ATOM     11  C   UNL     1       1.336   3.091  -2.256  0.00  0.00    +0.005 A 
ATOM     12  C   UNL     1       1.261   2.462  -1.027  0.00  0.00    +0.024 A 
ATOM     13  C   UNL     1       0.120   1.756  -0.677  0.00  0.00    +0.043 A 
ATOM     14  C   UNL     1       0.371   3.708  -4.481  0.00  0.00    +0.044 C 
BRANCH  13  15
ATOM     15  N   UNL     1       0.042   1.120   0.565  0.00  0.00    -0.285 N 
ATOM     16  C   UNL     1       1.152   0.601   1.127  0.00  0.00    +0.217 C 
ATOM     17  O   UNL     1       2.231   0.759   0.597  0.00  0.00    -0.275 OA
ATOM     18  H   UNL     1      -0.924   1.044   1.084  0.00  0.00    +0.155 HD
BRANCH  16  19
ATOM     19  C   UNL     1       1.051  -0.177   2.414  0.00  0.00    +0.093 C 
ATOM     20  C   UNL     1       2.444  -0.653   2.833  0.00  0.00    +0.013 C 
ENDBRANCH  16  19
ENDBRANCH  13  15
ENDBRANCH   5   8
BRANCH   1  21
ATOM     21  S   UNL     1      -5.946  -1.155  -0.109  0.00  0.00    -0.072 S 
BRANCH  21  22
ATOM     22  C   UNL     1      -7.069   0.260  -0.219  0.00  0.00    +0.140 C 
BRANCH  22  23
ATOM     23  C   UNL     1      -6.776   1.222   0.903  0.00  0.00    +0.231 C 
ATOM     24  O   UNL     1      -6.177   0.842   1.887  0.00  0.00    -0.274 OA
ATOM     25  N   UNL     1      -7.180   2.505   0.813  0.00  0.00    -0.285 N 
ATOM     26  H   UNL     1      -7.794   2.830  -0.039  0.00  0.00    +0.155 HD
BRANCH  25  27
ATOM     27  C   UNL     1      -6.818   3.423   1.805  0.00  0.00    +0.033 A 
ATOM     28  C   UNL     1      -6.715   3.014   3.128  0.00  0.00    +0.023 A 
ATOM     29  C   UNL     1      -6.353   3.921   4.104  0.00  0.00    +0.002 A 
ATOM     30  C   UNL     1      -6.103   5.239   3.766  0.00  0.00    +0.000 A 
ATOM     31  C   UNL     1      -6.210   5.651   2.451  0.00  0.00    +0.002 A 
ATOM     32  C   UNL     1      -6.567   4.747   1.469  0.00  0.00    +0.023 A 
ENDBRANCH  25  27
ENDBRANCH  22  23
BRANCH  22  34
ATOM     33  C   UNL     1      -8.862  -1.076  -1.334  0.00  0.00    +0.005 C 
ATOM     34  C   UNL     1      -8.515  -0.228  -0.109  0.00  0.00    +0.020 C 
ENDBRANCH  22  34
ENDBRANCH  21  22
ENDBRANCH   1  21
TORSDOF 8
