REMARK  Name = ZINC20138522
REMARK  10 active torsions:
REMARK  status: ('A' for Active; 'I' for Inactive)
REMARK    1  A    between atoms: C_1  and  C_2
REMARK    2  A    between atoms: C_5  and  N_9
REMARK    3  A    between atoms: C_10  and  C_12
REMARK    4  A    between atoms: C_12  and  C_13
REMARK    5  A    between atoms: C_13  and  C_14
REMARK    6  A    between atoms: N_16  and  C_17
REMARK    7  A    between atoms: C_23  and  C_37
REMARK    8  A    between atoms: C_25  and  N_27
REMARK    9  A    between atoms: C_29  and  C_36
REMARK   10  A    between atoms: C_32  and  C_35
REMARK                            x       y       z     vdW  Elec       q    Type
REMARK                         _______ _______ _______ _____ _____    ______ ____
ROOT
ATOM      1  C   UNL     1       0.748 -10.438   3.308  0.00  0.00    +0.034 A 
ATOM      2  C   UNL     1       0.703 -11.035   2.043  0.00  0.00    +0.025 A 
ATOM      3  C   UNL     1       0.890 -12.373   1.894  0.00  0.00    +0.028 A 
ATOM      4  C   UNL     1       1.134 -13.179   3.020  0.00  0.00    +0.048 A 
ATOM      5  C   UNL     1       1.181 -12.581   4.303  0.00  0.00    +0.003 A 
ATOM      6  C   UNL     1       0.990 -11.197   4.432  0.00  0.00    +0.033 A 
ATOM      7  C   UNL     1       1.426 -13.392   5.430  0.00  0.00    -0.038 A 
ATOM      8  C   UNL     1       1.608 -14.729   5.236  0.00  0.00    +0.045 A 
ATOM      9  C   UNL     1       1.549 -15.261   3.941  0.00  0.00    +0.099 A 
ATOM     10  N   UNL     1       1.320 -14.498   2.892  0.00  0.00    -0.343 N 
ATOM     11  C   UNL     1       1.485 -12.796   6.813  0.00  0.00    +0.044 C 
ATOM     12  H   UNL     1       1.286 -14.900   2.010  0.00  0.00    +0.167 HD
ENDROOT
BRANCH   9  13
ATOM     13  N   UNL     1       1.736 -16.624   3.759  0.00  0.00    -0.316 N 
ATOM     14  C   UNL     1       1.847 -17.525   4.914  0.00  0.00    +0.109 C 
ATOM     15  C   UNL     1       0.825 -18.654   4.759  0.00  0.00    +0.004 C 
ATOM     16  C   UNL     1       1.029 -19.339   3.405  0.00  0.00    +0.009 C 
ATOM     17  C   UNL     1       0.805 -18.327   2.280  0.00  0.00    +0.004 C 
ATOM     18  C   UNL     1       1.821 -17.194   2.408  0.00  0.00    +0.109 C 
ATOM     19  C   UNL     1       0.976 -19.020   0.927  0.00  0.00    +0.009 C 
ATOM     20  C   UNL     1       1.016 -19.675   5.882  0.00  0.00    +0.009 C 
ENDBRANCH   9  13
BRANCH   1  23
ATOM     21  C   UNL     1      -0.295  -8.420   2.599  0.00  0.00    +0.218 C 
ATOM     22  O   UNL     1      -0.957  -9.054   1.804  0.00  0.00    -0.275 OA
ATOM     23  N   UNL     1       0.552  -9.058   3.431  0.00  0.00    -0.285 N 
ATOM     24  H   UNL     1       1.025  -8.560   4.116  0.00  0.00    +0.155 HD
BRANCH  21  25
ATOM     25  C   UNL     1      -0.420  -6.919   2.655  0.00  0.00    +0.105 C 
BRANCH  25  26
ATOM     26  C   UNL     1      -1.439  -6.453   1.614  0.00  0.00    +0.105 C 
BRANCH  26  28
ATOM     27  N   UNL     1      -2.411  -4.315   0.837  0.00  0.00    -0.285 N 
ATOM     28  C   UNL     1      -1.564  -4.952   1.670  0.00  0.00    +0.218 C 
ATOM     29  O   UNL     1      -0.902  -4.318   2.464  0.00  0.00    -0.275 OA
ATOM     30  H   UNL     1      -2.994  -4.826   0.255  0.00  0.00    +0.155 HD
BRANCH  27  35
ATOM     31  C   UNL     1      -2.557   1.357   0.740  0.00  0.00    +0.047 C 
ATOM     32  C   UNL     1      -2.519  -0.149   0.766  0.00  0.00    -0.015 A 
ATOM     33  C   UNL     1      -1.329  -0.805   1.021  0.00  0.00    +0.008 A 
ATOM     34  C   UNL     1      -1.290  -2.185   1.045  0.00  0.00    +0.024 A 
ATOM     35  C   UNL     1      -2.448  -2.916   0.814  0.00  0.00    +0.036 A 
ATOM     36  C   UNL     1      -3.643  -2.257   0.558  0.00  0.00    +0.062 A 
ATOM     37  C   UNL     1      -3.677  -0.874   0.540  0.00  0.00    +0.128 A 
ATOM     38  F   UNL     1      -4.840  -0.230   0.296  0.00  0.00    -0.205 F 
ENDBRANCH  27  35
ENDBRANCH  26  28
ENDBRANCH  25  26
ENDBRANCH  21  25
ENDBRANCH   1  23
TORSDOF 6
