REMARK  Name = ZINC02521791
REMARK  4 active torsions:
REMARK  status: ('A' for Active; 'I' for Inactive)
REMARK    1  A    between atoms: C_6  and  N_7
REMARK    2  A    between atoms: C_8  and  C_10
REMARK    3  A    between atoms: N_12  and  N_13
REMARK    4  A    between atoms: C_14  and  C_15
REMARK                            x       y       z     vdW  Elec       q    Type
REMARK                         _______ _______ _______ _____ _____    ______ ____
ROOT
ATOM      1  C   UNL     1       2.446   1.020   0.104  0.00  0.00    +0.318 C 
ATOM      2  O   UNL     1       2.504  -0.190   0.185  0.00  0.00    -0.263 OA
ATOM      3  N   UNL     1       3.578   1.751   0.103  0.00  0.00    -0.199 N 
ATOM      4  H   UNL     1       3.531   2.718   0.038  0.00  0.00    +0.178 HD
ENDROOT
BRANCH   1   6
ATOM      5  N   UNL     1      -0.011   0.966   0.007  0.00  0.00    -0.278 N 
ATOM      6  C   UNL     1       1.121   1.697   0.006  0.00  0.00    +0.305 C 
ATOM      7  O   UNL     1       1.062   2.907  -0.075  0.00  0.00    -0.265 OA
ATOM      8  H   UNL     1       0.037  -0.003   0.004  0.00  0.00    +0.155 HD
BRANCH   5  14
ATOM      9  C   UNL     1      -2.324   1.043   0.694  0.00  0.00    +0.025 A 
ATOM     10  C   UNL     1      -3.551   1.678   0.697  0.00  0.00    +0.023 A 
ATOM     11  C   UNL     1      -3.719   2.865   0.007  0.00  0.00    +0.059 A 
ATOM     12  C   UNL     1      -2.656   3.424  -0.684  0.00  0.00    +0.061 A 
ATOM     13  C   UNL     1      -1.425   2.796  -0.685  0.00  0.00    +0.044 A 
ATOM     14  C   UNL     1      -1.255   1.603   0.007  0.00  0.00    +0.035 A 
ATOM     15 CL   UNL     1      -2.871   4.913  -1.549  0.00  0.00    -0.082 Cl
ATOM     16 CL   UNL     1      -5.264   3.657   0.007  0.00  0.00    -0.082 Cl
ENDBRANCH   5  14
ENDBRANCH   1   6
BRANCH   3  17
ATOM     17  N   UNL     1       4.822   1.115   0.195  0.00  0.00    -0.187 NA
ATOM     18  C   UNL     1       5.915   1.820   0.194  0.00  0.00    +0.145 C 
BRANCH  18  19
ATOM     19  C   UNL     1       7.222   1.152   0.291  0.00  0.00    +0.077 A 
ATOM     20  C   UNL     1       8.378   1.877   0.285  0.00  0.00    +0.209 A 
ATOM     21  O   UNL     1       9.581   1.309   0.377  0.00  0.00    -0.462 OA
ATOM     22  C   UNL     1       9.768  -0.022   0.470  0.00  0.00    +0.138 A 
ATOM     23  C   UNL     1      11.052  -0.550   0.557  0.00  0.00    +0.048 A 
ATOM     24  C   UNL     1      11.232  -1.913   0.653  0.00  0.00    +0.023 A 
ATOM     25  C   UNL     1      10.142  -2.774   0.665  0.00  0.00    +0.042 A 
ATOM     26  C   UNL     1       8.861  -2.272   0.581  0.00  0.00    +0.035 A 
ATOM     27  C   UNL     1       8.667  -0.894   0.483  0.00  0.00    +0.066 A 
ATOM     28  C   UNL     1       7.312  -0.317   0.390  0.00  0.00    +0.201 A 
ATOM     29  O   UNL     1       6.316  -1.019   0.396  0.00  0.00    -0.286 OA
ATOM     30 CL   UNL     1      10.394  -4.487   0.786  0.00  0.00    -0.084 Cl
ENDBRANCH  18  19
ENDBRANCH   3  17
TORSDOF 4
