REMARK  Name = ZINC07797599
REMARK  10 active torsions:
REMARK  status: ('A' for Active; 'I' for Inactive)
REMARK    1  A    between atoms: C_1  and  C_2
REMARK    2  A    between atoms: C_2  and  C_3
REMARK    3  A    between atoms: C_2  and  C_4
REMARK    4  A    between atoms: C_7  and  C_10
REMARK    5  A    between atoms: C_10  and  N_51
REMARK    6  A    between atoms: C_11  and  C_12
REMARK    7  A    between atoms: C_11  and  N_51
REMARK    8  A    between atoms: N_14  and  C_15
REMARK    9  A    between atoms: C_16  and  C_20
REMARK   10  A    between atoms: C_23  and  N_51
REMARK                            x       y       z     vdW  Elec       q    Type
REMARK                         _______ _______ _______ _____ _____    ______ ____
ROOT
ATOM      1  C   UNL     1      -2.304   3.676   7.002  0.00  0.00    +0.020 C 
ENDROOT
BRANCH   1   2
ATOM      2  C   UNL     1      -2.510   5.158   6.825  0.00  0.00    +0.201 C 
ATOM      3  O   UNL     1      -2.282   5.678   5.753  0.00  0.00    -0.278 OA
ATOM      4  N   UNL     1      -2.946   5.906   7.857  0.00  0.00    -0.281 N 
ATOM      5  H   UNL     1      -3.128   5.491   8.715  0.00  0.00    +0.155 HD
BRANCH   4   6
ATOM      6  C   UNL     1      -3.135   7.270   7.694  0.00  0.00    +0.084 A 
ATOM      7  C   UNL     1      -3.580   8.198   8.628  0.00  0.00    +0.065 A 
ATOM      8  C   UNL     1      -3.682   9.568   8.184  0.00  0.00    +0.022 A 
ATOM      9  C   UNL     1      -3.348   9.827   6.907  0.00  0.00    +0.048 A 
ATOM     10  S   UNL     1      -2.882   8.229   6.274  0.00  0.00    -0.081 S 
BRANCH   7  11
ATOM     11  C   UNL     1      -3.925   7.806   9.998  0.00  0.00    +0.244 C 
ATOM     12  O   UNL     1      -3.825   6.642  10.341  0.00  0.00    -0.270 OA
ATOM     13  N   UNL     1      -4.353   8.733  10.877  0.00  0.00    -0.325 N 
ATOM     14  H   UNL     1      -4.433   9.661  10.604  0.00  0.00    +0.145 HD
ATOM     15  H   UNL     1      -4.582   8.473  11.783  0.00  0.00    +0.145 HD
ENDBRANCH   7  11
ENDBRANCH   4   6
ENDBRANCH   1   2
BRANCH   1  16
ATOM     16  N   UNL     1      -1.707   3.129   5.766  0.00  0.00    +0.390 N 
ATOM     17  H   UNL     1      -0.986   3.778   5.429  0.00  0.00    -0.080 HD
BRANCH  16  18
ATOM     18  C   UNL     1      -1.082   1.819   6.043  0.00  0.00    -0.068 C 
ATOM     19  C   UNL     1      -1.352   1.162   7.399  0.00  0.00    -0.017 C 
ATOM     20  C   UNL     1       0.016   1.784   7.108  0.00  0.00    -0.017 C 
ENDBRANCH  16  18
BRANCH  16  21
ATOM     21  C   UNL     1      -2.746   2.983   4.725  0.00  0.00    -0.042 C 
BRANCH  21  25
ATOM     22  C   UNL     1      -0.858   2.003   1.021  0.00  0.00    -0.045 A 
ATOM     23  C   UNL     1      -1.046   3.326   1.371  0.00  0.00    +0.004 A 
ATOM     24  C   UNL     1      -1.661   3.644   2.568  0.00  0.00    +0.002 A 
ATOM     25  C   UNL     1      -2.079   2.637   3.418  0.00  0.00    -0.064 A 
ATOM     26  C   UNL     1      -1.886   1.313   3.070  0.00  0.00    +0.002 A 
ATOM     27  C   UNL     1      -1.275   0.996   1.871  0.00  0.00    +0.004 A 
BRANCH  22  29
ATOM     28  C   UNL     1       1.216   2.256  -0.315  0.00  0.00    +0.012 C 
ATOM     29  C   UNL     1      -0.191   1.657  -0.286  0.00  0.00    +0.013 C 
ATOM     30  C   UNL     1      -1.013   2.227  -1.444  0.00  0.00    +0.012 C 
ENDBRANCH  22  29
ENDBRANCH  21  25
ENDBRANCH  16  21
ENDBRANCH   1  16
TORSDOF 8
