REMARK  Name = ZINC00629348
REMARK  8 active torsions:
REMARK  status: ('A' for Active; 'I' for Inactive)
REMARK    1  A    between atoms: C_1  and  C_2
REMARK    2  A    between atoms: C_2  and  N_3
REMARK    3  A    between atoms: N_7  and  C_8
REMARK    4  A    between atoms: C_8  and  C_9
REMARK    5  A    between atoms: C_14  and  S_16
REMARK    6  A    between atoms: S_16  and  C_17
REMARK    7  A    between atoms: C_17  and  C_18
REMARK    8  A    between atoms: N_20  and  C_21
REMARK                            x       y       z     vdW  Elec       q    Type
REMARK                         _______ _______ _______ _____ _____    ______ ____
ROOT
ATOM      1  N   UNL     1       3.772   1.719  -1.566  0.00  0.00    -0.315 N 
ATOM      2  C   UNL     1       2.580   1.047  -1.638  0.00  0.00    +0.199 A 
ATOM      3  N   UNL     1       1.433   1.743  -1.932  0.00  0.00    -0.300 N 
ATOM      4  C   UNL     1       0.350   1.052  -2.474  0.00  0.00    +0.200 A 
ATOM      5  N   UNL     1      -0.512   1.601  -3.283  0.00  0.00    -0.315 N 
ATOM      6  N   UNL     1       0.277  -0.273  -2.081  0.00  0.00    -0.166 N 
ATOM      7  C   UNL     1       1.387  -0.911  -1.570  0.00  0.00    +0.259 A 
ATOM      8  N   UNL     1       2.559  -0.258  -1.423  0.00  0.00    -0.179 NA
ATOM      9  N   UNL     1       1.037  -2.143  -1.297  0.00  0.00    -0.183 NA
ATOM     10  C   UNL     1      -0.256  -2.322  -1.605  0.00  0.00    +0.211 A 
ATOM     11  N   UNL     1      -0.753  -1.199  -2.085  0.00  0.00    -0.134 NA
ATOM     12  H   UNL     1       3.803   2.804  -1.743  0.00  0.00    +0.149 HD
ATOM     13  H   UNL     1      -0.472   2.684  -3.475  0.00  0.00    +0.149 HD
ATOM     14  H   UNL     1       1.381   2.825  -1.740  0.00  0.00    +0.171 HD
ENDROOT
BRANCH   1  16
ATOM     15  C   UNL     1       6.182   1.969  -1.235  0.00  0.00    +0.024 C 
ATOM     16  C   UNL     1       5.005   0.992  -1.254  0.00  0.00    +0.101 C 
ENDBRANCH   1  16
BRANCH   5  17
ATOM     17  C   UNL     1      -1.534   0.778  -3.934  0.00  0.00    +0.101 C 
ATOM     18  C   UNL     1      -1.381   0.883  -5.453  0.00  0.00    +0.024 C 
ENDBRANCH   5  17
BRANCH  10  19
ATOM     19  S   UNL     1      -1.152  -3.826  -1.401  0.00  0.00    -0.075 S 
BRANCH  19  20
ATOM     20  C   UNL     1       0.070  -4.974  -0.709  0.00  0.00    +0.173 C 
BRANCH  20  21
ATOM     21  C   UNL     1      -0.574  -6.318  -0.483  0.00  0.00    +0.228 C 
ATOM     22  O   UNL     1      -1.743  -6.484  -0.762  0.00  0.00    -0.275 OA
ATOM     23  N   UNL     1       0.148  -7.334   0.028  0.00  0.00    -0.282 N 
ATOM     24  H   UNL     1       1.181  -7.161   0.363  0.00  0.00    +0.155 HD
BRANCH  23  25
ATOM     25  C   UNL     1      -0.417  -8.611   0.133  0.00  0.00    +0.070 A 
ATOM     26  C   UNL     1      -1.668  -8.773   0.714  0.00  0.00    +0.064 A 
ATOM     27  C   UNL     1      -2.225 -10.035   0.812  0.00  0.00    +0.022 A 
ATOM     28  C   UNL     1      -1.534 -11.136   0.341  0.00  0.00    +0.003 A 
ATOM     29  C   UNL     1      -0.286 -10.979  -0.233  0.00  0.00    +0.022 A 
ATOM     30  C   UNL     1       0.275  -9.720  -0.339  0.00  0.00    +0.064 A 
ATOM     31 CL   UNL     1       1.841  -9.524  -1.061  0.00  0.00    -0.082 Cl
ATOM     32 CL   UNL     1      -2.535  -7.393   1.312  0.00  0.00    -0.082 Cl
ENDBRANCH  23  25
ENDBRANCH  20  21
ENDBRANCH  19  20
ENDBRANCH  10  19
TORSDOF 6
