REMARK  Name = ZINC03168081
REMARK  7 active torsions:
REMARK  status: ('A' for Active; 'I' for Inactive)
REMARK    1  A    between atoms: C_3  and  N_30
REMARK    2  A    between atoms: C_6  and  C_7
REMARK    3  A    between atoms: N_9  and  C_10
REMARK    4  A    between atoms: C_12  and  C_26
REMARK    5  A    between atoms: C_14  and  N_16
REMARK    6  A    between atoms: C_17  and  C_19
REMARK    7  A    between atoms: C_22  and  N_25
REMARK                            x       y       z     vdW  Elec       q    Type
REMARK                         _______ _______ _______ _____ _____    ______ ____
ROOT
ATOM      1  C   UNL     1      -2.512   4.178   0.094  0.00  0.00    +0.036 A 
ATOM      2  C   UNL     1      -2.475   5.566   0.115  0.00  0.00    +0.035 A 
ATOM      3  C   UNL     1      -3.648   6.288   0.231  0.00  0.00    +0.058 A 
ATOM      4  C   UNL     1      -4.859   5.632   0.340  0.00  0.00    +0.035 A 
ATOM      5  C   UNL     1      -4.902   4.243   0.326  0.00  0.00    +0.036 A 
ATOM      6  C   UNL     1      -3.727   3.515   0.203  0.00  0.00    +0.046 A 
ENDROOT
BRANCH   1   9
ATOM      7  C   UNL     1      -0.308   3.936  -0.767  0.00  0.00    +0.248 C 
ATOM      8  O   UNL     1      -0.454   4.965  -1.398  0.00  0.00    -0.270 OA
ATOM      9  N   UNL     1      -1.325   3.448  -0.030  0.00  0.00    -0.281 N 
ATOM     10  H   UNL     1      -1.235   2.590   0.414  0.00  0.00    +0.155 HD
BRANCH   7  16
ATOM     11  C   UNL     1       1.153   2.042  -0.077  0.00  0.00    +0.015 A 
ATOM     12  C   UNL     1       2.360   1.382  -0.112  0.00  0.00    +0.023 A 
ATOM     13  C   UNL     1       3.410   1.888  -0.874  0.00  0.00    +0.025 A 
ATOM     14  C   UNL     1       3.243   3.063  -1.601  0.00  0.00    +0.023 A 
ATOM     15  C   UNL     1       2.039   3.728  -1.571  0.00  0.00    +0.015 A 
ATOM     16  C   UNL     1       0.982   3.223  -0.807  0.00  0.00    +0.037 A 
BRANCH  13  17
ATOM     17  N   UNL     1       4.628   1.218  -0.907  0.00  0.00    -0.358 N 
ATOM     18  H   UNL     1       5.361   1.570  -1.437  0.00  0.00    +0.142 HD
ATOM     19  H   UNL     1       4.746   0.400  -0.400  0.00  0.00    +0.142 HD
ENDBRANCH  13  17
ENDBRANCH   7  16
ENDBRANCH   1   9
BRANCH   5  20
ATOM     20  N   UNL     1      -6.128   3.580   0.434  0.00  0.00    -0.281 N 
ATOM     21  C   UNL     1      -6.207   2.417   1.111  0.00  0.00    +0.248 C 
ATOM     22  O   UNL     1      -5.199   1.901   1.554  0.00  0.00    -0.270 OA
ATOM     23  H   UNL     1      -6.921   3.956   0.023  0.00  0.00    +0.155 HD
BRANCH  21  24
ATOM     24  C   UNL     1      -7.516   1.769   1.313  0.00  0.00    +0.037 A 
ATOM     25  C   UNL     1      -8.677   2.363   0.809  0.00  0.00    +0.015 A 
ATOM     26  C   UNL     1      -9.897   1.753   0.995  0.00  0.00    +0.023 A 
ATOM     27  C   UNL     1      -9.977   0.552   1.694  0.00  0.00    +0.025 A 
ATOM     28  C   UNL     1      -8.823  -0.039   2.202  0.00  0.00    +0.023 A 
ATOM     29  C   UNL     1      -7.600   0.562   2.015  0.00  0.00    +0.015 A 
BRANCH  27  30
ATOM     30  N   UNL     1     -11.211  -0.058   1.886  0.00  0.00    -0.358 N 
ATOM     31  H   UNL     1     -11.268  -0.895   2.373  0.00  0.00    +0.142 HD
ATOM     32  H   UNL     1     -12.016   0.353   1.532  0.00  0.00    +0.142 HD
ENDBRANCH  27  30
ENDBRANCH  21  24
ENDBRANCH   5  20
BRANCH   3  33
ATOM     33  C   UNL     1      -3.605   7.794   0.247  0.00  0.00    +0.418 C 
ATOM     34  F   UNL     1      -3.465   8.243   1.564  0.00  0.00    -0.166 F 
ATOM     35  F   UNL     1      -2.518   8.238  -0.515  0.00  0.00    -0.166 F 
ATOM     36  F   UNL     1      -4.792   8.300  -0.294  0.00  0.00    -0.166 F 
ENDBRANCH   3  33
TORSDOF 7
