REMARK  Name = ZINC54649248
REMARK  3 active torsions:
REMARK  status: ('A' for Active; 'I' for Inactive)
REMARK    1  A    between atoms: N_15  and  C_16
REMARK    2  A    between atoms: C_16  and  C_17
REMARK    3  A    between atoms: N_19  and  C_20
REMARK                            x       y       z     vdW  Elec       q    Type
REMARK                         _______ _______ _______ _____ _____    ______ ____
ROOT
ATOM      1  C   UNL     1       2.356   1.442   0.019  0.00  0.00    +0.005 A 
ATOM      2  C   UNL     1       1.114   2.063   0.049  0.00  0.00    +0.018 A 
ATOM      3  C   UNL     1      -0.029   1.289   0.059  0.00  0.00    +0.084 A 
ATOM      4  N   UNL     1       0.046  -0.029   0.041  0.00  0.00    -0.350 N 
ATOM      5  C   UNL     1       1.211  -0.657   0.012  0.00  0.00    +0.099 A 
ATOM      6  C   UNL     1       2.403   0.060   0.000  0.00  0.00    +0.042 A 
ATOM      7  N   UNL     1       1.243  -2.047  -0.006  0.00  0.00    -0.314 N 
ATOM      8  C   UNL     1       2.518  -2.764  -0.154  0.00  0.00    +0.125 C 
ATOM      9  C   UNL     1       2.671  -3.738   1.020  0.00  0.00    +0.128 C 
ATOM     10  N   UNL     1       1.432  -4.517   1.149  0.00  0.00    -0.283 N 
ATOM     11  C   UNL     1       0.157  -3.801   1.297  0.00  0.00    +0.128 C 
ATOM     12  C   UNL     1       0.004  -2.826   0.129  0.00  0.00    +0.125 C 
ATOM     13  C   UNL     1       1.463  -5.864   1.132  0.00  0.00    +0.303 C 
ATOM     14  O   UNL     1       2.530  -6.447   1.106  0.00  0.00    -0.253 OA
ATOM     15  N   UNL     1       0.312  -6.566   1.142  0.00  0.00    -0.291 N 
ATOM     16  H   UNL     1      -0.538  -6.103   1.086  0.00  0.00    +0.151 HD
ATOM     17  H   UNL     1      -0.772  -0.549   0.049  0.00  0.00    +0.166 HD
ENDROOT
BRANCH  15  18
ATOM     18  C   UNL     1       0.346  -8.027   1.239  0.00  0.00    +0.202 C 
BRANCH  18  19
ATOM     19  C   UNL     1      -1.062  -8.563   1.231  0.00  0.00    +0.234 C 
ATOM     20  O   UNL     1      -2.002  -7.800   1.153  0.00  0.00    -0.274 OA
ATOM     21  N   UNL     1      -1.278  -9.891   1.311  0.00  0.00    -0.284 N 
ATOM     22  H   UNL     1      -0.528 -10.506   1.309  0.00  0.00    +0.155 HD
BRANCH  21  23
ATOM     23  C   UNL     1      -2.586 -10.384   1.398  0.00  0.00    +0.034 A 
ATOM     24  C   UNL     1      -2.856 -11.508   2.168  0.00  0.00    +0.025 A 
ATOM     25  C   UNL     1      -4.147 -11.992   2.252  0.00  0.00    +0.022 A 
ATOM     26  C   UNL     1      -5.170 -11.358   1.569  0.00  0.00    +0.041 A 
ATOM     27  C   UNL     1      -4.904 -10.238   0.801  0.00  0.00    +0.022 A 
ATOM     28  C   UNL     1      -3.616  -9.746   0.719  0.00  0.00    +0.025 A 
ATOM     29 CL   UNL     1      -6.792 -11.969   1.676  0.00  0.00    -0.084 Cl
ENDBRANCH  21  23
ENDBRANCH  18  19
ENDBRANCH  15  18
TORSDOF 3
