REMARK  Name = ZINC27921152
REMARK  6 active torsions:
REMARK  status: ('A' for Active; 'I' for Inactive)
REMARK    1  A    between atoms: C_3  and  C_9
REMARK    2  A    between atoms: C_6  and  C_7
REMARK    3  A    between atoms: C_7  and  N_8
REMARK    4  A    between atoms: N_11  and  C_12
REMARK    5  A    between atoms: N_15  and  C_17
REMARK    6  A    between atoms: C_17  and  C_18
REMARK                            x       y       z     vdW  Elec       q    Type
REMARK                         _______ _______ _______ _____ _____    ______ ____
ROOT
ATOM      1  C   UNL     1      -2.707   2.942   4.742  0.00  0.00    +0.248 C 
ATOM      2  O   UNL     1      -3.587   2.270   5.243  0.00  0.00    -0.270 OA
ATOM      3  N   UNL     1      -2.361   4.121   5.295  0.00  0.00    -0.279 N 
ATOM      4  H   UNL     1      -1.564   4.729   4.842  0.00  0.00    +0.155 HD
ENDROOT
BRANCH   1   7
ATOM      5  C   UNL     1      -0.357   2.780   1.817  0.00  0.00    +0.002 A 
ATOM      6  C   UNL     1      -1.003   3.234   2.948  0.00  0.00    +0.013 A 
ATOM      7  C   UNL     1      -2.015   2.465   3.526  0.00  0.00    +0.037 A 
ATOM      8  C   UNL     1      -2.370   1.244   2.950  0.00  0.00    +0.013 A 
ATOM      9  C   UNL     1      -1.720   0.805   1.816  0.00  0.00    +0.002 A 
ATOM     10  C   UNL     1      -0.718   1.572   1.248  0.00  0.00    -0.065 A 
BRANCH  10  11
ATOM     11  C   UNL     1      -0.013   1.086   0.008  0.00  0.00    -0.051 C 
BRANCH  11  12
ATOM     12  N   UNL     1      -0.723   1.572  -1.182  0.00  0.00    +0.381 N 
ATOM     13  H   UNL     1      -0.208   1.218  -2.087  0.00  0.00    -0.090 HD
ATOM     14  H   UNL     1      -0.738   2.672  -1.176  0.00  0.00    -0.090 HD
ATOM     15  H   UNL     1      -1.755   1.192  -1.174  0.00  0.00    -0.090 HD
ENDBRANCH  11  12
ENDBRANCH  10  11
ENDBRANCH   1   7
BRANCH   3  16
ATOM     16  C   UNL     1      -3.020   4.575   6.453  0.00  0.00    +0.072 A 
ATOM     17  C   UNL     1      -4.048   3.907   7.134  0.00  0.00    +0.157 A 
ATOM     18  N   UNL     1      -4.405   4.637   8.159  0.00  0.00    -0.177 NA
ATOM     19  N   UNL     1      -3.619   5.796   8.171  0.00  0.00    -0.265 N 
ATOM     20  C   UNL     1      -2.769   5.735   7.113  0.00  0.00    +0.132 A 
BRANCH  19  21
ATOM     21  C   UNL     1      -3.696   6.881   9.153  0.00  0.00    +0.178 C 
BRANCH  21  22
ATOM     22  C   UNL     1      -5.109   7.400   9.218  0.00  0.00    -0.026 A 
ATOM     23  C   UNL     1      -5.504   8.437   8.394  0.00  0.00    +0.006 A 
ATOM     24  C   UNL     1      -6.801   8.910   8.450  0.00  0.00    +0.015 A 
ATOM     25  C   UNL     1      -7.702   8.352   9.339  0.00  0.00    +0.018 A 
ATOM     26  C   UNL     1      -7.306   7.318  10.168  0.00  0.00    +0.015 A 
ATOM     27  C   UNL     1      -6.010   6.842  10.107  0.00  0.00    +0.006 A 
ATOM     28 BR   UNL     1      -9.476   9.004   9.421  0.00  0.00    -0.050 Br
ENDBRANCH  21  22
ENDBRANCH  19  21
ENDBRANCH   3  16
TORSDOF 6
