REMARK  Name = ZINC34749032
REMARK  10 active torsions:
REMARK  status: ('A' for Active; 'I' for Inactive)
REMARK    1  A    between atoms: C_1  and  C_2
REMARK    2  A    between atoms: C_2  and  C_3
REMARK    3  A    between atoms: C_4  and  C_34
REMARK    4  A    between atoms: N_10  and  C_23
REMARK    5  A    between atoms: N_16  and  C_19
REMARK    6  A    between atoms: C_19  and  C_20
REMARK    7  A    between atoms: C_20  and  C_22
REMARK    8  A    between atoms: C_23  and  C_24
REMARK    9  A    between atoms: N_26  and  C_27
REMARK   10  A    between atoms: C_32  and  C_33
REMARK                            x       y       z     vdW  Elec       q    Type
REMARK                         _______ _______ _______ _____ _____    ______ ____
ROOT
ATOM      1  C   UNL     1      -1.403  -0.645   0.062  0.00  0.00    -0.023 A 
ATOM      2  C   UNL     1      -2.056  -0.894   1.207  0.00  0.00    -0.007 A 
ATOM      3  S   UNL     1      -3.660  -1.446   0.657  0.00  0.00    -0.073 S 
ATOM      4  C   UNL     1      -3.406  -1.327  -1.095  0.00  0.00    +0.117 A 
ATOM      5  C   UNL     1      -2.085  -0.855  -1.204  0.00  0.00    +0.076 A 
ATOM      6  C   UNL     1      -1.603  -0.656  -2.536  0.00  0.00    +0.264 A 
ATOM      7  O   UNL     1      -0.468  -0.255  -2.728  0.00  0.00    -0.267 OA
ATOM      8  N   UNL     1      -2.418  -0.919  -3.573  0.00  0.00    -0.271 N 
ATOM      9  C   UNL     1      -3.690  -1.369  -3.378  0.00  0.00    +0.202 A 
ATOM     10  N   UNL     1      -4.157  -1.571  -2.163  0.00  0.00    -0.208 NA
ATOM     11  N   UNL     1      -4.492  -1.625  -4.462  0.00  0.00    -0.304 N 
ATOM     12  C   UNL     1      -5.274  -0.551  -5.095  0.00  0.00    +0.089 C 
ATOM     13  C   UNL     1      -6.725  -1.024  -5.233  0.00  0.00    -0.059 C 
ATOM     14  N   UNL     1      -6.756  -2.302  -5.954  0.00  0.00    +0.384 N 
ATOM     15  C   UNL     1      -6.077  -3.338  -5.165  0.00  0.00    -0.059 C 
ATOM     16  C   UNL     1      -4.589  -2.979  -5.028  0.00  0.00    +0.089 C 
ATOM     17  C   UNL     1      -1.554  -0.744   2.620  0.00  0.00    +0.052 C 
ATOM     18  H   UNL     1      -6.290  -2.198  -6.842  0.00  0.00    -0.081 HD
ENDROOT
BRANCH   1  20
ATOM     19  C   UNL     1       0.023   1.382   0.129  0.00  0.00    +0.009 C 
ATOM     20  C   UNL     1       0.019  -0.147   0.089  0.00  0.00    +0.033 C 
ENDBRANCH   1  20
BRANCH  14  21
ATOM     21  C   UNL     1      -8.152  -2.700  -6.182  0.00  0.00    -0.048 C 
BRANCH  21  22
ATOM     22  C   UNL     1      -8.187  -3.947  -7.027  0.00  0.00    -0.096 C 
ATOM     23  C   UNL     1      -8.274  -5.123  -6.456  0.00  0.00    +0.005 C 
ATOM     24  C   UNL     1      -8.124  -3.841  -8.529  0.00  0.00    +0.036 C 
ENDBRANCH  21  22
ENDBRANCH  14  21
BRANCH   8  25
ATOM     25  C   UNL     1      -1.930  -0.717  -4.940  0.00  0.00    +0.224 C 
BRANCH  25  26
ATOM     26  C   UNL     1      -1.185  -1.946  -5.394  0.00  0.00    +0.237 C 
ATOM     27  O   UNL     1      -1.074  -2.897  -4.650  0.00  0.00    -0.274 OA
ATOM     28  N   UNL     1      -0.644  -1.988  -6.627  0.00  0.00    -0.284 N 
ATOM     29  H   UNL     1      -0.676  -1.205  -7.199  0.00  0.00    +0.155 HD
BRANCH  28  30
ATOM     30  C   UNL     1      -0.035  -3.163  -7.084  0.00  0.00    +0.036 A 
ATOM     31  C   UNL     1       0.657  -3.978  -6.197  0.00  0.00    +0.023 A 
ATOM     32  C   UNL     1       1.257  -5.136  -6.651  0.00  0.00    +0.002 A 
ATOM     33  C   UNL     1       1.171  -5.484  -7.987  0.00  0.00    +0.000 A 
ATOM     34  C   UNL     1       0.484  -4.674  -8.872  0.00  0.00    +0.005 A 
ATOM     35  C   UNL     1      -0.124  -3.518  -8.423  0.00  0.00    -0.029 A 
ATOM     36  C   UNL     1      -0.879  -2.639  -9.387  0.00  0.00    +0.045 C 
ENDBRANCH  28  30
ENDBRANCH  25  26
ENDBRANCH   8  25
TORSDOF 6
