REMARK  Name = ZINC17289199
REMARK  5 active torsions:
REMARK  status: ('A' for Active; 'I' for Inactive)
REMARK    1  A    between atoms: C_1  and  C_2
REMARK    2  A    between atoms: C_2  and  N_3
REMARK    3  A    between atoms: C_7  and  N_14
REMARK    4  A    between atoms: N_14  and  S_15
REMARK    5  A    between atoms: S_15  and  C_18
REMARK                            x       y       z     vdW  Elec       q    Type
REMARK                         _______ _______ _______ _____ _____    ______ ____
ROOT
ATOM      1  N   UNL     1      -3.370   4.527  -1.520  0.00  0.00    -0.216 N 
ATOM      2  H   UNL     1      -3.464   5.427  -1.870  0.00  0.00    +0.174 HD
ENDROOT
BRANCH   1   7
ATOM      3  N   UNL     1      -4.343   0.143  -4.812  0.00  0.00    -0.271 N 
ATOM      4  C   UNL     1      -4.099   1.245  -3.982  0.00  0.00    +0.040 A 
ATOM      5  C   UNL     1      -4.613   1.273  -2.693  0.00  0.00    +0.025 A 
ATOM      6  C   UNL     1      -4.372   2.360  -1.877  0.00  0.00    +0.026 A 
ATOM      7  C   UNL     1      -3.614   3.426  -2.346  0.00  0.00    +0.048 A 
ATOM      8  C   UNL     1      -3.105   3.400  -3.638  0.00  0.00    +0.030 A 
ATOM      9  C   UNL     1      -3.342   2.310  -4.451  0.00  0.00    -0.024 A 
ATOM     10  C   UNL     1      -2.786   2.276  -5.851  0.00  0.00    +0.046 C 
ATOM     11  C   UNL     1      -2.426   0.837  -6.224  0.00  0.00    +0.101 C 
ATOM     12  C   UNL     1      -3.573  -0.080  -5.894  0.00  0.00    +0.220 C 
ATOM     13  O   UNL     1      -3.806  -1.030  -6.610  0.00  0.00    -0.275 OA
BRANCH   3  15
ATOM     14  C   UNL     1      -6.719  -0.292  -5.193  0.00  0.00    +0.025 C 
ATOM     15  C   UNL     1      -5.442  -0.774  -4.501  0.00  0.00    +0.110 C 
ENDBRANCH   3  15
ENDBRANCH   1   7
BRANCH   1  16
ATOM     16  S   UNL     1      -2.919   4.296   0.057  0.00  0.00    +0.072 S 
ATOM     17  O   UNL     1      -3.834   3.358   0.608  0.00  0.00    -0.150 OA
ATOM     18  O   UNL     1      -2.721   5.587   0.617  0.00  0.00    -0.150 OA
BRANCH  16  19
ATOM     19  C   UNL     1      -1.342   3.509   0.038  0.00  0.00    +0.109 A 
ATOM     20  C   UNL     1      -0.187   4.269   0.034  0.00  0.00    +0.029 A 
ATOM     21  C   UNL     1       1.043   3.645   0.018  0.00  0.00    +0.006 A 
ATOM     22  C   UNL     1       1.131   2.259   0.003  0.00  0.00    -0.044 A 
ATOM     23  C   UNL     1      -0.018   1.502   0.010  0.00  0.00    -0.042 A 
ATOM     24  C   UNL     1      -1.256   2.132   0.032  0.00  0.00    +0.032 A 
ATOM     25  C   UNL     1       0.002  -0.004   0.002  0.00  0.00    +0.035 C 
ATOM     26  C   UNL     1       1.368  -0.520  -0.446  0.00  0.00    +0.005 C 
ATOM     27  C   UNL     1       2.446   0.176   0.393  0.00  0.00    +0.005 C 
ATOM     28  C   UNL     1       2.507   1.644  -0.022  0.00  0.00    +0.035 C 
ENDBRANCH  16  19
ENDBRANCH   1  16
TORSDOF 4
