REMARK  Name = ZINC33121319
REMARK  10 active torsions:
REMARK  status: ('A' for Active; 'I' for Inactive)
REMARK    1  A    between atoms: C_1  and  C_2
REMARK    2  A    between atoms: C_5  and  S_9
REMARK    3  A    between atoms: S_9  and  N_12
REMARK    4  A    between atoms: N_12  and  C_13
REMARK    5  A    between atoms: C_16  and  N_26
REMARK    6  A    between atoms: C_17  and  C_19
REMARK    7  A    between atoms: N_21  and  C_22
REMARK    8  A    between atoms: C_22  and  C_23
REMARK    9  A    between atoms: C_23  and  C_24
REMARK   10  A    between atoms: C_23  and  C_25
REMARK                            x       y       z     vdW  Elec       q    Type
REMARK                         _______ _______ _______ _____ _____    ______ ____
ROOT
ATOM      1  C   UNL     1       1.194   2.382  -0.168  0.00  0.00    +0.049 A 
ATOM      2  C   UNL     1       2.391   1.932   0.381  0.00  0.00    +0.026 A 
ATOM      3  C   UNL     1       3.558   2.638   0.181  0.00  0.00    +0.026 A 
ATOM      4  C   UNL     1       3.545   3.812  -0.561  0.00  0.00    +0.042 A 
ATOM      5  C   UNL     1       2.341   4.275  -1.112  0.00  0.00    +0.059 A 
ATOM      6  C   UNL     1       1.164   3.550  -0.910  0.00  0.00    +0.039 A 
ENDROOT
BRANCH   4   7
ATOM      7  N   UNL     1       4.723   4.528  -0.756  0.00  0.00    -0.333 N 
ATOM      8  C   UNL     1       5.318   4.923   0.528  0.00  0.00    +0.086 C 
ATOM      9  C   UNL     1       6.564   5.773   0.270  0.00  0.00    -0.063 C 
ATOM     10  N   UNL     1       7.521   5.002  -0.536  0.00  0.00    +0.381 N 
ATOM     11  C   UNL     1       6.926   4.607  -1.820  0.00  0.00    -0.063 C 
ATOM     12  C   UNL     1       5.680   3.757  -1.562  0.00  0.00    +0.086 C 
ATOM     13  H   UNL     1       8.412   5.616  -0.733  0.00  0.00    -0.086 HD
ATOM     14  H   UNL     1       7.815   4.095   0.012  0.00  0.00    -0.086 HD
ENDBRANCH   4   7
BRANCH   5  15
ATOM     15  C   UNL     1       2.318   5.521  -1.901  0.00  0.00    +0.246 C 
ATOM     16  O   UNL     1       3.321   6.203  -1.990  0.00  0.00    -0.270 OA
ATOM     17  N   UNL     1       1.185   5.904  -2.522  0.00  0.00    -0.311 N 
ATOM     18  H   UNL     1       0.277   5.287  -2.441  0.00  0.00    +0.149 HD
BRANCH  17  19
ATOM     19  C   UNL     1       1.161   7.141  -3.305  0.00  0.00    +0.107 C 
BRANCH  19  20
ATOM     20  C   UNL     1      -0.234   7.342  -3.901  0.00  0.00    -0.000 C 
ATOM     21  C   UNL     1      -0.294   8.694  -4.614  0.00  0.00    +0.009 C 
ATOM     22  C   UNL     1      -0.527   6.223  -4.902  0.00  0.00    +0.009 C 
ENDBRANCH  19  20
ENDBRANCH  17  19
ENDBRANCH   5  15
BRANCH   1  23
ATOM     23  N   UNL     1       0.015   1.654   0.035  0.00  0.00    -0.216 N 
ATOM     24  H   UNL     1      -0.911   2.175   0.320  0.00  0.00    +0.174 HD
BRANCH  23  25
ATOM     25  S   UNL     1       0.015   0.009  -0.153  0.00  0.00    +0.072 S 
ATOM     26  O   UNL     1       1.095  -0.489   0.624  0.00  0.00    -0.150 OA
ATOM     27  O   UNL     1      -1.325  -0.422   0.041  0.00  0.00    -0.150 OA
BRANCH  25  32
ATOM     28  C   UNL     1       1.369  -1.127  -5.923  0.00  0.00    +0.045 C 
ATOM     29  C   UNL     1       1.031  -0.844  -4.482  0.00  0.00    -0.032 A 
ATOM     30  C   UNL     1      -0.275  -0.571  -4.119  0.00  0.00    +0.007 A 
ATOM     31  C   UNL     1      -0.586  -0.315  -2.797  0.00  0.00    +0.029 A 
ATOM     32  C   UNL     1       0.411  -0.323  -1.838  0.00  0.00    +0.110 A 
ATOM     33  C   UNL     1       1.716  -0.595  -2.200  0.00  0.00    +0.049 A 
ATOM     34  C   UNL     1       2.027  -0.856  -3.523  0.00  0.00    +0.046 A 
ATOM     35 CL   UNL     1       3.667  -1.198  -3.978  0.00  0.00    -0.083 Cl
ENDBRANCH  25  32
ENDBRANCH  23  25
ENDBRANCH   1  23
TORSDOF 7
