REMARK  Name = ZINC01387906
REMARK  8 active torsions:
REMARK  status: ('A' for Active; 'I' for Inactive)
REMARK    1  A    between atoms: C_1  and  N_2
REMARK    2  A    between atoms: C_4  and  C_21
REMARK    3  A    between atoms: C_6  and  C_7
REMARK    4  A    between atoms: N_9  and  N_10
REMARK    5  A    between atoms: C_11  and  C_12
REMARK    6  A    between atoms: C_12  and  O_13
REMARK    7  A    between atoms: O_13  and  C_14
REMARK    8  A    between atoms: C_21  and  C_23
REMARK                            x       y       z     vdW  Elec       q    Type
REMARK                         _______ _______ _______ _____ _____    ______ ____
ROOT
ATOM      1  C   UNL     1       3.629   7.467  -0.405  0.00  0.00    +0.277 C 
ATOM      2  O   UNL     1       2.905   6.501  -0.553  0.00  0.00    -0.267 OA
ATOM      3  N   UNL     1       4.968   7.316  -0.430  0.00  0.00    -0.230 N 
ATOM      4  H   UNL     1       5.545   8.094  -0.384  0.00  0.00    +0.173 HD
ENDROOT
BRANCH   1  10
ATOM      5  C   UNL     1       0.622   8.088  -0.100  0.00  0.00    +0.149 C 
ATOM      6  N   UNL     1       1.702   9.077  -0.063  0.00  0.00    -0.345 N 
ATOM      7  C   UNL     1       1.540  10.398   0.114  0.00  0.00    +0.097 A 
ATOM      8  C   UNL     1       2.787  10.997   0.084  0.00  0.00    +0.040 A 
ATOM      9  C   UNL     1       3.736   9.969  -0.116  0.00  0.00    +0.044 A 
ATOM     10  C   UNL     1       3.045   8.798  -0.199  0.00  0.00    +0.106 A 
BRANCH   8  11
ATOM     11  C   UNL     1       3.071  12.435   0.232  0.00  0.00    +0.196 C 
ATOM     12  O   UNL     1       2.170  13.209   0.494  0.00  0.00    -0.287 OA
BRANCH  11  13
ATOM     13  C   UNL     1       4.449  12.937   0.063  0.00  0.00    +0.041 A 
ATOM     14  C   UNL     1       5.207  13.298   1.181  0.00  0.00    +0.014 A 
ATOM     15  C   UNL     1       6.495  13.760   1.017  0.00  0.00    +0.021 A 
ATOM     16  C   UNL     1       7.036  13.878  -0.254  0.00  0.00    +0.042 A 
ATOM     17  C   UNL     1       6.290  13.528  -1.366  0.00  0.00    +0.040 A 
ATOM     18  C   UNL     1       5.000  13.059  -1.216  0.00  0.00    +0.053 A 
ATOM     19 CL   UNL     1       4.066  12.621  -2.611  0.00  0.00    -0.083 Cl
ATOM     20 CL   UNL     1       8.657  14.468  -0.451  0.00  0.00    -0.083 Cl
ENDBRANCH  11  13
ENDBRANCH   8  11
ENDBRANCH   1  10
BRANCH   3  21
ATOM     21  N   UNL     1       5.527   6.034  -0.521  0.00  0.00    -0.251 N 
ATOM     22  C   UNL     1       6.888   5.880  -0.546  0.00  0.00    +0.120 C 
ATOM     23  H   UNL     1       4.950   5.256  -0.567  0.00  0.00    +0.171 HD
ATOM     24  H   UNL     1       7.365   7.847  -0.420  0.00  0.00    +0.157 HD
ATOM     25  N   UNL     1       7.723   6.894  -0.488  0.00  0.00    -0.387 N 
ATOM     26  H   UNL     1       8.736   6.726  -0.510  0.00  0.00    +0.157 HD
BRANCH  22  27
ATOM     27  C   UNL     1       7.489   4.502  -0.645  0.00  0.00    +0.299 C 
BRANCH  27  28
ATOM     28  O   UNL     1       8.914   4.603  -0.654  0.00  0.00    -0.485 OA
BRANCH  28  29
ATOM     29  C   UNL     1       9.615   3.441  -0.739  0.00  0.00    +0.121 A 
ATOM     30  C   UNL     1      11.002   3.466  -0.752  0.00  0.00    +0.048 A 
ATOM     31  C   UNL     1      11.713   2.285  -0.839  0.00  0.00    +0.042 A 
ATOM     32  C   UNL     1      11.041   1.076  -0.911  0.00  0.00    +0.124 A 
ATOM     33  C   UNL     1       9.657   1.050  -0.898  0.00  0.00    +0.042 A 
ATOM     34  C   UNL     1       8.944   2.230  -0.812  0.00  0.00    +0.048 A 
ATOM     35  F   UNL     1      11.738  -0.078  -0.996  0.00  0.00    -0.205 F 
ENDBRANCH  28  29
ENDBRANCH  27  28
ENDBRANCH  22  27
ENDBRANCH   3  21
TORSDOF 7
