REMARK  Name = ZINC40450921
REMARK  8 active torsions:
REMARK  status: ('A' for Active; 'I' for Inactive)
REMARK    1  A    between atoms: C_1  and  C_2
REMARK    2  A    between atoms: C_2  and  C_4
REMARK    3  A    between atoms: C_8  and  N_10
REMARK    4  A    between atoms: C_11  and  C_13
REMARK    5  A    between atoms: C_13  and  C_14
REMARK    6  A    between atoms: C_14  and  S_15
REMARK    7  A    between atoms: S_15  and  C_18
REMARK    8  A    between atoms: C_28  and  C_30
REMARK                            x       y       z     vdW  Elec       q    Type
REMARK                         _______ _______ _______ _____ _____    ______ ____
ROOT
ATOM      1  S   UNL     1      -4.982  -8.770   0.485  0.00  0.00    -0.002 S 
ATOM      2  O   UNL     1      -4.533  -9.346  -0.734  0.00  0.00    -0.169 OA
ATOM      3  O   UNL     1      -4.409  -9.161   1.726  0.00  0.00    -0.169 OA
ENDROOT
BRANCH   1   4
ATOM      4  C   UNL     1      -6.677  -9.236   0.606  0.00  0.00    +0.104 A 
ATOM      5  C   UNL     1      -7.255  -9.990  -0.393  0.00  0.00    +0.051 A 
ATOM      6  C   UNL     1      -8.597 -10.364  -0.306  0.00  0.00    +0.041 A 
ATOM      7  C   UNL     1      -9.336  -9.967   0.797  0.00  0.00    -0.023 A 
ATOM      8  C   UNL     1      -8.754  -9.212   1.796  0.00  0.00    +0.022 A 
ATOM      9  C   UNL     1      -7.421  -8.850   1.706  0.00  0.00    +0.043 A 
ATOM     10 BR   UNL     1      -6.623  -7.823   3.079  0.00  0.00    -0.048 Br
ATOM     11  C   UNL     1     -10.744 -10.498   0.649  0.00  0.00    +0.056 C 
ATOM     12  C   UNL     1     -10.733 -11.258  -0.687  0.00  0.00    +0.118 C 
ATOM     13  N   UNL     1      -9.367 -11.118  -1.198  0.00  0.00    -0.271 N 
ATOM     14  C   UNL     1      -8.918 -11.639  -2.357  0.00  0.00    +0.223 C 
ATOM     15  O   UNL     1      -7.765 -11.467  -2.693  0.00  0.00    -0.275 OA
BRANCH  14  16
ATOM     16  C   UNL     1      -9.848 -12.435  -3.235  0.00  0.00    +0.076 C 
ATOM     17  C   UNL     1      -9.583 -13.937  -3.366  0.00  0.00    +0.013 C 
ATOM     18  C   UNL     1      -9.278 -13.001  -4.538  0.00  0.00    +0.013 C 
ENDBRANCH  14  16
ENDBRANCH   1   4
BRANCH   1  19
ATOM     19  C   UNL     1      -5.005  -6.961   0.350  0.00  0.00    +0.181 C 
BRANCH  19  20
ATOM     20  C   UNL     1      -3.570  -6.440   0.238  0.00  0.00    +0.119 C 
BRANCH  20  22
ATOM     21  N   UNL     1      -2.432  -4.255   0.015  0.00  0.00    -0.285 N 
ATOM     22  C   UNL     1      -3.589  -4.937   0.126  0.00  0.00    +0.219 C 
ATOM     23  O   UNL     1      -4.646  -4.342   0.134  0.00  0.00    -0.275 OA
ATOM     24  H   UNL     1      -1.593  -4.734  -0.068  0.00  0.00    +0.155 HD
BRANCH  21  29
ATOM     25  C   UNL     1      -3.387  -0.775   0.779  0.00  0.00    +0.019 A 
ATOM     26  C   UNL     1      -2.443  -0.077   0.019  0.00  0.00    +0.011 A 
ATOM     27  C   UNL     1      -1.512  -0.768  -0.728  0.00  0.00    +0.002 A 
ATOM     28  C   UNL     1      -1.508  -2.151  -0.729  0.00  0.00    +0.023 A 
ATOM     29  C   UNL     1      -2.442  -2.856   0.022  0.00  0.00    +0.034 A 
ATOM     30  C   UNL     1      -3.378  -2.173   0.782  0.00  0.00    +0.034 A 
BRANCH  25  32
ATOM     31  C   UNL     1      -4.389   1.465   1.573  0.00  0.00    +0.091 C 
ATOM     32  C   UNL     1      -4.382  -0.042   1.578  0.00  0.00    +0.160 C 
ATOM     33  O   UNL     1      -5.196  -0.650   2.240  0.00  0.00    -0.292 OA
ENDBRANCH  25  32
ENDBRANCH  21  29
ENDBRANCH  20  22
ENDBRANCH  19  20
ENDBRANCH   1  19
TORSDOF 7
