REMARK  Name = ZINC66394584
REMARK  4 active torsions:
REMARK  status: ('A' for Active; 'I' for Inactive)
REMARK    1  A    between atoms: C_1  and  N_2
REMARK    2  A    between atoms: N_2  and  C_3
REMARK    3  A    between atoms: C_3  and  C_4
REMARK    4  A    between atoms: N_16  and  C_18
REMARK                            x       y       z     vdW  Elec       q    Type
REMARK                         _______ _______ _______ _____ _____    ______ ____
ROOT
ATOM      1  C   UNL     1      -0.018   1.461   0.010  0.00  0.00    +0.134 C 
ATOM      2  N   UNL     1       0.002  -0.004   0.002  0.00  0.00    -0.284 N 
ATOM      3  C   UNL     1       0.000  -0.672  -1.169  0.00  0.00    +0.308 C 
ATOM      4  O   UNL     1       0.017  -1.887  -1.175  0.00  0.00    -0.252 OA
ATOM      5  N   UNL     1      -0.020   0.009  -2.332  0.00  0.00    -0.253 N 
ATOM      6  C   UNL     1      -0.022  -0.686  -3.550  0.00  0.00    +0.148 A 
ATOM      7  C   UNL     1      -0.010  -2.082  -3.701  0.00  0.00    +0.065 A 
ATOM      8  C   UNL     1      -0.017  -2.356  -5.026  0.00  0.00    +0.116 A 
ATOM      9  N   UNL     1      -0.033  -1.174  -5.693  0.00  0.00    -0.238 N 
ATOM     10  N   UNL     1      -0.042  -0.143  -4.744  0.00  0.00    -0.151 NA
ATOM     11  H   UNL     1      -0.033   0.978  -2.327  0.00  0.00    +0.158 HD
ENDROOT
BRANCH   9  12
ATOM     12  C   UNL     1      -0.044  -1.013  -7.085  0.00  0.00    +0.065 A 
ATOM     13  C   UNL     1      -0.045  -2.127  -7.914  0.00  0.00    +0.028 A 
ATOM     14  C   UNL     1      -0.056  -1.965  -9.286  0.00  0.00    +0.002 A 
ATOM     15  C   UNL     1      -0.066  -0.696  -9.834  0.00  0.00    +0.000 A 
ATOM     16  C   UNL     1      -0.065   0.416  -9.011  0.00  0.00    +0.002 A 
ATOM     17  C   UNL     1      -0.060   0.261  -7.638  0.00  0.00    +0.028 A 
ENDBRANCH   9  12
BRANCH   2  18
ATOM     18  C   UNL     1       0.024  -0.743   1.267  0.00  0.00    +0.144 C 
BRANCH  18  19
ATOM     19  C   UNL     1      -1.389  -1.016   1.714  0.00  0.00    -0.022 A 
ATOM     20  C   UNL     1      -2.057  -0.112   2.519  0.00  0.00    +0.028 A 
ATOM     21  C   UNL     1      -3.328  -0.389   2.903  0.00  0.00    +0.055 A 
ATOM     22  S   UNL     1      -3.616  -1.966   2.119  0.00  0.00    -0.090 S 
ATOM     23  C   UNL     1      -2.026  -2.148   1.328  0.00  0.00    +0.051 A 
ATOM     24 BR   UNL     1      -4.492   0.632   3.989  0.00  0.00    -0.043 Br
ENDBRANCH  18  19
ENDBRANCH   2  18
TORSDOF 3
