REMARK  Name = ZINC09046773
REMARK  6 active torsions:
REMARK  status: ('A' for Active; 'I' for Inactive)
REMARK    1  A    between atoms: C_1  and  C_2
REMARK    2  A    between atoms: C_2  and  C_31
REMARK    3  A    between atoms: C_6  and  N_24
REMARK    4  A    between atoms: C_12  and  N_16
REMARK    5  A    between atoms: N_16  and  C_17
REMARK    6  A    between atoms: C_17  and  C_18
REMARK                            x       y       z     vdW  Elec       q    Type
REMARK                         _______ _______ _______ _____ _____    ______ ____
ROOT
ATOM      1  C   UNL     1     -12.368  -1.949  -1.015  0.00  0.00    +0.041 C 
ATOM      2  C   UNL     1     -12.264  -1.058  -2.255  0.00  0.00    +0.068 C 
ATOM      3  C   UNL     1     -10.873  -0.422  -2.316  0.00  0.00    +0.070 C 
ATOM      4  C   UNL     1     -10.742   0.617  -1.235  0.00  0.00    -0.024 A 
ATOM      5  C   UNL     1     -11.826   1.135  -0.600  0.00  0.00    +0.020 A 
ATOM      6  C   UNL     1     -11.655   2.110   0.390  0.00  0.00    +0.105 A 
ATOM      7  C   UNL     1      -9.371   2.041   0.125  0.00  0.00    +0.089 A 
ATOM      8  C   UNL     1      -9.445   1.064  -0.882  0.00  0.00    +0.035 A 
ATOM      9  C   UNL     1      -8.157   0.622  -1.449  0.00  0.00    +0.093 A 
ATOM     10  C   UNL     1      -7.013   1.229  -0.914  0.00  0.00    +0.080 A 
ATOM     11  S   UNL     1      -7.632   2.355   0.306  0.00  0.00    -0.066 S 
ATOM     12  C   UNL     1      -5.747   0.890  -1.369  0.00  0.00    +0.136 A 
ATOM     13  N   UNL     1      -5.647  -0.024  -2.334  0.00  0.00    -0.220 NA
ATOM     14  C   UNL     1      -6.734  -0.589  -2.825  0.00  0.00    +0.224 A 
ATOM     15  N   UNL     1      -7.944  -0.294  -2.420  0.00  0.00    -0.234 NA
ATOM     16  C   UNL     1     -13.225   0.680  -0.929  0.00  0.00    +0.199 C 
ATOM     17  O   UNL     1     -13.237  -0.011  -2.179  0.00  0.00    -0.369 OA
ATOM     18  C   UNL     1     -12.505  -1.895  -3.512  0.00  0.00    +0.041 C 
ATOM     19  N   UNL     1     -10.434   2.581   0.770  0.00  0.00    -0.337 N 
ATOM     20  H   UNL     1     -10.326   3.297   1.498  0.00  0.00    +0.168 HD
ENDROOT
BRANCH   6  21
ATOM     21  N   UNL     1     -12.764   2.642   1.032  0.00  0.00    -0.316 N 
ATOM     22  C   UNL     1     -13.498   1.593   1.784  0.00  0.00    +0.106 C 
ATOM     23  C   UNL     1     -14.324   2.406   2.813  0.00  0.00    +0.020 C 
ATOM     24  C   UNL     1     -13.359   3.548   3.205  0.00  0.00    +0.020 C 
ATOM     25  C   UNL     1     -12.361   3.651   2.037  0.00  0.00    +0.106 C 
ENDBRANCH   6  21
BRANCH  12  26
ATOM     26  N   UNL     1      -4.617   1.492  -0.839  0.00  0.00    -0.326 N 
ATOM     27  H   UNL     1      -4.704   2.158  -0.140  0.00  0.00    +0.148 HD
BRANCH  26  28
ATOM     28  C   UNL     1      -3.289   1.120  -1.334  0.00  0.00    +0.134 C 
BRANCH  28  29
ATOM     29  C   UNL     1      -2.223   1.924  -0.587  0.00  0.00    +0.135 C 
ATOM     30  C   UNL     1      -0.833   1.634  -1.185  0.00  0.00    +0.035 C 
ATOM     31  C   UNL     1      -0.013   1.086   0.008  0.00  0.00    +0.031 C 
ATOM     32  C   UNL     1      -0.810   1.621   1.224  0.00  0.00    +0.160 C 
ATOM     33  O   UNL     1      -2.186   1.524   0.793  0.00  0.00    -0.375 OA
ENDBRANCH  28  29
ENDBRANCH  26  28
ENDBRANCH  12  26
TORSDOF 4
