REMARK  Name = ZINC34676616
REMARK  7 active torsions:
REMARK  status: ('A' for Active; 'I' for Inactive)
REMARK    1  A    between atoms: C_1  and  N_2
REMARK    2  A    between atoms: C_12  and  O_14
REMARK    3  A    between atoms: O_14  and  C_15
REMARK    4  A    between atoms: C_18  and  O_21
REMARK    5  A    between atoms: O_21  and  C_22
REMARK    6  A    between atoms: C_27  and  C_29
REMARK    7  A    between atoms: C_33  and  C_35
REMARK                            x       y       z     vdW  Elec       q    Type
REMARK                         _______ _______ _______ _____ _____    ______ ____
ROOT
ATOM      1  C   UNL     1      -0.592   1.323   0.390  0.00  0.00    -0.096 C 
ATOM      2  N   UNL     1      -0.468  -0.133   0.242  0.00  0.00    +0.380 N 
ATOM      3  C   UNL     1       0.308  -0.436  -0.968  0.00  0.00    -0.060 C 
ATOM      4  C   UNL     1       0.341  -1.952  -1.186  0.00  0.00    +0.089 C 
ATOM      5  N   UNL     1       0.852  -2.588   0.038  0.00  0.00    -0.303 N 
ATOM      6  C   UNL     1       0.237  -2.216   1.322  0.00  0.00    +0.089 C 
ATOM      7  C   UNL     1       0.208  -0.687   1.421  0.00  0.00    -0.060 C 
ATOM      8  C   UNL     1       1.882  -3.510  -0.016  0.00  0.00    +0.221 A 
ATOM      9  N   UNL     1       2.364  -4.007   1.112  0.00  0.00    -0.219 NA
ATOM     10  C   UNL     1       3.352  -4.899   1.106  0.00  0.00    +0.056 A 
ATOM     11  C   UNL     1       3.868  -5.308  -0.100  0.00  0.00    +0.053 A 
ATOM     12  C   UNL     1       3.345  -4.762  -1.275  0.00  0.00    +0.230 A 
ATOM     13  N   UNL     1       2.358  -3.879  -1.196  0.00  0.00    -0.179 NA
ATOM     14  C   UNL     1       4.966  -6.333  -0.206  0.00  0.00    +0.150 C 
ATOM     15  N   UNL     1       5.544  -6.572   1.122  0.00  0.00    -0.293 N 
ATOM     16  C   UNL     1       4.609  -6.727   2.249  0.00  0.00    +0.114 C 
ATOM     17  C   UNL     1       3.860  -5.407   2.428  0.00  0.00    +0.075 C 
ATOM     18  C   UNL     1       6.877  -6.647   1.303  0.00  0.00    +0.247 C 
ATOM     19  O   UNL     1       7.334  -6.746   2.425  0.00  0.00    -0.270 OA
ATOM     20  H   UNL     1      -1.387  -0.541   0.160  0.00  0.00    -0.082 HD
ENDROOT
BRANCH  18  21
ATOM     21  C   UNL     1       7.785  -6.609   0.136  0.00  0.00    +0.037 A 
ATOM     22  C   UNL     1       9.074  -6.090   0.268  0.00  0.00    +0.013 A 
ATOM     23  C   UNL     1       9.916  -6.058  -0.824  0.00  0.00    +0.001 A 
ATOM     24  C   UNL     1       9.485  -6.538  -2.049  0.00  0.00    +0.012 A 
ATOM     25  C   UNL     1       8.208  -7.053  -2.186  0.00  0.00    +0.056 A 
ATOM     26  C   UNL     1       7.358  -7.096  -1.100  0.00  0.00    +0.025 A 
BRANCH  25  27
ATOM     27  C   UNL     1       7.747  -7.572  -3.523  0.00  0.00    +0.417 C 
ATOM     28  F   UNL     1       8.776  -7.428  -4.460  0.00  0.00    -0.166 F 
ATOM     29  F   UNL     1       7.408  -8.924  -3.406  0.00  0.00    -0.166 F 
ATOM     30  F   UNL     1       6.628  -6.846  -3.945  0.00  0.00    -0.166 F 
ENDBRANCH  25  27
ENDBRANCH  18  21
BRANCH  12  31
ATOM     31  O   UNL     1       3.837  -5.134  -2.482  0.00  0.00    -0.438 OA
BRANCH  31  32
ATOM     32  C   UNL     1       3.379  -4.484  -3.585  0.00  0.00    +0.131 A 
ATOM     33  C   UNL     1       2.701  -3.281  -3.451  0.00  0.00    +0.050 A 
ATOM     34  C   UNL     1       2.237  -2.621  -4.571  0.00  0.00    +0.049 A 
ATOM     35  C   UNL     1       2.448  -3.161  -5.832  0.00  0.00    +0.120 A 
ATOM     36  C   UNL     1       3.125  -4.364  -5.966  0.00  0.00    +0.049 A 
ATOM     37  C   UNL     1       3.595  -5.021  -4.846  0.00  0.00    +0.050 A 
BRANCH  35  38
ATOM     38  O   UNL     1       1.990  -2.511  -6.935  0.00  0.00    -0.495 OA
ATOM     39  C   UNL     1       2.243  -3.124  -8.200  0.00  0.00    +0.277 C 
ENDBRANCH  35  38
ENDBRANCH  31  32
ENDBRANCH  12  31
TORSDOF 5
