REMARK  Name = ZINC60354753
REMARK  7 active torsions:
REMARK  status: ('A' for Active; 'I' for Inactive)
REMARK    1  A    between atoms: C_1  and  C_2
REMARK    2  A    between atoms: N_4  and  C_5
REMARK    3  A    between atoms: C_10  and  N_11
REMARK    4  A    between atoms: C_12  and  C_14
REMARK    5  A    between atoms: C_17  and  S_20
REMARK    6  A    between atoms: S_20  and  N_23
REMARK    7  A    between atoms: N_23  and  C_24
REMARK                            x       y       z     vdW  Elec       q    Type
REMARK                         _______ _______ _______ _____ _____    ______ ____
ROOT
ATOM      1  N   UNL     1       0.151  -2.220  -3.593  0.00  0.00    -0.280 N 
ATOM      2  C   UNL     1       0.133  -2.928  -4.739  0.00  0.00    +0.248 C 
ATOM      3  O   UNL     1       0.242  -4.139  -4.707  0.00  0.00    -0.270 OA
ATOM      4  H   UNL     1       0.146  -1.250  -3.622  0.00  0.00    +0.155 HD
ENDROOT
BRANCH   1  10
ATOM      5  C   UNL     1       0.709  -2.249  -1.236  0.00  0.00    +0.058 A 
ATOM      6  C   UNL     1       0.728  -2.907  -0.016  0.00  0.00    +0.066 A 
ATOM      7  C   UNL     1       0.228  -4.193   0.085  0.00  0.00    +0.160 A 
ATOM      8  C   UNL     1      -0.295  -4.826  -1.033  0.00  0.00    +0.160 A 
ATOM      9  C   UNL     1      -0.317  -4.174  -2.253  0.00  0.00    +0.066 A 
ATOM     10  C   UNL     1       0.178  -2.883  -2.359  0.00  0.00    +0.058 A 
ATOM     11  F   UNL     1      -0.782  -6.082  -0.931  0.00  0.00    -0.202 F 
ATOM     12  F   UNL     1       0.248  -4.833   1.274  0.00  0.00    -0.202 F 
BRANCH   5  16
ATOM     13  C   UNL     1       1.914   1.203  -0.334  0.00  0.00    +0.109 C 
ATOM     14  C   UNL     1       1.256  -0.150  -0.253  0.00  0.00    +0.214 C 
ATOM     15  O   UNL     1       0.762  -0.523   0.790  0.00  0.00    -0.276 OA
ATOM     16  N   UNL     1       1.216  -0.946  -1.340  0.00  0.00    -0.284 N 
ATOM     17  H   UNL     1       1.538  -0.618  -2.194  0.00  0.00    +0.155 HD
ENDBRANCH   5  16
ENDBRANCH   1  10
BRANCH   2  18
ATOM     18  C   UNL     1      -0.019  -2.234  -6.035  0.00  0.00    +0.037 A 
ATOM     19  C   UNL     1      -0.138  -0.844  -6.076  0.00  0.00    +0.015 A 
ATOM     20  C   UNL     1      -0.279  -0.202  -7.289  0.00  0.00    +0.029 A 
ATOM     21  C   UNL     1      -0.304  -0.933  -8.463  0.00  0.00    +0.110 A 
ATOM     22  C   UNL     1      -0.186  -2.312  -8.430  0.00  0.00    +0.029 A 
ATOM     23  C   UNL     1      -0.038  -2.965  -7.224  0.00  0.00    +0.015 A 
BRANCH  21  24
ATOM     24  S   UNL     1      -0.486  -0.106 -10.008  0.00  0.00    +0.092 S 
ATOM     25  O   UNL     1      -1.027  -1.056 -10.916  0.00  0.00    -0.148 OA
ATOM     26  O   UNL     1      -1.124   1.133  -9.732  0.00  0.00    -0.148 OA
BRANCH  24  27
ATOM     27  N   UNL     1       1.036   0.256 -10.552  0.00  0.00    -0.098 NA
BRANCH  27  28
ATOM     28  C   UNL     1       1.202   0.919 -11.764  0.00  0.00    +0.077 A 
ATOM     29  C   UNL     1       0.099   1.292 -12.533  0.00  0.00    +0.046 A 
ATOM     30  C   UNL     1       0.307   1.948 -13.728  0.00  0.00    +0.112 A 
ATOM     31  N   UNL     1       1.528   2.222 -14.146  0.00  0.00    -0.263 NA
ATOM     32  C   UNL     1       2.597   1.886 -13.448  0.00  0.00    +0.112 A 
ATOM     33  C   UNL     1       2.475   1.232 -12.240  0.00  0.00    +0.046 A 
ENDBRANCH  27  28
ENDBRANCH  24  27
ENDBRANCH  21  24
ENDBRANCH   2  18
TORSDOF 6
