REMARK  Name = ZINC20208090
REMARK  6 active torsions:
REMARK  status: ('A' for Active; 'I' for Inactive)
REMARK    1  A    between atoms: C_1  and  C_2
REMARK    2  A    between atoms: C_4  and  C_16
REMARK    3  A    between atoms: C_5  and  C_15
REMARK    4  A    between atoms: N_6  and  C_7
REMARK    5  A    between atoms: C_26  and  S_28
REMARK    6  A    between atoms: S_28  and  C_31
REMARK                            x       y       z     vdW  Elec       q    Type
REMARK                         _______ _______ _______ _____ _____    ______ ____
ROOT
ATOM      1  C   UNL     1       0.013  -3.317  -1.428  0.00  0.00    +0.026 C 
ATOM      2  C   UNL     1       0.524  -3.284  -2.709  0.00  0.00    +0.079 C 
ATOM      3  C   UNL     1       1.179  -2.066  -3.261  0.00  0.00    +0.132 C 
ATOM      4  N   UNL     1       1.871  -1.230  -2.532  0.00  0.00    -0.385 N 
ATOM      5  N   UNL     1       0.980  -1.902  -4.649  0.00  0.00    -0.152 N 
ATOM      6  C   UNL     1       0.685  -3.029  -5.386  0.00  0.00    +0.182 C 
ATOM      7  N   UNL     1       0.470  -4.241  -4.940  0.00  0.00    -0.152 NA
ATOM      8  C   UNL     1       0.455  -4.461  -3.608  0.00  0.00    +0.273 C 
ATOM      9  O   UNL     1       0.383  -5.592  -3.156  0.00  0.00    -0.268 OA
ATOM     10  S   UNL     1       0.657  -2.393  -7.041  0.00  0.00    -0.015 S 
ATOM     11  C   UNL     1       0.935  -0.674  -6.636  0.00  0.00    +0.235 C 
ATOM     12  N   UNL     1       1.065  -0.713  -5.341  0.00  0.00    -0.145 NA
ATOM     13  H   UNL     1       2.049  -1.432  -1.600  0.00  0.00    +0.157 HD
ATOM     14  H   UNL     1       2.206  -0.408  -2.923  0.00  0.00    +0.157 HD
ENDROOT
BRANCH   1  18
ATOM     15  C   UNL     1      -0.337   1.556  -0.142  0.00  0.00    +0.064 C 
ATOM     16  C   UNL     1      -0.224   0.054  -0.104  0.00  0.00    +0.022 A 
ATOM     17  C   UNL     1      -0.175  -0.750  -1.178  0.00  0.00    +0.031 A 
ATOM     18  C   UNL     1      -0.067  -2.123  -0.665  0.00  0.00    -0.003 A 
ATOM     19  C   UNL     1      -0.060  -2.013   0.716  0.00  0.00    +0.028 A 
ATOM     20  N   UNL     1      -0.149  -0.706   1.031  0.00  0.00    -0.317 N 
ATOM     21  C   UNL     1       0.035  -3.155   1.694  0.00  0.00    +0.064 C 
BRANCH  20  22
ATOM     22  C   UNL     1      -0.165  -0.197   2.337  0.00  0.00    +0.048 A 
ATOM     23  C   UNL     1       0.953  -0.330   3.149  0.00  0.00    +0.027 A 
ATOM     24  C   UNL     1       0.935   0.172   4.436  0.00  0.00    +0.023 A 
ATOM     25  C   UNL     1      -0.197   0.807   4.916  0.00  0.00    +0.059 A 
ATOM     26  C   UNL     1      -1.313   0.941   4.109  0.00  0.00    +0.061 A 
ATOM     27  C   UNL     1      -1.298   0.445   2.818  0.00  0.00    +0.047 A 
ATOM     28 CL   UNL     1      -2.732   1.738   4.715  0.00  0.00    -0.082 Cl
ATOM     29 CL   UNL     1      -0.216   1.437   6.534  0.00  0.00    -0.082 Cl
ENDBRANCH  20  22
ENDBRANCH   1  18
BRANCH  11  30
ATOM     30  S   UNL     1       1.014   0.718  -7.714  0.00  0.00    +0.019 S 
ATOM     31  O   UNL     1       0.140   0.396  -8.787  0.00  0.00    -0.168 OA
ATOM     32  O   UNL     1       0.755   1.838  -6.879  0.00  0.00    -0.168 OA
ATOM     33  C   UNL     1       2.731   0.757  -8.298  0.00  0.00    +0.202 C 
ENDBRANCH  11  30
TORSDOF 3
