REMARK  Name = ZINC00803937
REMARK  4 active torsions:
REMARK  status: ('A' for Active; 'I' for Inactive)
REMARK    1  A    between atoms: C_4  and  N_8
REMARK    2  A    between atoms: C_9  and  C_11
REMARK    3  A    between atoms: C_12  and  N_26
REMARK    4  A    between atoms: C_16  and  C_20
REMARK                            x       y       z     vdW  Elec       q    Type
REMARK                         _______ _______ _______ _____ _____    ______ ____
ROOT
ATOM      1  C   UNL     1       3.552   5.954  -0.210  0.00  0.00    +0.097 A 
ATOM      2  C   UNL     1       3.731   7.316  -0.322  0.00  0.00    +0.053 A 
ATOM      3  C   UNL     1       5.088   7.828  -0.425  0.00  0.00    +0.029 A 
ATOM      4  C   UNL     1       5.517   9.175  -0.544  0.00  0.00    +0.014 A 
ATOM      5  C   UNL     1       6.850   9.443  -0.633  0.00  0.00    +0.029 A 
ATOM      6  C   UNL     1       7.784   8.403  -0.608  0.00  0.00    +0.072 A 
ATOM      7  N   UNL     1       7.380   7.144  -0.497  0.00  0.00    -0.239 NA
ATOM      8  C   UNL     1       6.104   6.844  -0.408  0.00  0.00    +0.111 A 
ATOM      9  S   UNL     1       5.215   5.315  -0.252  0.00  0.00    -0.062 S 
ENDROOT
BRANCH   6  10
ATOM     10  C   UNL     1       9.232   8.708  -0.706  0.00  0.00    +0.003 A 
ATOM     11  C   UNL     1       9.682  10.026  -0.830  0.00  0.00    +0.030 A 
ATOM     12  C   UNL     1      11.038  10.265  -0.914  0.00  0.00    +0.111 A 
ATOM     13  N   UNL     1      11.904   9.271  -0.888  0.00  0.00    -0.263 NA
ATOM     14  C   UNL     1      11.522   8.013  -0.778  0.00  0.00    +0.111 A 
ATOM     15  C   UNL     1      10.185   7.685  -0.683  0.00  0.00    +0.030 A 
ENDBRANCH   6  10
BRANCH   1  17
ATOM     16  N   UNL     1       2.356   3.890  -0.001  0.00  0.00    -0.280 N 
ATOM     17  C   UNL     1       2.337   5.234  -0.095  0.00  0.00    +0.257 C 
ATOM     18  O   UNL     1       1.274   5.831  -0.082  0.00  0.00    -0.269 OA
ATOM     19  H   UNL     1       3.202   3.421   0.070  0.00  0.00    +0.155 HD
BRANCH  16  23
ATOM     20  C   UNL     1      -1.217   1.745  -0.014  0.00  0.00    +0.021 A 
ATOM     21  C   UNL     1      -0.092   1.207   0.583  0.00  0.00    +0.023 A 
ATOM     22  C   UNL     1       1.095   1.915   0.588  0.00  0.00    +0.062 A 
ATOM     23  C   UNL     1       1.156   3.171  -0.004  0.00  0.00    +0.054 A 
ATOM     24  C   UNL     1       0.023   3.711  -0.598  0.00  0.00    +0.044 A 
ATOM     25  C   UNL     1      -1.161   2.998  -0.600  0.00  0.00    +0.043 A 
ATOM     26 CL   UNL     1      -2.578   3.672  -1.343  0.00  0.00    -0.083 Cl
ATOM     27 CL   UNL     1       2.508   1.236   1.333  0.00  0.00    -0.082 Cl
ENDBRANCH  16  23
ENDBRANCH   1  17
BRANCH   2  28
ATOM     28  N   UNL     1       2.642   8.178  -0.333  0.00  0.00    -0.356 N 
ATOM     29  H   UNL     1       1.742   7.823  -0.262  0.00  0.00    +0.142 HD
ATOM     30  H   UNL     1       2.782   9.134  -0.413  0.00  0.00    +0.142 HD
ENDBRANCH   2  28
TORSDOF 4
