REMARK  Name = ZINC58008497
REMARK  7 active torsions:
REMARK  status: ('A' for Active; 'I' for Inactive)
REMARK    1  A    between atoms: C_3  and  C_11
REMARK    2  A    between atoms: C_5  and  C_7
REMARK    3  A    between atoms: C_11  and  C_13
REMARK    4  A    between atoms: C_11  and  N_20
REMARK    5  A    between atoms: C_13  and  N_14
REMARK    6  A    between atoms: N_20  and  C_21
REMARK    7  A    between atoms: C_21  and  C_22
REMARK                            x       y       z     vdW  Elec       q    Type
REMARK                         _______ _______ _______ _____ _____    ______ ____
ROOT
ATOM      1  C   UNL     1       3.898   2.117  -0.135  0.00  0.00    +0.102 C 
ENDROOT
BRANCH   1   4
ATOM      2  C   UNL     1       0.207   1.450  -0.564  0.00  0.00    +0.001 A 
ATOM      3  C   UNL     1       1.413   2.113  -0.436  0.00  0.00    +0.005 A 
ATOM      4  C   UNL     1       2.583   1.394  -0.274  0.00  0.00    -0.028 A 
ATOM      5  C   UNL     1       2.546   0.013  -0.240  0.00  0.00    +0.017 A 
ATOM      6  C   UNL     1       1.340  -0.650  -0.368  0.00  0.00    +0.055 A 
ATOM      7  C   UNL     1       0.171   0.068  -0.531  0.00  0.00    +0.012 A 
BRANCH   6   8
ATOM      8  C   UNL     1       1.301  -2.156  -0.332  0.00  0.00    +0.417 C 
ATOM      9  F   UNL     1       1.131  -2.587   0.988  0.00  0.00    -0.166 F 
ATOM     10  F   UNL     1       0.234  -2.613  -1.113  0.00  0.00    -0.166 F 
ATOM     11  F   UNL     1       2.501  -2.667  -0.838  0.00  0.00    -0.166 F 
ENDBRANCH   6   8
ENDBRANCH   1   4
BRANCH   1  12
ATOM     12  N   UNL     1       3.930   3.258  -1.060  0.00  0.00    -0.304 NA
ATOM     13  H   UNL     1       3.388   3.066  -1.889  0.00  0.00    +0.123 HD
BRANCH  12  14
ATOM     14  C   UNL     1       5.312   3.616  -1.405  0.00  0.00    +0.120 C 
BRANCH  14  15
ATOM     15  C   UNL     1       5.303   4.737  -2.413  0.00  0.00    +0.003 A 
ATOM     16  C   UNL     1       5.279   4.467  -3.772  0.00  0.00    +0.120 A 
ATOM     17  N   UNL     1       5.271   5.473  -4.630  0.00  0.00    -0.222 NA
ATOM     18  C   UNL     1       5.287   6.728  -4.203  0.00  0.00    +0.218 A 
ATOM     19  N   UNL     1       5.312   7.020  -2.911  0.00  0.00    -0.222 NA
ATOM     20  C   UNL     1       5.314   6.060  -2.001  0.00  0.00    +0.120 A 
ATOM     21  N   UNL     1       5.279   7.757  -5.128  0.00  0.00    -0.300 N 
ATOM     22  C   UNL     1       5.247   7.595  -6.590  0.00  0.00    +0.108 C 
ATOM     23  C   UNL     1       5.276   9.009  -7.208  0.00  0.00    +0.020 C 
ATOM     24  C   UNL     1       5.894   9.871  -6.075  0.00  0.00    +0.020 C 
ATOM     25  C   UNL     1       5.295   9.197  -4.812  0.00  0.00    +0.108 C 
ENDBRANCH  14  15
ENDBRANCH  12  14
ENDBRANCH   1  12
BRANCH   1  26
ATOM     26  C   UNL     1       4.053   2.621   1.302  0.00  0.00    +0.131 C 
BRANCH  26  27
ATOM     27  N   UNL     1       4.144   1.477   2.213  0.00  0.00    -0.300 N 
ATOM     28  C   UNL     1       3.004   0.904   2.938  0.00  0.00    +0.108 C 
ATOM     29  C   UNL     1       3.470  -0.494   3.401  0.00  0.00    +0.028 C 
ATOM     30  C   UNL     1       5.004  -0.310   3.462  0.00  0.00    +0.097 C 
ATOM     31  C   UNL     1       5.280   0.815   2.488  0.00  0.00    +0.216 C 
ATOM     32  O   UNL     1       6.369   1.081   2.026  0.00  0.00    -0.276 OA
ENDBRANCH  26  27
ENDBRANCH   1  26
TORSDOF 7
