REMARK  Name = ZINC60216300
REMARK  10 active torsions:
REMARK  status: ('A' for Active; 'I' for Inactive)
REMARK    1  A    between atoms: C_1  and  C_2
REMARK    2  A    between atoms: C_3  and  C_8
REMARK    3  A    between atoms: C_4  and  C_7
REMARK    4  A    between atoms: C_8  and  S_9
REMARK    5  A    between atoms: S_9  and  C_10
REMARK    6  A    between atoms: C_15  and  C_16
REMARK    7  A    between atoms: N_18  and  C_19
REMARK    8  A    between atoms: C_23  and  C_25
REMARK    9  A    between atoms: C_25  and  S_26
REMARK   10  A    between atoms: S_26  and  C_29
REMARK                            x       y       z     vdW  Elec       q    Type
REMARK                         _______ _______ _______ _____ _____    ______ ____
ROOT
ATOM      1  C   UNL     1       1.516   0.414  -4.818  0.00  0.00    +0.020 A 
ATOM      2  C   UNL     1       0.248   0.578  -5.364  0.00  0.00    +0.015 A 
ATOM      3  C   UNL     1       0.107   1.002  -6.669  0.00  0.00    +0.001 A 
ATOM      4  C   UNL     1       1.225   1.267  -7.446  0.00  0.00    +0.001 A 
ATOM      5  C   UNL     1       2.490   1.110  -6.923  0.00  0.00    +0.014 A 
ATOM      6  C   UNL     1       2.650   0.687  -5.600  0.00  0.00    +0.050 A 
ENDROOT
BRANCH   6   7
ATOM      7  C   UNL     1       3.999   0.522  -5.033  0.00  0.00    +0.249 C 
ATOM      8  O   UNL     1       4.134   0.149  -3.883  0.00  0.00    -0.270 OA
ATOM      9  N   UNL     1       5.085   0.785  -5.787  0.00  0.00    -0.281 N 
ATOM     10  H   UNL     1       4.980   1.018  -6.723  0.00  0.00    +0.155 HD
BRANCH   9  11
ATOM     11  C   UNL     1       6.362   0.723  -5.221  0.00  0.00    +0.034 A 
ATOM     12  C   UNL     1       6.647  -0.226  -4.248  0.00  0.00    +0.023 A 
ATOM     13  C   UNL     1       7.909  -0.285  -3.692  0.00  0.00    +0.002 A 
ATOM     14  C   UNL     1       8.889   0.600  -4.102  0.00  0.00    +0.005 A 
ATOM     15  C   UNL     1       8.609   1.546  -5.070  0.00  0.00    -0.025 A 
ATOM     16  C   UNL     1       7.350   1.607  -5.635  0.00  0.00    +0.028 A 
BRANCH  15  17
ATOM     17  C   UNL     1       9.680   2.509  -5.514  0.00  0.00    +0.200 C 
BRANCH  17  18
ATOM     18  S   UNL     1      10.595   1.795  -6.908  0.00  0.00    -0.030 S 
ATOM     19  O   UNL     1      11.287   0.641  -6.448  0.00  0.00    -0.174 OA
ATOM     20  O   UNL     1       9.710   1.675  -8.013  0.00  0.00    -0.174 OA
ATOM     21  C   UNL     1      11.816   3.082  -7.288  0.00  0.00    +0.194 C 
ENDBRANCH  17  18
ENDBRANCH  15  17
ENDBRANCH   9  11
ENDBRANCH   6   7
BRANCH   1  22
ATOM     22  S   UNL     1       1.699  -0.127  -3.151  0.00  0.00    -0.120 S 
BRANCH  22  23
ATOM     23  C   UNL     1      -0.006  -0.343  -2.570  0.00  0.00    +0.114 C 
BRANCH  23  26
ATOM     24  C   UNL     1      -0.027   1.523   0.000  0.00  0.00    +0.069 C 
ATOM     25  C   UNL     1      -0.002   0.016   0.001  0.00  0.00    +0.085 A 
ATOM     26  C   UNL     1       0.007  -0.810  -1.137  0.00  0.00    +0.027 A 
ATOM     27  C   UNL     1       0.030  -2.092  -0.724  0.00  0.00    +0.138 A 
ATOM     28  O   UNL     1       0.035  -2.095   0.618  0.00  0.00    -0.359 OA
ATOM     29  N   UNL     1       0.020  -0.748   1.056  0.00  0.00    -0.083 NA
ATOM     30  C   UNL     1       0.046  -3.309  -1.612  0.00  0.00    +0.089 C 
ENDBRANCH  23  26
ENDBRANCH  22  23
ENDBRANCH   1  22
TORSDOF 7
