REMARK  Name = ZINC59773250
REMARK  6 active torsions:
REMARK  status: ('A' for Active; 'I' for Inactive)
REMARK    1  A    between atoms: C_3  and  S_21
REMARK    2  A    between atoms: C_6  and  N_7
REMARK    3  A    between atoms: C_8  and  C_10
REMARK    4  A    between atoms: N_12  and  C_13
REMARK    5  A    between atoms: S_21  and  N_24
REMARK    6  A    between atoms: N_24  and  C_25
REMARK                            x       y       z     vdW  Elec       q    Type
REMARK                         _______ _______ _______ _____ _____    ______ ____
ROOT
ATOM      1  N   UNL     1      -1.228  -0.612   0.169  0.00  0.00    -0.278 N 
ATOM      2  C   UNL     1      -2.341  -0.096  -0.389  0.00  0.00    +0.303 C 
ATOM      3  O   UNL     1      -2.289   0.964  -0.979  0.00  0.00    -0.265 OA
ATOM      4  H   UNL     1      -1.252  -1.493   0.573  0.00  0.00    +0.155 HD
ENDROOT
BRANCH   1  10
ATOM      5  C   UNL     1      -0.078   1.508   0.264  0.00  0.00    +0.025 A 
ATOM      6  C   UNL     1       1.099   2.232   0.260  0.00  0.00    +0.031 A 
ATOM      7  C   UNL     1       2.313   1.579   0.158  0.00  0.00    +0.111 A 
ATOM      8  C   UNL     1       2.355   0.200   0.060  0.00  0.00    +0.031 A 
ATOM      9  C   UNL     1       1.182  -0.529   0.062  0.00  0.00    +0.025 A 
ATOM     10  C   UNL     1      -0.040   0.123   0.165  0.00  0.00    +0.034 A 
BRANCH   7  11
ATOM     11  S   UNL     1       3.812   2.506   0.154  0.00  0.00    +0.093 S 
ATOM     12  O   UNL     1       4.785   1.702  -0.500  0.00  0.00    -0.148 OA
ATOM     13  O   UNL     1       3.479   3.813  -0.292  0.00  0.00    -0.148 OA
BRANCH  11  14
ATOM     14  N   UNL     1       4.301   2.653   1.729  0.00  0.00    -0.070 NA
BRANCH  14  15
ATOM     15  C   UNL     1       5.465   3.343   2.032  0.00  0.00    +0.201 A 
ATOM     16  N   UNL     1       6.296   3.945   1.208  0.00  0.00    -0.231 NA
ATOM     17  C   UNL     1       7.373   4.565   1.659  0.00  0.00    +0.120 A 
ATOM     18  C   UNL     1       7.576   4.551   2.998  0.00  0.00    +0.068 A 
ATOM     19  S   UNL     1       6.154   3.620   3.542  0.00  0.00    -0.058 S 
ENDBRANCH  14  15
ENDBRANCH  11  14
ENDBRANCH   7  11
ENDBRANCH   1  10
BRANCH   2  20
ATOM     20  C   UNL     1      -3.638  -0.827  -0.282  0.00  0.00    +0.304 C 
ATOM     21  O   UNL     1      -3.690  -1.887   0.308  0.00  0.00    -0.265 OA
ATOM     22  N   UNL     1      -4.751  -0.311  -0.840  0.00  0.00    -0.275 N 
ATOM     23  H   UNL     1      -4.695   0.494  -1.377  0.00  0.00    +0.155 HD
BRANCH  22  24
ATOM     24  C   UNL     1      -5.986  -0.938  -0.645  0.00  0.00    +0.070 A 
ATOM     25  C   UNL     1      -6.165  -1.806   0.424  0.00  0.00    +0.029 A 
ATOM     26  C   UNL     1      -7.385  -2.424   0.615  0.00  0.00    +0.040 A 
ATOM     27  C   UNL     1      -8.432  -2.179  -0.258  0.00  0.00    +0.126 A 
ATOM     28  C   UNL     1      -8.258  -1.315  -1.325  0.00  0.00    +0.078 A 
ATOM     29  C   UNL     1      -7.040  -0.689  -1.518  0.00  0.00    +0.147 A 
ATOM     30  F   UNL     1      -6.872   0.160  -2.555  0.00  0.00    -0.203 F 
ATOM     31  F   UNL     1      -9.624  -2.785  -0.068  0.00  0.00    -0.205 F 
ENDBRANCH  22  24
ENDBRANCH   2  20
TORSDOF 6
