REMARK  Name = ZINC33808415
REMARK  6 active torsions:
REMARK  status: ('A' for Active; 'I' for Inactive)
REMARK    1  A    between atoms: C_1  and  C_2
REMARK    2  A    between atoms: C_2  and  N_3
REMARK    3  A    between atoms: C_9  and  C_11
REMARK    4  A    between atoms: C_14  and  C_31
REMARK    5  A    between atoms: C_15  and  C_16
REMARK    6  A    between atoms: C_15  and  C_17
REMARK                            x       y       z     vdW  Elec       q    Type
REMARK                         _______ _______ _______ _____ _____    ______ ____
ROOT
ATOM      1  C   UNL     1       0.002  -0.004   0.002  0.00  0.00    +0.097 C 
ATOM      2  C   UNL     1       0.539  -0.390   1.417  0.00  0.00    +0.024 C 
ATOM      3  C   UNL     1       2.028   0.074   1.401  0.00  0.00    +0.015 C 
ATOM      4  C   UNL     1       2.197   0.708  -0.017  0.00  0.00    +0.018 C 
ATOM      5  C   UNL     1       1.289  -0.256  -0.866  0.00  0.00    -0.005 C 
ATOM      6  C   UNL     1       1.761  -1.709  -0.799  0.00  0.00    +0.013 C 
ATOM      7  C   UNL     1       1.120   0.224  -2.309  0.00  0.00    +0.013 C 
ATOM      8  C   UNL     1       1.315   1.959   0.000  0.00  0.00    +0.071 A 
ATOM      9  C   UNL     1      -0.019   1.527   0.010  0.00  0.00    +0.079 A 
ATOM     10  N   UNL     1      -1.003   2.388   0.020  0.00  0.00    -0.247 NA
ATOM     11  C   UNL     1      -0.732   3.699   0.028  0.00  0.00    +0.093 A 
ATOM     12  C   UNL     1      -1.766   4.651   0.039  0.00  0.00    +0.079 A 
ATOM     13  C   UNL     1      -1.466   5.981   0.047  0.00  0.00    +0.168 A 
ATOM     14  C   UNL     1      -0.127   6.415   0.045  0.00  0.00    +0.168 A 
ATOM     15  C   UNL     1       0.897   5.514   0.033  0.00  0.00    +0.079 A 
ATOM     16  C   UNL     1       0.618   4.137   0.022  0.00  0.00    +0.093 A 
ATOM     17  N   UNL     1       1.607   3.234   0.006  0.00  0.00    -0.248 NA
ATOM     18  O   UNL     1      -0.117   7.781   0.058  0.00  0.00    -0.453 OA
ATOM     19  C   UNL     1      -1.438   8.179  -0.351  0.00  0.00    +0.466 C 
ATOM     20  O   UNL     1      -2.275   7.081   0.058  0.00  0.00    -0.453 OA
ATOM     21  C   UNL     1       3.634   0.899  -0.504  0.00  0.00    +0.018 C 
ENDROOT
BRANCH   1  28
ATOM     22  N   UNL     1      -4.845   0.653   0.951  0.00  0.00    -0.300 NA
ATOM     23  C   UNL     1      -4.755  -0.085  -0.316  0.00  0.00    +0.103 C 
ATOM     24  C   UNL     1      -3.658  -1.149  -0.207  0.00  0.00    +0.123 C 
ATOM     25  N   UNL     1      -2.413  -0.494   0.222  0.00  0.00    -0.298 N 
ATOM     26  C   UNL     1      -2.454   0.369   1.412  0.00  0.00    +0.123 C 
ATOM     27  C   UNL     1      -3.600   1.378   1.236  0.00  0.00    +0.103 C 
ATOM     28  C   UNL     1      -1.262  -0.685  -0.455  0.00  0.00    +0.228 C 
ATOM     29  O   UNL     1      -1.245  -1.404  -1.431  0.00  0.00    -0.275 OA
BRANCH  22  31
ATOM     30  C   UNL     1      -5.918   2.488   2.166  0.00  0.00    +0.020 C 
ATOM     31  C   UNL     1      -5.997   1.565   0.949  0.00  0.00    +0.081 C 
ENDBRANCH  22  31
ENDBRANCH   1  28
TORSDOF 2
