REMARK  Name = ZINC38990235
REMARK  10 active torsions:
REMARK  status: ('A' for Active; 'I' for Inactive)
REMARK    1  A    between atoms: C_1  and  C_2
REMARK    2  A    between atoms: C_2  and  O_3
REMARK    3  A    between atoms: O_3  and  C_4
REMARK    4  A    between atoms: C_7  and  N_10
REMARK    5  A    between atoms: C_11  and  C_13
REMARK    6  A    between atoms: C_13  and  S_14
REMARK    7  A    between atoms: S_14  and  C_15
REMARK    8  A    between atoms: C_19  and  C_23
REMARK    9  A    between atoms: N_21  and  N_22
REMARK   10  A    between atoms: C_26  and  C_29
REMARK                            x       y       z     vdW  Elec       q    Type
REMARK                         _______ _______ _______ _____ _____    ______ ____
ROOT
ATOM      1  C   UNL     1       2.369 -10.096  -4.916  0.00  0.00    +0.214 C 
ATOM      2  N   UNL     1       3.070 -10.706  -3.764  0.00  0.00    -0.228 NA
ATOM      3  N   UNL     1       2.002 -10.996  -2.794  0.00  0.00    -0.234 NA
ATOM      4  C   UNL     1       0.875 -11.436  -3.658  0.00  0.00    +0.185 C 
ATOM      5  N   UNL     1       0.968 -10.562  -4.852  0.00  0.00    -0.197 NA
ATOM      6  H   UNL     1       3.749 -10.069  -3.374  0.00  0.00    +0.143 HD
ATOM      7  H   UNL     1       1.755 -10.169  -2.271  0.00  0.00    +0.143 HD
ENDROOT
BRANCH   4   8
ATOM      8  C   UNL     1      -0.461 -11.229  -2.942  0.00  0.00    +0.187 C 
ATOM      9  C   UNL     1      -0.496 -12.005  -1.637  0.00  0.00    +0.034 C 
ATOM     10  C   UNL     1      -1.516 -12.869  -1.803  0.00  0.00    +0.091 C 
ATOM     11  N   UNL     1      -2.083 -12.705  -3.027  0.00  0.00    -0.154 NA
ATOM     12  N   UNL     1      -1.564 -11.820  -3.718  0.00  0.00    -0.176 NA
BRANCH  10  13
ATOM     13  C   UNL     1      -1.958 -13.861  -0.792  0.00  0.00    +0.002 A 
ATOM     14  C   UNL     1      -1.307 -13.942   0.438  0.00  0.00    +0.011 A 
ATOM     15  C   UNL     1      -1.722 -14.866   1.375  0.00  0.00    +0.020 A 
ATOM     16  C   UNL     1      -2.782 -15.712   1.095  0.00  0.00    +0.041 A 
ATOM     17  C   UNL     1      -3.431 -15.635  -0.125  0.00  0.00    +0.020 A 
ATOM     18  C   UNL     1      -3.028 -14.710  -1.066  0.00  0.00    +0.011 A 
ATOM     19 CL   UNL     1      -3.298 -16.873   2.278  0.00  0.00    -0.084 Cl
ENDBRANCH  10  13
ENDBRANCH   4   8
BRANCH   5  20
ATOM     20  N   UNL     1       0.604 -11.287  -6.059  0.00  0.00    -0.264 NA
ATOM     21  H   UNL     1       0.701 -10.701  -6.875  0.00  0.00    +0.137 HD
ATOM     22  H   UNL     1       1.149 -12.130  -6.152  0.00  0.00    +0.137 HD
ENDBRANCH   5  20
BRANCH   1  23
ATOM     23  S   UNL     1       2.429  -8.287  -4.794  0.00  0.00    -0.115 S 
BRANCH  23  24
ATOM     24  C   UNL     1       1.651  -7.929  -3.195  0.00  0.00    +0.168 C 
BRANCH  24  26
ATOM     25  N   UNL     1       1.102  -5.938  -1.834  0.00  0.00    -0.285 N 
ATOM     26  C   UNL     1       1.635  -6.440  -2.966  0.00  0.00    +0.227 C 
ATOM     27  O   UNL     1       2.103  -5.694  -3.799  0.00  0.00    -0.275 OA
ATOM     28  H   UNL     1       0.797  -6.536  -1.135  0.00  0.00    +0.155 HD
BRANCH  25  32
ATOM     29  C   UNL     1       0.759  -1.811  -1.344  0.00  0.00    +0.121 A 
ATOM     30  C   UNL     1       0.629  -2.373  -2.606  0.00  0.00    +0.047 A 
ATOM     31  C   UNL     1       0.743  -3.739  -2.769  0.00  0.00    +0.027 A 
ATOM     32  C   UNL     1       0.987  -4.551  -1.670  0.00  0.00    +0.034 A 
ATOM     33  C   UNL     1       1.117  -3.989  -0.407  0.00  0.00    +0.027 A 
ATOM     34  C   UNL     1       1.009  -2.622  -0.246  0.00  0.00    +0.047 A 
BRANCH  29  35
ATOM     35  O   UNL     1       0.648  -0.466  -1.184  0.00  0.00    -0.492 OA
BRANCH  35  37
ATOM     36  C   UNL     1       0.297   1.788  -1.982  0.00  0.00    +0.048 C 
ATOM     37  C   UNL     1       0.390   0.308  -2.357  0.00  0.00    +0.225 C 
ENDBRANCH  35  37
ENDBRANCH  29  35
ENDBRANCH  25  32
ENDBRANCH  24  26
ENDBRANCH  23  24
ENDBRANCH   1  23
TORSDOF 9
