REMARK  Name = ZINC20444909
REMARK  6 active torsions:
REMARK  status: ('A' for Active; 'I' for Inactive)
REMARK    1  A    between atoms: C_1  and  C_2
REMARK    2  A    between atoms: C_3  and  C_18
REMARK    3  A    between atoms: C_4  and  O_8
REMARK    4  A    between atoms: N_5  and  C_7
REMARK    5  A    between atoms: O_8  and  C_9
REMARK    6  A    between atoms: C_15  and  C_17
REMARK                            x       y       z     vdW  Elec       q    Type
REMARK                         _______ _______ _______ _____ _____    ______ ____
ROOT
ATOM      1  C   UNL     1      -1.361   0.839   1.246  0.00  0.00    +0.068 C 
ATOM      2  C   UNL     1      -0.065   0.741   0.485  0.00  0.00    +0.074 A 
ATOM      3  C   UNL     1       1.236   0.820   1.043  0.00  0.00    +0.098 A 
ATOM      4  C   UNL     1       2.138   0.683  -0.012  0.00  0.00    +0.224 A 
ATOM      5  N   UNL     1       1.413   0.530  -1.136  0.00  0.00    -0.235 N 
ATOM      6  N   UNL     1       0.056   0.570  -0.800  0.00  0.00    -0.173 NA
ATOM      7  C   UNL     1       1.956   0.351  -2.485  0.00  0.00    +0.176 C 
ENDROOT
BRANCH   3   8
ATOM      8  C   UNL     1       1.559   1.004   2.411  0.00  0.00    +0.265 C 
ATOM      9  O   UNL     1       2.720   1.054   2.759  0.00  0.00    -0.295 OA
ENDBRANCH   3   8
BRANCH   4  10
ATOM     10  O   UNL     1       3.488   0.699   0.077  0.00  0.00    -0.472 OA
BRANCH  10  11
ATOM     11  C   UNL     1       4.126   1.977   0.023  0.00  0.00    +0.178 C 
ATOM     12  C   UNL     1       4.288   2.405  -1.437  0.00  0.00    +0.045 C 
ATOM     13  C   UNL     1       5.144   1.376  -2.178  0.00  0.00    +0.004 C 
ATOM     14  C   UNL     1       6.521   1.286  -1.516  0.00  0.00    +0.000 C 
ATOM     15  C   UNL     1       6.358   0.859  -0.056  0.00  0.00    +0.007 C 
ATOM     16  C   UNL     1       5.502   1.888   0.685  0.00  0.00    +0.027 C 
ATOM     17  C   UNL     1       5.340   1.460   2.145  0.00  0.00    +0.011 C 
ENDBRANCH  10  11
ENDBRANCH   4  10
TORSDOF 3
