REMARK  Name = ZINC16039080
REMARK  4 active torsions:
REMARK  status: ('A' for Active; 'I' for Inactive)
REMARK    1  A    between atoms: C_1  and  O_2
REMARK    2  A    between atoms: O_2  and  C_3
REMARK    3  A    between atoms: C_3  and  C_5
REMARK    4  A    between atoms: C_7  and  C_31
REMARK                            x       y       z     vdW  Elec       q    Type
REMARK                         _______ _______ _______ _____ _____    ______ ____
ROOT
ATOM      1  C   UNL     1       3.535   3.342  -0.447  0.00  0.00    +0.192 C 
ATOM      2  C   UNL     1       4.484   4.548  -0.706  0.00  0.00    +0.074 C 
ATOM      3  C   UNL     1       3.538   5.730  -1.004  0.00  0.00    +0.127 C 
ATOM      4  C   UNL     1       2.139   5.132  -0.971  0.00  0.00    +0.119 C 
ATOM      5  N   UNL     1       2.278   3.981  -0.038  0.00  0.00    -0.308 N 
ATOM      6  C   UNL     1       1.122   3.239  -0.043  0.00  0.00    +0.038 A 
ATOM      7  C   UNL     1       1.098   1.858  -0.080  0.00  0.00    +0.024 A 
ATOM      8  C   UNL     1      -0.113   1.190  -0.094  0.00  0.00    +0.002 A 
ATOM      9  C   UNL     1      -1.305   1.894  -0.078  0.00  0.00    +0.001 A 
ATOM     10  C   UNL     1      -1.301   3.275  -0.034  0.00  0.00    +0.010 A 
ATOM     11  C   UNL     1      -0.093   3.959  -0.017  0.00  0.00    -0.004 A 
ATOM     12  C   UNL     1      -0.039   5.439   0.030  0.00  0.00    +0.007 C 
ATOM     13  C   UNL     1       1.068   6.037  -0.444  0.00  0.00    -0.003 C 
ATOM     14  C   UNL     1       3.707   6.817   0.023  0.00  0.00    +0.180 C 
ATOM     15  O   UNL     1       3.543   6.713   1.220  0.00  0.00    -0.291 OA
ATOM     16  C   UNL     1       4.106   8.025  -0.702  0.00  0.00    +0.029 A 
ATOM     17  C   UNL     1       4.382   9.303  -0.205  0.00  0.00    +0.012 A 
ATOM     18  C   UNL     1       4.742  10.275  -1.129  0.00  0.00    +0.001 A 
ATOM     19  C   UNL     1       4.827  10.006  -2.481  0.00  0.00    +0.001 A 
ATOM     20  C   UNL     1       4.558   8.746  -3.000  0.00  0.00    +0.012 A 
ATOM     21  C   UNL     1       4.193   7.748  -2.091  0.00  0.00    +0.029 A 
ATOM     22  C   UNL     1       3.856   6.345  -2.341  0.00  0.00    +0.180 C 
ATOM     23  O   UNL     1       3.837   5.787  -3.417  0.00  0.00    -0.291 OA
ENDROOT
BRANCH   2  24
ATOM     24  C   UNL     1       5.373   4.271  -1.890  0.00  0.00    -0.040 A 
ATOM     25  C   UNL     1       4.819   3.882  -3.095  0.00  0.00    +0.005 A 
ATOM     26  C   UNL     1       5.635   3.632  -4.183  0.00  0.00    +0.015 A 
ATOM     27  C   UNL     1       7.006   3.763  -4.063  0.00  0.00    +0.018 A 
ATOM     28  C   UNL     1       7.561   4.147  -2.856  0.00  0.00    +0.015 A 
ATOM     29  C   UNL     1       6.745   4.401  -1.770  0.00  0.00    +0.005 A 
ATOM     30 BR   UNL     1       8.123   3.415  -5.549  0.00  0.00    -0.050 Br
ENDBRANCH   2  24
BRANCH   1  31
ATOM     31  C   UNL     1       3.336   2.539  -1.707  0.00  0.00    +0.328 C 
ATOM     32  O   UNL     1       2.376   2.746  -2.410  0.00  0.00    -0.249 OA
BRANCH  31  34
ATOM     33  C   UNL     1       3.971   0.858  -3.272  0.00  0.00    +0.280 C 
ATOM     34  O   UNL     1       4.226   1.593  -2.046  0.00  0.00    -0.467 OA
ENDBRANCH  31  34
ENDBRANCH   1  31
TORSDOF 3
