REMARK  Name = ZINC20624191
REMARK  9 active torsions:
REMARK  status: ('A' for Active; 'I' for Inactive)
REMARK    1  A    between atoms: C_1  and  C_2
REMARK    2  A    between atoms: N_5  and  C_8
REMARK    3  A    between atoms: C_8  and  C_9
REMARK    4  A    between atoms: C_18  and  C_32
REMARK    5  A    between atoms: C_21  and  C_23
REMARK    6  A    between atoms: C_23  and  C_24
REMARK    7  A    between atoms: C_23  and  C_25
REMARK    8  A    between atoms: C_28  and  C_30
REMARK    9  A    between atoms: C_28  and  C_31
REMARK                            x       y       z     vdW  Elec       q    Type
REMARK                         _______ _______ _______ _____ _____    ______ ____
ROOT
ATOM      1  C   UNL     1       3.321   3.664   1.538  0.00  0.00    +0.199 C 
ATOM      2  O   UNL     1       2.235   4.190   1.656  0.00  0.00    -0.278 OA
ATOM      3  N   UNL     1       4.443   4.401   1.659  0.00  0.00    -0.300 N 
ATOM      4  C   UNL     1       5.771   3.782   1.526  0.00  0.00    +0.126 C 
ATOM      5  C   UNL     1       6.584   4.599   0.509  0.00  0.00    +0.125 C 
ATOM      6  N   UNL     1       6.595   6.010   0.919  0.00  0.00    -0.311 N 
ATOM      7  C   UNL     1       5.241   6.579   0.908  0.00  0.00    +0.125 C 
ATOM      8  C   UNL     1       4.373   5.844   1.935  0.00  0.00    +0.126 C 
ATOM      9  C   UNL     1       7.451   6.751   0.123  0.00  0.00    +0.139 A 
ATOM     10  C   UNL     1       8.788   6.936   0.516  0.00  0.00    +0.095 A 
ATOM     11  C   UNL     1       9.633   7.687  -0.309  0.00  0.00    -0.017 A 
ATOM     12  C   UNL     1       9.121   8.217  -1.475  0.00  0.00    +0.004 A 
ATOM     13  C   UNL     1       7.790   7.994  -1.793  0.00  0.00    +0.052 A 
ATOM     14  N   UNL     1       7.010   7.279  -1.008  0.00  0.00    -0.235 NA
ATOM     15  C   UNL     1       9.976   9.030  -2.410  0.00  0.00    +0.198 C 
ATOM     16  O   UNL     1      11.169   9.450  -1.746  0.00  0.00    -0.369 OA
ATOM     17  C   UNL     1      11.876   8.375  -1.119  0.00  0.00    +0.068 C 
ATOM     18  C   UNL     1      11.067   7.902   0.092  0.00  0.00    +0.071 C 
ATOM     19  C   UNL     1      13.251   8.863  -0.659  0.00  0.00    +0.041 C 
ATOM     20  C   UNL     1      12.045   7.219  -2.107  0.00  0.00    +0.041 C 
ENDROOT
BRANCH  13  21
ATOM     21  C   UNL     1       7.227   8.574  -3.064  0.00  0.00    +0.032 C 
ATOM     22  C   UNL     1       6.715   7.443  -3.958  0.00  0.00    +0.014 C 
ATOM     23  C   UNL     1       6.072   9.519  -2.726  0.00  0.00    +0.014 C 
ENDBRANCH  13  21
BRANCH  10  24
ATOM     24  C   UNL     1       9.276   6.367   1.736  0.00  0.00    +0.103 C 
ATOM     25  N   UNL     1       9.664   5.915   2.704  0.00  0.00    -0.191 NA
ENDBRANCH  10  24
BRANCH   1  26
ATOM     26  C   UNL     1       3.417   2.187   1.255  0.00  0.00    +0.019 C 
BRANCH  26  31
ATOM     27  C   UNL     1      -1.550  -0.388   0.084  0.00  0.00    +0.007 C 
ATOM     28  C   UNL     1      -0.109   0.121  -0.001  0.00  0.00    -0.018 C 
ATOM     29  C   UNL     1      -0.105   1.652   0.034  0.00  0.00    -0.016 C 
ATOM     30  C   UNL     1       1.341   2.153   0.010  0.00  0.00    -0.078 C 
ATOM     31  N   UNL     1       2.066   1.617   1.169  0.00  0.00    +0.385 N 
ATOM     32  C   UNL     1       2.115   0.150   1.132  0.00  0.00    -0.078 C 
ATOM     33  C   UNL     1       0.693  -0.412   1.189  0.00  0.00    -0.016 C 
ATOM     34  H   UNL     1       1.515   1.911   2.075  0.00  0.00    -0.081 HD
ENDBRANCH  26  31
ENDBRANCH   1  26
TORSDOF 4
