REMARK  Name = ZINC62640092
REMARK  10 active torsions:
REMARK  status: ('A' for Active; 'I' for Inactive)
REMARK    1  A    between atoms: C_1  and  C_2
REMARK    2  A    between atoms: C_4  and  C_12
REMARK    3  A    between atoms: C_5  and  N_11
REMARK    4  A    between atoms: C_6  and  N_8
REMARK    5  A    between atoms: N_14  and  C_15
REMARK    6  A    between atoms: C_15  and  C_16
REMARK    7  A    between atoms: C_16  and  C_18
REMARK    8  A    between atoms: C_16  and  N_26
REMARK    9  A    between atoms: C_23  and  O_24
REMARK   10  A    between atoms: O_24  and  C_25
REMARK                            x       y       z     vdW  Elec       q    Type
REMARK                         _______ _______ _______ _____ _____    ______ ____
ROOT
ATOM      1  C   UNL     1       1.335  -4.629  -4.326  0.00  0.00    +0.246 C 
ATOM      2  O   UNL     1       0.390  -4.779  -3.576  0.00  0.00    -0.270 OA
ATOM      3  N   UNL     1       1.341  -3.609  -5.207  0.00  0.00    -0.313 N 
ATOM      4  H   UNL     1       2.095  -3.490  -5.806  0.00  0.00    +0.149 HD
ENDROOT
BRANCH   1   8
ATOM      5  C   UNL     1       5.697  -6.219  -6.144  0.00  0.00    +0.044 C 
ATOM      6  C   UNL     1       4.576  -6.335  -5.143  0.00  0.00    -0.047 A 
ATOM      7  C   UNL     1       3.514  -5.458  -5.199  0.00  0.00    +0.018 A 
ATOM      8  C   UNL     1       2.474  -5.564  -4.272  0.00  0.00    +0.060 A 
ATOM      9  C   UNL     1       2.520  -6.565  -3.290  0.00  0.00    +0.067 A 
ATOM     10  C   UNL     1       3.599  -7.439  -3.249  0.00  0.00    +0.148 A 
ATOM     11  C   UNL     1       4.616  -7.325  -4.175  0.00  0.00    +0.038 A 
BRANCH  10  12
ATOM     12  N   UNL     1       3.655  -8.498  -2.216  0.00  0.00    +0.058 N 
ATOM     13  O   UNL     1       4.641  -9.191  -2.113  0.00  0.00    -0.126 OA
ATOM     14  O   UNL     1       2.716  -8.669  -1.475  0.00  0.00    -0.126 OA
ENDBRANCH  10  12
BRANCH   9  15
ATOM     15  N   UNL     1       1.493  -6.681  -2.362  0.00  0.00    -0.356 N 
ATOM     16  H   UNL     1       0.580  -6.481  -2.622  0.00  0.00    +0.142 HD
ATOM     17  H   UNL     1       1.689  -6.962  -1.454  0.00  0.00    +0.142 HD
ENDBRANCH   9  15
ENDBRANCH   1   8
BRANCH   3  18
ATOM     18  C   UNL     1       0.210  -2.681  -5.260  0.00  0.00    +0.094 C 
BRANCH  18  19
ATOM     19  C   UNL     1       0.521  -1.553  -6.247  0.00  0.00    -0.017 C 
BRANCH  19  20
ATOM     20  N   UNL     1       1.798  -0.924  -5.884  0.00  0.00    +0.385 N 
ATOM     21  C   UNL     1       1.742  -0.478  -4.486  0.00  0.00    -0.078 C 
ATOM     22  C   UNL     1       3.096   0.105  -4.078  0.00  0.00    -0.019 C 
ATOM     23  C   UNL     1       3.426   1.296  -4.982  0.00  0.00    -0.004 C 
ATOM     24  C   UNL     1       3.408   0.837  -6.443  0.00  0.00    -0.019 C 
ATOM     25  C   UNL     1       2.042   0.226  -6.763  0.00  0.00    -0.078 C 
ATOM     26  H   UNL     1       2.545  -1.593  -5.992  0.00  0.00    -0.081 HD
ENDBRANCH  19  20
BRANCH  19  27
ATOM     27  C   UNL     1       0.618  -2.118  -7.641  0.00  0.00    -0.018 A 
ATOM     28  C   UNL     1       1.849  -2.473  -8.159  0.00  0.00    +0.005 A 
ATOM     29  C   UNL     1       1.938  -2.990  -9.438  0.00  0.00    +0.000 A 
ATOM     30  C   UNL     1       0.797  -3.155 -10.201  0.00  0.00    +0.004 A 
ATOM     31  C   UNL     1      -0.435  -2.802  -9.687  0.00  0.00    +0.046 A 
ATOM     32  C   UNL     1      -0.529  -2.288  -8.402  0.00  0.00    +0.122 A 
BRANCH  32  33
ATOM     33  O   UNL     1      -1.741  -1.945  -7.893  0.00  0.00    -0.495 OA
ATOM     34  C   UNL     1      -2.879  -2.147  -8.733  0.00  0.00    +0.277 C 
ENDBRANCH  32  33
ENDBRANCH  19  27
ENDBRANCH  18  19
ENDBRANCH   3  18
TORSDOF 8
