REMARK  Name = ZINC51848138
REMARK  4 active torsions:
REMARK  status: ('A' for Active; 'I' for Inactive)
REMARK    1  A    between atoms: C_1  and  C_2
REMARK    2  A    between atoms: C_7  and  C_8
REMARK    3  A    between atoms: C_10  and  C_13
REMARK    4  A    between atoms: C_18  and  O_19
REMARK                            x       y       z     vdW  Elec       q    Type
REMARK                         _______ _______ _______ _____ _____    ______ ____
ROOT
ATOM      1  C   UNL     1      -0.018   1.503   0.010  0.00  0.00    +0.044 C 
ATOM      2  C   UNL     1       0.002  -0.004   0.002  0.00  0.00    -0.045 A 
ATOM      3  C   UNL     1       0.006  -0.682  -1.199  0.00  0.00    +0.031 A 
ATOM      4  C   UNL     1       0.024  -2.069  -1.209  0.00  0.00    +0.067 A 
ATOM      5  C   UNL     1       0.040  -2.779   0.005  0.00  0.00    +0.090 A 
ATOM      6  C   UNL     1       0.036  -2.075   1.213  0.00  0.00    +0.033 A 
ATOM      7  C   UNL     1       0.023  -0.699   1.203  0.00  0.00    -0.045 A 
ATOM      8  C   UNL     1       0.025   0.059   2.505  0.00  0.00    +0.044 C 
ATOM      9  N   UNL     1       0.056  -4.099  -0.303  0.00  0.00    -0.228 NA
ATOM     10  C   UNL     1       0.052  -4.248  -1.606  0.00  0.00    +0.143 A 
ATOM     11  N   UNL     1       0.033  -3.020  -2.212  0.00  0.00    -0.338 N 
ATOM     12  H   UNL     1       0.025  -2.850  -3.167  0.00  0.00    +0.167 HD
ENDROOT
BRANCH  10  13
ATOM     13  C   UNL     1       0.067  -5.545  -2.313  0.00  0.00    +0.060 A 
ATOM     14  C   UNL     1       0.067  -5.582  -3.708  0.00  0.00    +0.030 A 
ATOM     15  C   UNL     1       0.082  -6.797  -4.364  0.00  0.00    +0.019 A 
ATOM     16  C   UNL     1       0.096  -7.979  -3.642  0.00  0.00    +0.019 A 
ATOM     17  C   UNL     1       0.096  -7.954  -2.260  0.00  0.00    +0.047 A 
ATOM     18  C   UNL     1       0.087  -6.742  -1.588  0.00  0.00    +0.128 A 
ATOM     19 BR   UNL     1       0.082  -6.847  -6.254  0.00  0.00    -0.050 Br
BRANCH  18  20
ATOM     20  O   UNL     1       0.092  -6.716  -0.230  0.00  0.00    -0.506 OA
ATOM     21  H   UNL     1      -0.789  -6.721   0.167  0.00  0.00    +0.292 HD
ENDBRANCH  18  20
ENDBRANCH  10  13
TORSDOF 2
