REMARK  Name = ZINC04369870
REMARK  5 active torsions:
REMARK  status: ('A' for Active; 'I' for Inactive)
REMARK    1  A    between atoms: C_1  and  C_2
REMARK    2  A    between atoms: C_5  and  O_28
REMARK    3  A    between atoms: C_18  and  C_27
REMARK    4  A    between atoms: C_23  and  C_24
REMARK    5  A    between atoms: C_23  and  O_26
REMARK                            x       y       z     vdW  Elec       q    Type
REMARK                         _______ _______ _______ _____ _____    ______ ____
ROOT
ATOM      1  C   UNL     1      -0.711   1.808   5.461  0.00  0.00    +0.012 C 
ATOM      2  C   UNL     1      -1.619   0.740   4.862  0.00  0.00    -0.026 C 
ATOM      3  C   UNL     1      -2.946   0.701   5.629  0.00  0.00    +0.010 C 
ATOM      4  C   UNL     1      -2.722   0.274   7.077  0.00  0.00    +0.032 C 
ATOM      5  C   UNL     1      -2.043  -1.093   7.142  0.00  0.00    +0.115 C 
ATOM      6  C   UNL     1      -0.718  -1.055   6.377  0.00  0.00    +0.035 C 
ATOM      7  C   UNL     1      -0.982  -0.656   4.929  0.00  0.00    -0.002 C 
ATOM      8  C   UNL     1       0.291  -0.746   4.097  0.00  0.00    +0.004 C 
ATOM      9  C   UNL     1      -0.007  -0.405   2.625  0.00  0.00    +0.004 C 
ATOM     10  C   UNL     1      -0.585   1.000   2.598  0.00  0.00    -0.004 C 
ATOM     11  C   UNL     1      -1.899   1.015   3.389  0.00  0.00    -0.001 C 
ATOM     12  C   UNL     1      -2.645   2.303   3.088  0.00  0.00    +0.005 C 
ATOM     13  C   UNL     1      -3.233   2.191   1.665  0.00  0.00    +0.011 C 
ATOM     14  C   UNL     1      -2.248   1.505   0.750  0.00  0.00    +0.011 C 
ATOM     15  C   UNL     1      -0.800   1.630   1.259  0.00  0.00    +0.002 C 
ATOM     16  C   UNL     1       0.007   1.066   0.081  0.00  0.00    +0.008 C 
ATOM     17  C   UNL     1      -0.747   1.615  -1.161  0.00  0.00    +0.049 C 
ATOM     18  C   UNL     1      -2.116   2.133  -0.652  0.00  0.00    +0.132 C 
ATOM     19  C   UNL     1      -2.650   0.041   0.543  0.00  0.00    +0.015 C 
ENDROOT
BRANCH  18  20
ATOM     20  C   UNL     1      -3.201   1.659  -1.520  0.00  0.00    -0.070 C 
ATOM     21  C   UNL     1      -4.069   1.280  -2.214  0.00  0.00    +0.007 C 
ENDBRANCH  18  20
BRANCH  18  22
ATOM     22  O   UNL     1      -2.111   3.554  -0.564  0.00  0.00    -0.376 OA
ATOM     23  H   UNL     1      -1.966   4.000  -1.409  0.00  0.00    +0.211 HD
ENDBRANCH  18  22
BRANCH   5  24
ATOM     24  O   UNL     1      -2.899  -2.083   6.567  0.00  0.00    -0.392 OA
ATOM     25  H   UNL     1      -3.759  -2.161   7.003  0.00  0.00    +0.210 HD
ENDBRANCH   5  24
TORSDOF 3
