REMARK  Name = ZINC12772621
REMARK  10 active torsions:
REMARK  status: ('A' for Active; 'I' for Inactive)
REMARK    1  A    between atoms: C_1  and  C_2
REMARK    2  A    between atoms: C_7  and  N_8
REMARK    3  A    between atoms: C_9  and  C_11
REMARK    4  A    between atoms: C_11  and  N_48
REMARK    5  A    between atoms: C_12  and  N_48
REMARK    6  A    between atoms: C_13  and  C_14
REMARK    7  A    between atoms: C_13  and  N_48
REMARK    8  A    between atoms: C_14  and  C_15
REMARK    9  A    between atoms: N_17  and  C_18
REMARK   10  A    between atoms: C_23  and  C_24
REMARK                            x       y       z     vdW  Elec       q    Type
REMARK                         _______ _______ _______ _____ _____    ______ ____
ROOT
ATOM      1  C   UNL     1       1.971   1.573  -1.292  0.00  0.00    -0.096 C 
ATOM      2  N   UNL     1       2.145   2.263   0.004  0.00  0.00    +0.384 N 
ATOM      3  H   UNL     1       1.913   1.611   0.763  0.00  0.00    -0.082 HD
ENDROOT
BRANCH   2   4
ATOM      4  C   UNL     1       1.240   3.429   0.081  0.00  0.00    +0.018 C 
BRANCH   4   6
ATOM      5  N   UNL     1      -1.198   3.819   0.230  0.00  0.00    -0.287 N 
ATOM      6  C   UNL     1      -0.183   2.937   0.142  0.00  0.00    +0.201 C 
ATOM      7  O   UNL     1      -0.415   1.747   0.107  0.00  0.00    -0.278 OA
ATOM      8  H   UNL     1      -1.011   4.764   0.340  0.00  0.00    +0.155 HD
BRANCH   5  15
ATOM      9  C   UNL     1      -3.157   5.176   1.785  0.00  0.00    +0.046 C 
ATOM     10  C   UNL     1      -3.510   4.005   0.905  0.00  0.00    -0.028 A 
ATOM     11  C   UNL     1      -4.817   3.564   0.832  0.00  0.00    +0.020 A 
ATOM     12  C   UNL     1      -5.141   2.485   0.029  0.00  0.00    +0.018 A 
ATOM     13  C   UNL     1      -4.158   1.849  -0.708  0.00  0.00    +0.017 A 
ATOM     14  C   UNL     1      -2.850   2.288  -0.643  0.00  0.00    +0.024 A 
ATOM     15  C   UNL     1      -2.522   3.371   0.162  0.00  0.00    +0.036 A 
ATOM     16 BR   UNL     1      -6.930   1.880  -0.062  0.00  0.00    -0.050 Br
ENDBRANCH   5  15
ENDBRANCH   4   6
ENDBRANCH   2   4
BRANCH   2  17
ATOM     17  C   UNL     1       3.548   2.701   0.159  0.00  0.00    -0.069 C 
BRANCH  17  18
ATOM     18  C   UNL     1       4.438   1.465   0.300  0.00  0.00    +0.077 C 
BRANCH  18  19
ATOM     19  C   UNL     1       5.871   1.896   0.481  0.00  0.00    +0.215 C 
ATOM     20  O   UNL     1       6.152   3.075   0.496  0.00  0.00    -0.276 OA
ATOM     21  N   UNL     1       6.840   0.970   0.627  0.00  0.00    -0.284 N 
ATOM     22  H   UNL     1       6.628   0.028   0.534  0.00  0.00    +0.155 HD
BRANCH  21  23
ATOM     23  C   UNL     1       8.146   1.367   0.911  0.00  0.00    +0.051 A 
ATOM     24  C   UNL     1       8.379   2.481   1.705  0.00  0.00    +0.024 A 
ATOM     25  C   UNL     1       9.673   2.869   1.990  0.00  0.00    +0.002 A 
ATOM     26  C   UNL     1      10.747   2.159   1.478  0.00  0.00    +0.001 A 
ATOM     27  C   UNL     1      10.534   1.053   0.684  0.00  0.00    +0.021 A 
ATOM     28  C   UNL     1       9.231   0.645   0.391  0.00  0.00    +0.073 A 
BRANCH  28  29
ATOM     29  C   UNL     1       9.003  -0.503  -0.434  0.00  0.00    +0.101 C 
ATOM     30  N   UNL     1       8.822  -1.413  -1.089  0.00  0.00    -0.191 NA
ENDBRANCH  28  29
ENDBRANCH  21  23
ENDBRANCH  18  19
ENDBRANCH  17  18
ENDBRANCH   2  17
TORSDOF 8
