REMARK  Name = ZINC60300425
REMARK  6 active torsions:
REMARK  status: ('A' for Active; 'I' for Inactive)
REMARK    1  A    between atoms: C_1  and  N_2
REMARK    2  A    between atoms: C_3  and  C_5
REMARK    3  A    between atoms: C_5  and  N_6
REMARK    4  A    between atoms: C_9  and  N_12
REMARK    5  A    between atoms: C_13  and  C_15
REMARK    6  A    between atoms: C_18  and  C_20
REMARK                            x       y       z     vdW  Elec       q    Type
REMARK                         _______ _______ _______ _____ _____    ______ ____
ROOT
ATOM      1  N   UNL     1       3.924  -4.575  -4.903  0.00  0.00    -0.312 N 
ATOM      2  C   UNL     1       4.427  -5.817  -5.048  0.00  0.00    +0.217 C 
ATOM      3  O   UNL     1       4.380  -6.601  -4.124  0.00  0.00    -0.275 OA
ATOM      4  H   UNL     1       3.961  -3.947  -5.641  0.00  0.00    +0.149 HD
ENDROOT
BRANCH   1   8
ATOM      5  N   UNL     1       1.293  -2.645  -2.235  0.00  0.00    +0.385 N 
ATOM      6  C   UNL     1       2.700  -2.229  -2.190  0.00  0.00    -0.076 C 
ATOM      7  C   UNL     1       3.401  -2.650  -3.484  0.00  0.00    +0.003 C 
ATOM      8  C   UNL     1       3.322  -4.172  -3.629  0.00  0.00    +0.069 C 
ATOM      9  C   UNL     1       1.852  -4.602  -3.600  0.00  0.00    +0.003 C 
ATOM     10  C   UNL     1       1.208  -4.109  -2.302  0.00  0.00    -0.076 C 
ATOM     11  H   UNL     1       0.852  -2.246  -3.050  0.00  0.00    -0.081 HD
BRANCH   5  12
ATOM     12  C   UNL     1       0.606  -2.171  -1.026  0.00  0.00    +0.019 C 
BRANCH  12  15
ATOM     13  C   UNL     1      -0.018   1.461   0.010  0.00  0.00    +0.128 C 
ATOM     14  N   UNL     1       0.002  -0.004   0.002  0.00  0.00    -0.320 N 
ATOM     15  C   UNL     1       0.585  -0.664  -1.018  0.00  0.00    +0.196 C 
ATOM     16  O   UNL     1       1.093  -0.046  -1.929  0.00  0.00    -0.278 OA
ATOM     17  H   UNL     1      -0.404  -0.499   0.731  0.00  0.00    +0.148 HD
ENDBRANCH  12  15
ENDBRANCH   5  12
ENDBRANCH   1   8
BRANCH   2  18
ATOM     18  C   UNL     1       5.047  -6.231  -6.357  0.00  0.00    +0.083 C 
ATOM     19  C   UNL     1       4.306  -7.279  -7.189  0.00  0.00    +0.022 C 
ATOM     20  C   UNL     1       5.598  -7.654  -6.459  0.00  0.00    +0.032 C 
BRANCH  20  21
ATOM     21  C   UNL     1       5.479  -8.536  -5.242  0.00  0.00    -0.043 A 
ATOM     22  C   UNL     1       4.233  -8.832  -4.723  0.00  0.00    +0.005 A 
ATOM     23  C   UNL     1       4.123  -9.640  -3.607  0.00  0.00    +0.015 A 
ATOM     24  C   UNL     1       5.261 -10.153  -3.010  0.00  0.00    +0.018 A 
ATOM     25  C   UNL     1       6.508  -9.856  -3.530  0.00  0.00    +0.015 A 
ATOM     26  C   UNL     1       6.616  -9.052  -4.649  0.00  0.00    +0.005 A 
ATOM     27 BR   UNL     1       5.112 -11.258  -1.483  0.00  0.00    -0.050 Br
ENDBRANCH  20  21
ENDBRANCH   2  18
TORSDOF 5
