REMARK  Name = ZINC01050991
REMARK  3 active torsions:
REMARK  status: ('A' for Active; 'I' for Inactive)
REMARK    1  A    between atoms: C_1  and  S_2
REMARK    2  A    between atoms: S_2  and  C_3
REMARK    3  A    between atoms: N_7  and  C_8
REMARK                            x       y       z     vdW  Elec       q    Type
REMARK                         _______ _______ _______ _____ _____    ______ ____
ROOT
ATOM      1  C   UNL     1       0.848  -0.411  -1.489  0.00  0.00    +0.214 A 
ATOM      2  N   UNL     1       1.341   0.438  -2.365  0.00  0.00    -0.101 NA
ATOM      3  N   UNL     1       1.895  -0.191  -3.338  0.00  0.00    -0.022 NA
ATOM      4  N   UNL     1       1.802  -1.464  -3.162  0.00  0.00    -0.038 NA
ATOM      5  N   UNL     1       1.121  -1.658  -1.948  0.00  0.00    -0.187 N 
ENDROOT
BRANCH   5   6
ATOM      6  C   UNL     1       0.791  -2.880  -1.342  0.00  0.00    +0.070 A 
ATOM      7  C   UNL     1       0.796  -2.993   0.042  0.00  0.00    +0.029 A 
ATOM      8  C   UNL     1       0.470  -4.197   0.636  0.00  0.00    +0.022 A 
ATOM      9  C   UNL     1       0.139  -5.289  -0.147  0.00  0.00    +0.041 A 
ATOM     10  C   UNL     1       0.133  -5.178  -1.526  0.00  0.00    +0.022 A 
ATOM     11  C   UNL     1       0.453  -3.975  -2.125  0.00  0.00    +0.029 A 
ATOM     12 CL   UNL     1      -0.270  -6.800   0.603  0.00  0.00    -0.084 Cl
ENDBRANCH   5   6
BRANCH   1  14
ATOM     13  C   UNL     1      -0.022   1.810   0.012  0.00  0.00    +0.093 C 
ATOM     14  S   UNL     1       0.002  -0.004   0.002  0.00  0.00    -0.088 S 
ENDBRANCH   1  14
TORSDOF 2
