REMARK  Name = ZINC00712678
REMARK  9 active torsions:
REMARK  status: ('A' for Active; 'I' for Inactive)
REMARK    1  A    between atoms: C_1  and  C_2
REMARK    2  A    between atoms: C_2  and  C_26
REMARK    3  A    between atoms: C_6  and  C_14
REMARK    4  A    between atoms: C_8  and  C_12
REMARK    5  A    between atoms: C_9  and  N_11
REMARK    6  A    between atoms: C_17  and  C_19
REMARK    7  A    between atoms: C_19  and  C_20
REMARK    8  A    between atoms: C_19  and  C_21
REMARK    9  A    between atoms: C_19  and  C_22
REMARK                            x       y       z     vdW  Elec       q    Type
REMARK                         _______ _______ _______ _____ _____    ______ ____
ROOT
ATOM      1  C   UNL     1      -2.788   3.801  -3.453  0.00  0.00    +0.012 C 
ATOM      2  C   UNL     1      -4.070   2.979  -3.595  0.00  0.00    -0.021 C 
ATOM      3  C   UNL     1      -4.946   3.175  -2.357  0.00  0.00    +0.081 C 
ATOM      4  C   UNL     1      -4.205   2.698  -1.129  0.00  0.00    +0.115 C 
ATOM      5  C   UNL     1      -3.322   1.686  -1.210  0.00  0.00    +0.046 C 
ATOM      6  C   UNL     1      -2.594   1.202   0.020  0.00  0.00    +0.108 C 
ATOM      7  C   UNL     1      -3.308   1.669   1.257  0.00  0.00    +0.099 C 
ATOM      8  C   UNL     1      -4.193   2.691   1.196  0.00  0.00    +0.198 C 
ATOM      9  O   UNL     1      -4.456   3.318   0.039  0.00  0.00    -0.445 OA
ATOM     10  C   UNL     1      -3.048   1.051  -2.437  0.00  0.00    +0.164 C 
ATOM     11  O   UNL     1      -2.256   0.130  -2.467  0.00  0.00    -0.292 OA
ATOM     12  C   UNL     1      -3.717   1.492  -3.710  0.00  0.00    +0.086 C 
ATOM     13  C   UNL     1      -4.835   3.423  -4.843  0.00  0.00    +0.012 C 
ENDROOT
BRANCH   6  14
ATOM     14  C   UNL     1      -1.190   1.748   0.017  0.00  0.00    +0.003 A 
ATOM     15  C   UNL     1      -0.013   1.076   0.008  0.00  0.00    +0.012 A 
ATOM     16  C   UNL     1       1.169   1.793   0.001  0.00  0.00    +0.012 A 
ATOM     17  C   UNL     1       1.115   3.148   0.008  0.00  0.00    -0.005 A 
ATOM     18  S   UNL     1      -0.644   3.448   0.027  0.00  0.00    -0.097 S 
BRANCH  17  19
ATOM     19  C   UNL     1       2.248   4.142   0.003  0.00  0.00    -0.006 C 
ATOM     20  C   UNL     1       3.095   3.944  -1.255  0.00  0.00    +0.016 C 
ATOM     21  C   UNL     1       1.679   5.563   0.016  0.00  0.00    +0.016 C 
ATOM     22  C   UNL     1       3.118   3.930   1.244  0.00  0.00    +0.016 C 
ENDBRANCH  17  19
ENDBRANCH   6  14
BRANCH   8  23
ATOM     23  N   UNL     1      -4.835   3.094   2.341  0.00  0.00    -0.328 N 
ATOM     24  H   UNL     1      -5.471   3.826   2.307  0.00  0.00    +0.145 HD
ATOM     25  H   UNL     1      -4.653   2.648   3.182  0.00  0.00    +0.145 HD
ENDBRANCH   8  23
BRANCH   7  26
ATOM     26  C   UNL     1      -3.052   1.029   2.512  0.00  0.00    +0.101 C 
ATOM     27  N   UNL     1      -2.848   0.521   3.508  0.00  0.00    -0.191 NA
ENDBRANCH   7  26
TORSDOF 4
