REMARK  Name = ZINC37437266
REMARK  1 active torsions:
REMARK  status: ('A' for Active; 'I' for Inactive)
REMARK    1  A    between atoms: C_4  and  N_8
REMARK                            x       y       z     vdW  Elec       q    Type
REMARK                         _______ _______ _______ _____ _____    ______ ____
ROOT
ATOM      1  N   UNL     1       3.623  -0.652  -0.037  0.00  0.00    -0.268 N 
ATOM      2  C   UNL     1       3.646  -1.996   0.057  0.00  0.00    +0.310 C 
ATOM      3  O   UNL     1       2.604  -2.623   0.065  0.00  0.00    -0.252 OA
ATOM      4  N   UNL     1       4.824  -2.645   0.143  0.00  0.00    -0.248 N 
ATOM      5  C   UNL     1       4.848  -4.032   0.240  0.00  0.00    +0.167 A 
ATOM      6  N   UNL     1       3.832  -4.868   0.258  0.00  0.00    -0.232 NA
ATOM      7  C   UNL     1       4.022  -6.171   0.356  0.00  0.00    +0.136 A 
ATOM      8  C   UNL     1       5.306  -6.602   0.437  0.00  0.00    +0.076 A 
ATOM      9  S   UNL     1       6.184  -5.049   0.357  0.00  0.00    -0.045 S 
ATOM     10 BR   UNL     1       5.980  -8.362   0.587  0.00  0.00    -0.041 Br
ATOM     11  H   UNL     1       4.453  -0.158  -0.126  0.00  0.00    +0.156 HD
ATOM     12  H   UNL     1       5.655  -2.145   0.137  0.00  0.00    +0.158 HD
ENDROOT
BRANCH   1  16
ATOM     13  C   UNL     1      -0.015   1.381   0.049  0.00  0.00    +0.021 A 
ATOM     14  C   UNL     1       1.082   1.956  -0.567  0.00  0.00    +0.023 A 
ATOM     15  C   UNL     1       2.290   1.285  -0.597  0.00  0.00    +0.062 A 
ATOM     16  C   UNL     1       2.401   0.031  -0.008  0.00  0.00    +0.055 A 
ATOM     17  C   UNL     1       1.298  -0.543   0.610  0.00  0.00    +0.044 A 
ATOM     18  C   UNL     1       0.093   0.134   0.636  0.00  0.00    +0.043 A 
ATOM     19 CL   UNL     1      -1.287  -0.584   1.408  0.00  0.00    -0.083 Cl
ATOM     20 CL   UNL     1       3.666   2.006  -1.371  0.00  0.00    -0.082 Cl
ENDBRANCH   1  16
TORSDOF 1
