REMARK  Name = ZINC23858712
REMARK  8 active torsions:
REMARK  status: ('A' for Active; 'I' for Inactive)
REMARK    1  A    between atoms: C_1  and  N_2
REMARK    2  A    between atoms: C_10  and  C_12
REMARK    3  A    between atoms: C_12  and  C_14
REMARK    4  A    between atoms: C_12  and  N_28
REMARK    5  A    between atoms: C_14  and  N_15
REMARK    6  A    between atoms: C_16  and  C_18
REMARK    7  A    between atoms: C_18  and  O_19
REMARK    8  A    between atoms: O_19  and  C_20
REMARK                            x       y       z     vdW  Elec       q    Type
REMARK                         _______ _______ _______ _____ _____    ______ ____
ROOT
ATOM      1  C   UNL     1       2.843  -2.511   4.155  0.00  0.00    -0.020 C 
ENDROOT
BRANCH   1  11
ATOM      2  C   UNL     1       0.311  -0.094  -1.103  0.00  0.00    +0.129 C 
ATOM      3  N   UNL     1       1.345   0.616  -0.339  0.00  0.00    -0.333 N 
ATOM      4  C   UNL     1       0.926   1.985  -0.033  0.00  0.00    +0.105 C 
ATOM      5  C   UNL     1       2.029   2.665   0.787  0.00  0.00    +0.024 C 
ATOM      6  C   UNL     1       2.079   1.990   2.160  0.00  0.00    +0.038 C 
ATOM      7  C   UNL     1       2.074   0.491   1.988  0.00  0.00    -0.026 A 
ATOM      8  C   UNL     1       1.715  -0.109   0.793  0.00  0.00    +0.033 A 
ATOM      9  C   UNL     1       1.720  -1.501   0.698  0.00  0.00    +0.023 A 
ATOM     10  C   UNL     1       2.082  -2.274   1.781  0.00  0.00    +0.004 A 
ATOM     11  C   UNL     1       2.444  -1.669   2.970  0.00  0.00    -0.059 A 
ATOM     12  C   UNL     1       2.439  -0.291   3.071  0.00  0.00    +0.007 A 
ENDBRANCH   1  11
BRANCH   1  13
ATOM     13  N   UNL     1       1.868  -3.594   4.336  0.00  0.00    +0.385 N 
ATOM     14  C   UNL     1       1.981  -4.191   5.692  0.00  0.00    -0.078 C 
ATOM     15  C   UNL     1       0.611  -4.888   5.888  0.00  0.00    -0.020 C 
ATOM     16  C   UNL     1      -0.375  -3.908   5.211  0.00  0.00    -0.020 C 
ATOM     17  C   UNL     1       0.483  -3.083   4.234  0.00  0.00    -0.078 C 
ATOM     18  H   UNL     1       2.086  -4.329   3.547  0.00  0.00    -0.081 HD
ENDBRANCH   1  13
BRANCH   1  19
ATOM     19  C   UNL     1       4.230  -3.109   3.911  0.00  0.00    +0.093 C 
BRANCH  19  20
ATOM     20  N   UNL     1       4.720  -3.727   5.146  0.00  0.00    -0.314 N 
ATOM     21  C   UNL     1       5.862  -4.441   5.135  0.00  0.00    +0.251 C 
ATOM     22  O   UNL     1       6.485  -4.574   4.103  0.00  0.00    -0.272 OA
ATOM     23  H   UNL     1       4.155  -3.607   6.082  0.00  0.00    +0.149 HD
BRANCH  21  24
ATOM     24  C   UNL     1       6.366  -5.077   6.405  0.00  0.00    +0.324 C 
BRANCH  24  25
ATOM     25  O   UNL     1       7.584  -5.775   6.138  0.00  0.00    -0.481 OA
BRANCH  25  26
ATOM     26  C   UNL     1       8.174  -6.408   7.186  0.00  0.00    +0.140 A 
ATOM     27  C   UNL     1       7.593  -6.359   8.445  0.00  0.00    +0.048 A 
ATOM     28  C   UNL     1       8.194  -7.003   9.508  0.00  0.00    +0.023 A 
ATOM     29  C   UNL     1       9.376  -7.698   9.319  0.00  0.00    +0.043 A 
ATOM     30  C   UNL     1       9.958  -7.749   8.066  0.00  0.00    +0.043 A 
ATOM     31  C   UNL     1       9.357  -7.111   6.997  0.00  0.00    +0.084 A 
ATOM     32 CL   UNL     1      10.083  -7.181   5.422  0.00  0.00    -0.080 Cl
ATOM     33 CL   UNL     1      10.129  -8.507  10.658  0.00  0.00    -0.083 Cl
ENDBRANCH  25  26
ENDBRANCH  24  25
ENDBRANCH  21  24
ENDBRANCH  19  20
ENDBRANCH   1  19
TORSDOF 7
