REMARK  Name = ZINC36526449
REMARK  18 active torsions:
REMARK  status: ('A' for Active; 'I' for Inactive)
REMARK    1  A    between atoms: C_1  and  C_2
REMARK    2  A    between atoms: C_2  and  C_3
REMARK    3  A    between atoms: C_3  and  C_4
REMARK    4  A    between atoms: C_4  and  C_5
REMARK    5  A    between atoms: C_5  and  C_6
REMARK    6  A    between atoms: C_7  and  C_8
REMARK    7  A    between atoms: N_10  and  C_11
REMARK    8  A    between atoms: N_10  and  C_12
REMARK    9  A    between atoms: C_12  and  C_14
REMARK   10  A    between atoms: C_12  and  C_24
REMARK   11  A    between atoms: C_17  and  O_22
REMARK   12  A    between atoms: C_18  and  O_20
REMARK   13  A    between atoms: O_20  and  C_21
REMARK   14  A    between atoms: O_22  and  C_23
REMARK   15  A    between atoms: N_26  and  C_27
REMARK   16  A    between atoms: C_27  and  C_28
REMARK   17  A    between atoms: C_28  and  C_29
REMARK   18  A    between atoms: C_29  and  C_30
REMARK                            x       y       z     vdW  Elec       q    Type
REMARK                         _______ _______ _______ _____ _____    ______ ____
ROOT
ATOM      1  C   UNL     1      -0.887  -3.908  -6.776  0.00  0.00    +0.192 C 
ENDROOT
BRANCH   1   2
ATOM      2  C   UNL     1      -0.374  -4.524  -8.052  0.00  0.00    -0.015 A 
ATOM      3  C   UNL     1      -1.131  -5.475  -8.711  0.00  0.00    +0.010 A 
ATOM      4  C   UNL     1      -0.665  -6.044  -9.882  0.00  0.00    +0.050 A 
ATOM      5  C   UNL     1       0.564  -5.661 -10.397  0.00  0.00    +0.162 A 
ATOM      6  C   UNL     1       1.325  -4.704  -9.733  0.00  0.00    +0.162 A 
ATOM      7  C   UNL     1       0.850  -4.135  -8.563  0.00  0.00    +0.055 A 
BRANCH   6   8
ATOM      8  O   UNL     1       2.531  -4.325 -10.235  0.00  0.00    -0.491 OA
ATOM      9  C   UNL     1       3.258  -3.338  -9.500  0.00  0.00    +0.277 C 
ENDBRANCH   6   8
BRANCH   5  10
ATOM     10  O   UNL     1       1.024  -6.220 -11.548  0.00  0.00    -0.491 OA
ATOM     11  C   UNL     1       0.189  -7.196 -12.175  0.00  0.00    +0.277 C 
ENDBRANCH   5  10
ENDBRANCH   1   2
BRANCH   1  14
ATOM     12  C   UNL     1       0.325  -3.979  -4.663  0.00  0.00    +0.240 C 
ATOM     13  O   UNL     1       0.482  -2.776  -4.746  0.00  0.00    -0.271 OA
ATOM     14  N   UNL     1      -0.346  -4.640  -5.628  0.00  0.00    -0.285 N 
ATOM     15  C   UNL     1      -0.534  -6.089  -5.528  0.00  0.00    +0.133 C 
BRANCH  12  17
ATOM     16  C   UNL     1       1.401  -4.049  -2.489  0.00  0.00    -0.022 C 
ATOM     17  C   UNL     1       0.869  -4.714  -3.511  0.00  0.00    +0.063 C 
BRANCH  16  18
ATOM     18  C   UNL     1       1.135  -2.574  -2.330  0.00  0.00    +0.027 C 
BRANCH  18  19
ATOM     19  C   UNL     1       0.658  -2.293  -0.904  0.00  0.00    +0.004 C 
BRANCH  19  20
ATOM     20  C   UNL     1       0.388  -0.796  -0.742  0.00  0.00    +0.000 C 
BRANCH  20  22
ATOM     21  C   UNL     1      -0.359   0.983   0.846  0.00  0.00    +0.004 C 
ATOM     22  C   UNL     1      -0.089  -0.514   0.684  0.00  0.00    -0.003 C 
ENDBRANCH  20  22
ENDBRANCH  19  20
ENDBRANCH  18  19
ENDBRANCH  16  18
ENDBRANCH  12  17
ENDBRANCH   1  14
BRANCH   1  23
ATOM     23  C   UNL     1      -2.392  -3.979  -6.753  0.00  0.00    +0.238 C 
ATOM     24  O   UNL     1      -2.957  -4.582  -5.865  0.00  0.00    -0.273 OA
ATOM     25  N   UNL     1      -3.110  -3.373  -7.720  0.00  0.00    -0.313 N 
ATOM     26  H   UNL     1      -2.658  -2.891  -8.430  0.00  0.00    +0.149 HD
BRANCH  25  27
ATOM     27  C   UNL     1      -4.573  -3.443  -7.697  0.00  0.00    +0.104 C 
BRANCH  27  28
ATOM     28  C   UNL     1      -5.138  -2.679  -8.896  0.00  0.00    +0.018 C 
BRANCH  28  29
ATOM     29  C   UNL     1      -6.667  -2.752  -8.873  0.00  0.00    -0.002 C 
ATOM     30  C   UNL     1      -7.232  -1.987 -10.072  0.00  0.00    +0.004 C 
ENDBRANCH  28  29
ENDBRANCH  27  28
ENDBRANCH  25  27
ENDBRANCH   1  23
TORSDOF 13
