REMARK  Name = ZINC10272117
REMARK  8 active torsions:
REMARK  status: ('A' for Active; 'I' for Inactive)
REMARK    1  A    between atoms: C_1  and  C_2
REMARK    2  A    between atoms: C_5  and  N_9
REMARK    3  A    between atoms: C_6  and  C_8
REMARK    4  A    between atoms: N_9  and  S_10
REMARK    5  A    between atoms: S_10  and  C_13
REMARK    6  A    between atoms: C_16  and  N_19
REMARK    7  A    between atoms: C_20  and  C_22
REMARK    8  A    between atoms: C_28  and  C_30
REMARK                            x       y       z     vdW  Elec       q    Type
REMARK                         _______ _______ _______ _____ _____    ______ ____
ROOT
ATOM      1  C   UNL     1       7.707   4.509   1.106  0.00  0.00    +0.109 A 
ATOM      2  C   UNL     1       6.610   5.312   1.358  0.00  0.00    +0.030 A 
ATOM      3  C   UNL     1       5.366   4.744   1.549  0.00  0.00    +0.025 A 
ATOM      4  C   UNL     1       5.217   3.365   1.486  0.00  0.00    +0.034 A 
ATOM      5  C   UNL     1       6.322   2.561   1.237  0.00  0.00    +0.025 A 
ATOM      6  C   UNL     1       7.563   3.136   1.043  0.00  0.00    +0.030 A 
ENDROOT
BRANCH   4   7
ATOM      7  N   UNL     1       3.958   2.786   1.679  0.00  0.00    -0.285 N 
ATOM      8  C   UNL     1       2.852   3.417   1.236  0.00  0.00    +0.221 C 
ATOM      9  O   UNL     1       2.939   4.523   0.746  0.00  0.00    -0.275 OA
ATOM     10  H   UNL     1       3.881   1.931   2.131  0.00  0.00    +0.155 HD
BRANCH   8  11
ATOM     11  C   UNL     1       1.506   2.747   1.350  0.00  0.00    +0.089 C 
ATOM     12  C   UNL     1       1.204   2.458   2.822  0.00  0.00    +0.013 C 
ATOM     13  C   UNL     1      -0.162   1.778   2.937  0.00  0.00    +0.001 C 
ATOM     14  C   UNL     1      -1.241   2.700   2.366  0.00  0.00    +0.001 C 
ATOM     15  C   UNL     1      -0.938   2.989   0.894  0.00  0.00    +0.015 C 
ATOM     16  C   UNL     1       0.428   3.669   0.779  0.00  0.00    +0.114 C 
BRANCH  16  17
ATOM     17  C   UNL     1       0.726   3.954  -0.671  0.00  0.00    +0.360 C 
ATOM     18  O   UNL     1       1.702   3.469  -1.193  0.00  0.00    -0.246 OA
ATOM     19  O   UNL     1      -0.092   4.746  -1.381  0.00  0.00    -0.246 OA
ENDBRANCH  16  17
ENDBRANCH   8  11
ENDBRANCH   4   7
BRANCH   1  20
ATOM     20  S   UNL     1       9.293   5.238   0.865  0.00  0.00    +0.072 S 
ATOM     21  O   UNL     1      10.055   4.310   0.105  0.00  0.00    -0.150 OA
ATOM     22  O   UNL     1       9.066   6.572   0.433  0.00  0.00    -0.150 OA
BRANCH  20  23
ATOM     23  N   UNL     1      10.017   5.339   2.351  0.00  0.00    -0.216 N 
ATOM     24  H   UNL     1      10.278   6.203   2.706  0.00  0.00    +0.174 HD
BRANCH  23  29
ATOM     25  C   UNL     1      10.964   0.631   5.367  0.00  0.00    +0.044 C 
ATOM     26  C   UNL     1      10.713   1.882   4.566  0.00  0.00    -0.050 A 
ATOM     27  C   UNL     1      10.832   1.855   3.188  0.00  0.00    +0.005 A 
ATOM     28  C   UNL     1      10.597   2.998   2.450  0.00  0.00    +0.025 A 
ATOM     29  C   UNL     1      10.251   4.180   3.094  0.00  0.00    +0.051 A 
ATOM     30  C   UNL     1      10.133   4.204   4.478  0.00  0.00    -0.028 A 
ATOM     31  C   UNL     1      10.364   3.055   5.210  0.00  0.00    +0.008 A 
ATOM     32  C   UNL     1       9.753   5.482   5.180  0.00  0.00    +0.046 C 
ENDBRANCH  23  29
ENDBRANCH  20  23
ENDBRANCH   1  20
TORSDOF 6
