REMARK  Name = ZINC40267106
REMARK  6 active torsions:
REMARK  status: ('A' for Active; 'I' for Inactive)
REMARK    1  A    between atoms: C_1  and  C_2
REMARK    2  A    between atoms: C_2  and  C_4
REMARK    3  A    between atoms: C_2  and  N_8
REMARK    4  A    between atoms: C_4  and  O_6
REMARK    5  A    between atoms: O_6  and  C_7
REMARK    6  A    between atoms: C_20  and  C_22
REMARK                            x       y       z     vdW  Elec       q    Type
REMARK                         _______ _______ _______ _____ _____    ______ ____
ROOT
ATOM      1  N   UNL     1       2.692  -0.281  -0.144  0.00  0.00    -0.286 N 
ATOM      2  C   UNL     1       2.005  -0.593  -1.260  0.00  0.00    +0.304 C 
ATOM      3  O   UNL     1       0.789  -0.576  -1.251  0.00  0.00    -0.253 OA
ATOM      4  N   UNL     1       2.665  -0.924  -2.388  0.00  0.00    -0.273 N 
ATOM      5  C   UNL     1       1.940  -1.161  -3.645  0.00  0.00    +0.116 C 
ATOM      6  C   UNL     1       2.349  -0.098  -4.671  0.00  0.00    +0.076 C 
ATOM      7  C   UNL     1       3.850   0.051  -4.645  0.00  0.00    +0.066 A 
ATOM      8  C   UNL     1       4.641  -0.369  -3.635  0.00  0.00    +0.064 A 
ATOM      9  N   UNL     1       5.922  -0.058  -3.969  0.00  0.00    -0.346 N 
ATOM     10  H   UNL     1       6.716  -0.234  -3.439  0.00  0.00    +0.167 HD
ATOM     11  C   UNL     1       5.879   0.544  -5.180  0.00  0.00    +0.197 A 
ATOM     12  N   UNL     1       4.635   0.604  -5.576  0.00  0.00    -0.240 NA
ATOM     13  C   UNL     1       4.134  -1.052  -2.394  0.00  0.00    +0.156 C 
ATOM     14  H   UNL     1       3.658  -0.370  -0.128  0.00  0.00    +0.151 HD
ENDROOT
BRANCH  13  15
ATOM     15  C   UNL     1       4.522  -2.508  -2.420  0.00  0.00    -0.020 A 
ATOM     16  C   UNL     1       4.188  -3.293  -3.508  0.00  0.00    +0.009 A 
ATOM     17  C   UNL     1       4.544  -4.628  -3.534  0.00  0.00    +0.040 A 
ATOM     18  C   UNL     1       5.234  -5.181  -2.469  0.00  0.00    +0.142 A 
ATOM     19  C   UNL     1       5.569  -4.394  -1.378  0.00  0.00    +0.076 A 
ATOM     20  C   UNL     1       5.216  -3.057  -1.358  0.00  0.00    +0.028 A 
ATOM     21 CL   UNL     1       6.435  -5.085  -0.042  0.00  0.00    -0.081 Cl
ATOM     22  F   UNL     1       5.582  -6.486  -2.493  0.00  0.00    -0.204 F 
ENDBRANCH  13  15
BRANCH   1  24
ATOM     23  C   UNL     1       1.491  -1.010   1.859  0.00  0.00    +0.040 C 
ATOM     24  C   UNL     1       1.980   0.191   1.046  0.00  0.00    +0.180 C 
BRANCH  24  25
ATOM     25  C   UNL     1       2.910   1.024   1.891  0.00  0.00    +0.327 C 
ATOM     26  O   UNL     1       4.051   1.204   1.535  0.00  0.00    -0.249 OA
BRANCH  25  27
ATOM     27  O   UNL     1       2.472   1.565   3.038  0.00  0.00    -0.467 OA
ATOM     28  C   UNL     1       3.408   2.342   3.788  0.00  0.00    +0.280 C 
ENDBRANCH  25  27
ENDBRANCH  24  25
ENDBRANCH   1  24
TORSDOF 4
