REMARK  Name = ZINC09597236
REMARK  4 active torsions:
REMARK  status: ('A' for Active; 'I' for Inactive)
REMARK    1  A    between atoms: C_1  and  C_2
REMARK    2  A    between atoms: C_5  and  O_30
REMARK    3  A    between atoms: C_6  and  C_8
REMARK    4  A    between atoms: C_21  and  C_23
REMARK                            x       y       z     vdW  Elec       q    Type
REMARK                         _______ _______ _______ _____ _____    ______ ____
ROOT
ATOM      1  C   UNL     1       3.877   4.718  -1.827  0.00  0.00    +0.072 C 
ATOM      2  N   UNL     1       4.346   3.602  -1.373  0.00  0.00    -0.184 NA
ATOM      3  N   UNL     1       3.569   3.042  -0.376  0.00  0.00    -0.205 N 
ATOM      4  C   UNL     1       2.533   4.017   0.031  0.00  0.00    +0.136 C 
ATOM      5  C   UNL     1       2.612   5.079  -1.075  0.00  0.00    +0.086 C 
ATOM      6  C   UNL     1       1.220   3.278   0.007  0.00  0.00    +0.018 A 
ATOM      7  C   UNL     1       0.040   3.998   0.007  0.00  0.00    +0.024 A 
ATOM      8  C   UNL     1      -1.177   3.343   0.008  0.00  0.00    +0.018 A 
ATOM      9  C   UNL     1      -1.211   1.959   0.005  0.00  0.00    +0.019 A 
ATOM     10  C   UNL     1      -0.036   1.239   0.004  0.00  0.00    +0.047 A 
ATOM     11  C   UNL     1       1.197   1.891  -0.006  0.00  0.00    +0.129 A 
ATOM     12  O   UNL     1       2.311   1.117  -0.059  0.00  0.00    -0.465 OA
ATOM     13  C   UNL     1       3.598   1.690   0.198  0.00  0.00    +0.312 C 
ATOM     14 BR   UNL     1      -2.789   4.332   0.006  0.00  0.00    -0.050 Br
ENDROOT
BRANCH   1  20
ATOM     15  C   UNL     1       3.806   8.745  -4.768  0.00  0.00    +0.044 C 
ATOM     16  C   UNL     1       4.452   7.456  -4.329  0.00  0.00    -0.050 A 
ATOM     17  C   UNL     1       5.615   7.023  -4.943  0.00  0.00    +0.007 A 
ATOM     18  C   UNL     1       6.217   5.843  -4.548  0.00  0.00    +0.046 A 
ATOM     19  C   UNL     1       5.660   5.087  -3.530  0.00  0.00    +0.126 A 
ATOM     20  C   UNL     1       4.481   5.518  -2.909  0.00  0.00    +0.039 A 
ATOM     21  C   UNL     1       3.883   6.712  -3.316  0.00  0.00    +0.016 A 
BRANCH  19  22
ATOM     22  O   UNL     1       6.254   3.929  -3.137  0.00  0.00    -0.506 OA
ATOM     23  H   UNL     1       5.949   3.148  -3.619  0.00  0.00    +0.292 HD
ENDBRANCH  19  22
ENDBRANCH   1  20
BRANCH  13  24
ATOM     24  C   UNL     1       3.844   1.764   1.683  0.00  0.00    +0.031 A 
ATOM     25  C   UNL     1       3.206   0.885   2.545  0.00  0.00    +0.012 A 
ATOM     26  C   UNL     1       3.462   0.990   3.904  0.00  0.00    +0.020 A 
ATOM     27  C   UNL     1       4.339   1.960   4.350  0.00  0.00    +0.111 A 
ATOM     28  N   UNL     1       4.928   2.780   3.502  0.00  0.00    -0.263 NA
ATOM     29  C   UNL     1       4.712   2.705   2.203  0.00  0.00    +0.119 A 
ENDBRANCH  13  24
TORSDOF 3
