REMARK  Name = ZINC09408732
REMARK  6 active torsions:
REMARK  status: ('A' for Active; 'I' for Inactive)
REMARK    1  A    between atoms: C_1  and  C_2
REMARK    2  A    between atoms: C_7  and  N_8
REMARK    3  A    between atoms: C_13  and  N_60
REMARK    4  A    between atoms: C_19  and  N_21
REMARK    5  A    between atoms: N_21  and  S_22
REMARK    6  A    between atoms: S_22  and  C_25
REMARK                            x       y       z     vdW  Elec       q    Type
REMARK                         _______ _______ _______ _____ _____    ______ ____
ROOT
ATOM      1  C   UNL     1      -1.229   0.412  -1.140  0.00  0.00    -0.050 C 
ATOM      2  C   UNL     1      -0.378   0.061   0.082  0.00  0.00    -0.014 C 
ATOM      3  C   UNL     1      -1.177   0.334   1.357  0.00  0.00    -0.001 C 
ATOM      4  C   UNL     1      -2.446  -0.521   1.357  0.00  0.00    +0.001 C 
ATOM      5  C   UNL     1      -3.298  -0.170   0.135  0.00  0.00    +0.019 C 
ATOM      6  C   UNL     1      -2.498  -0.443  -1.140  0.00  0.00    +0.063 C 
ENDROOT
BRANCH   1  12
ATOM      7  N   UNL     1       1.841  -0.619  -3.852  0.00  0.00    -0.333 N 
ATOM      8  C   UNL     1       1.431   0.791  -3.780  0.00  0.00    +0.086 C 
ATOM      9  C   UNL     1       0.704   1.040  -2.456  0.00  0.00    -0.059 C 
ATOM     10  C   UNL     1      -0.051  -1.260  -2.436  0.00  0.00    -0.059 C 
ATOM     11  C   UNL     1       0.676  -1.509  -3.760  0.00  0.00    +0.086 C 
ATOM     12  N   UNL     1      -0.477   0.155  -2.386  0.00  0.00    +0.385 N 
ATOM     13  H   UNL     1      -1.087   0.348  -3.190  0.00  0.00    -0.081 HD
BRANCH   7  20
ATOM     14  C   UNL     1       4.562  -1.405  -3.586  0.00  0.00    +0.045 C 
ATOM     15  C   UNL     1       3.903  -1.254  -4.933  0.00  0.00    -0.029 A 
ATOM     16  C   UNL     1       4.623  -1.501  -6.086  0.00  0.00    +0.006 A 
ATOM     17  C   UNL     1       4.020  -1.363  -7.322  0.00  0.00    +0.020 A 
ATOM     18  C   UNL     1       2.693  -0.978  -7.409  0.00  0.00    +0.043 A 
ATOM     19  C   UNL     1       1.966  -0.736  -6.259  0.00  0.00    +0.043 A 
ATOM     20  C   UNL     1       2.571  -0.868  -5.016  0.00  0.00    +0.034 A 
ATOM     21 CL   UNL     1       1.940  -0.806  -8.964  0.00  0.00    -0.083 Cl
ENDBRANCH   7  20
ENDBRANCH   1  12
BRANCH   6  22
ATOM     22  N   UNL     1      -3.313  -0.107  -2.310  0.00  0.00    -0.188 NA
ATOM     23  H   UNL     1      -3.342   0.806  -2.635  0.00  0.00    +0.148 HD
BRANCH  22  24
ATOM     24  S   UNL     1      -4.187  -1.286  -3.077  0.00  0.00    +0.059 S 
ATOM     25  O   UNL     1      -4.883  -0.650  -4.140  0.00  0.00    -0.153 OA
ATOM     26  O   UNL     1      -3.298  -2.375  -3.292  0.00  0.00    -0.153 OA
BRANCH  24  27
ATOM     27  C   UNL     1      -5.410  -1.852  -1.941  0.00  0.00    +0.105 A 
ATOM     28  C   UNL     1      -5.129  -2.906  -1.092  0.00  0.00    +0.030 A 
ATOM     29  C   UNL     1      -6.086  -3.346  -0.197  0.00  0.00    +0.022 A 
ATOM     30  C   UNL     1      -7.329  -2.738  -0.159  0.00  0.00    +0.041 A 
ATOM     31  C   UNL     1      -7.610  -1.687  -1.013  0.00  0.00    +0.022 A 
ATOM     32  C   UNL     1      -6.651  -1.244  -1.904  0.00  0.00    +0.030 A 
ATOM     33 CL   UNL     1      -8.533  -3.295   0.960  0.00  0.00    -0.084 Cl
ENDBRANCH  24  27
ENDBRANCH  22  24
ENDBRANCH   6  22
TORSDOF 5
