REMARK  Name = ZINC35606782
REMARK  8 active torsions:
REMARK  status: ('A' for Active; 'I' for Inactive)
REMARK    1  A    between atoms: C_1  and  N_2
REMARK    2  A    between atoms: C_9  and  C_21
REMARK    3  A    between atoms: C_11  and  C_17
REMARK    4  A    between atoms: C_11  and  C_19
REMARK    5  A    between atoms: C_12  and  N_16
REMARK    6  A    between atoms: C_13  and  C_14
REMARK    7  A    between atoms: C_25  and  O_27
REMARK    8  A    between atoms: O_27  and  C_28
REMARK                            x       y       z     vdW  Elec       q    Type
REMARK                         _______ _______ _______ _____ _____    ______ ____
ROOT
ATOM      1  C   UNL     1       1.559   1.312   0.106  0.00  0.00    +0.105 C 
ATOM      2  N   UNL     1       1.152  -0.099   0.060  0.00  0.00    -0.301 NA
ATOM      3  C   UNL     1       1.785  -0.795  -1.074  0.00  0.00    +0.111 C 
ATOM      4  C   UNL     1       1.184  -2.177  -1.153  0.00  0.00    -0.007 C 
ATOM      5  C   UNL     1       0.812  -2.799  -0.050  0.00  0.00    -0.026 C 
ATOM      6  C   UNL     1       1.007  -2.217   1.321  0.00  0.00    +0.044 C 
ATOM      7  C   UNL     1       1.475  -0.780   1.317  0.00  0.00    +0.093 C 
ATOM      8  C   UNL     1      -0.295  -2.397   2.103  0.00  0.00    +0.068 C 
ATOM      9  C   UNL     1      -0.573  -3.892   2.264  0.00  0.00    +0.188 C 
ATOM     10  C   UNL     1      -0.485  -4.619   0.956  0.00  0.00    +0.054 C 
ATOM     11  C   UNL     1       0.167  -4.133  -0.131  0.00  0.00    +0.074 C 
ENDROOT
BRANCH   8  12
ATOM     12  C   UNL     1      -0.161  -1.757   3.461  0.00  0.00    -0.037 A 
ATOM     13  C   UNL     1       0.988  -1.950   4.205  0.00  0.00    +0.004 A 
ATOM     14  C   UNL     1       1.114  -1.364   5.451  0.00  0.00    +0.004 A 
ATOM     15  C   UNL     1       0.092  -0.584   5.955  0.00  0.00    +0.046 A 
ATOM     16  C   UNL     1      -1.062  -0.388   5.210  0.00  0.00    +0.129 A 
ATOM     17  C   UNL     1      -1.184  -0.973   3.958  0.00  0.00    +0.050 A 
BRANCH  16  18
ATOM     18  O   UNL     1      -2.069   0.379   5.704  0.00  0.00    -0.456 OA
BRANCH  18  19
ATOM     19  C   UNL     1      -3.223   0.453   4.991  0.00  0.00    +0.128 A 
ATOM     20  C   UNL     1      -4.134  -0.593   5.030  0.00  0.00    +0.046 A 
ATOM     21  C   UNL     1      -5.306  -0.515   4.303  0.00  0.00    +0.004 A 
ATOM     22  C   UNL     1      -5.572   0.605   3.537  0.00  0.00    +0.000 A 
ATOM     23  C   UNL     1      -4.667   1.649   3.496  0.00  0.00    +0.004 A 
ATOM     24  C   UNL     1      -3.496   1.578   4.226  0.00  0.00    +0.046 A 
ENDBRANCH  18  19
ENDBRANCH  16  18
ENDBRANCH   8  12
BRANCH  10  25
ATOM     25  N   UNL     1      -1.093  -5.838   0.853  0.00  0.00    -0.358 N 
ATOM     26  H   UNL     1      -1.566  -6.211   1.614  0.00  0.00    +0.142 HD
ATOM     27  H   UNL     1      -1.052  -6.332   0.019  0.00  0.00    +0.142 HD
ENDBRANCH  10  25
BRANCH  11  28
ATOM     28  C   UNL     1       0.229  -4.896  -1.341  0.00  0.00    +0.101 C 
ATOM     29  N   UNL     1       0.279  -5.502  -2.300  0.00  0.00    -0.191 NA
ENDBRANCH  11  28
BRANCH   9  30
ATOM     30  C   UNL     1       0.410  -4.464   3.198  0.00  0.00    +0.091 C 
ATOM     31  N   UNL     1       1.169  -4.906   3.919  0.00  0.00    -0.194 NA
ENDBRANCH   9  30
BRANCH   9  32
ATOM     32  C   UNL     1      -1.923  -4.071   2.822  0.00  0.00    +0.091 C 
ATOM     33  N   UNL     1      -2.965  -4.209   3.253  0.00  0.00    -0.194 NA
ENDBRANCH   9  32
TORSDOF 7
