REMARK  Name = ZINC34132147
REMARK  2 active torsions:
REMARK  status: ('A' for Active; 'I' for Inactive)
REMARK    1  A    between atoms: C_1  and  C_2
REMARK    2  A    between atoms: C_13  and  C_14
REMARK                            x       y       z     vdW  Elec       q    Type
REMARK                         _______ _______ _______ _____ _____    ______ ____
ROOT
ATOM      1  C   UNL     1      -0.018   1.503   0.010  0.00  0.00    +0.065 C 
ATOM      2  C   UNL     1       0.002  -0.004   0.002  0.00  0.00    +0.040 A 
ATOM      3  C   UNL     1       0.005  -0.671  -1.206  0.00  0.00    +0.035 A 
ATOM      4  C   UNL     1       0.024  -2.066  -1.205  0.00  0.00    +0.036 A 
ATOM      5  C   UNL     1       0.039  -2.740   0.043  0.00  0.00    +0.103 A 
ATOM      6  C   UNL     1       0.035  -1.980   1.219  0.00  0.00    +0.123 A 
ATOM      7  S   UNL     1       0.054  -2.783   2.787  0.00  0.00    -0.030 SA
ATOM      8  N   UNL     1       0.022  -0.655   1.152  0.00  0.00    -0.244 NA
ATOM      9  C   UNL     1       0.057  -4.166  -0.270  0.00  0.00    +0.348 C 
ATOM     10  O   UNL     1       0.073  -5.070   0.544  0.00  0.00    -0.244 OA
ATOM     11  O   UNL     1       0.053  -4.316  -1.607  0.00  0.00    -0.422 OA
ATOM     12  C   UNL     1       0.034  -3.110  -2.228  0.00  0.00    +0.143 C 
ATOM     13  C   UNL     1       0.024  -2.908  -3.572  0.00  0.00    +0.093 C 
ENDROOT
BRANCH  13  14
ATOM     14  C   UNL     1       0.035  -4.015  -4.455  0.00  0.00    +0.133 A 
ATOM     15  C   UNL     1       0.033  -3.955  -5.833  0.00  0.00    +0.050 A 
ATOM     16  C   UNL     1       0.047  -5.282  -6.291  0.00  0.00    +0.057 A 
ATOM     17  C   UNL     1       0.056  -6.081  -5.200  0.00  0.00    +0.171 A 
ATOM     18  O   UNL     1       0.055  -5.316  -4.098  0.00  0.00    -0.449 OA
ATOM     19 BR   UNL     1       0.075  -7.972  -5.224  0.00  0.00    -0.008 Br
ENDBRANCH  13  14
TORSDOF 1
