REMARK  Name = ZINC66736774
REMARK  5 active torsions:
REMARK  status: ('A' for Active; 'I' for Inactive)
REMARK    1  A    between atoms: C_3  and  C_11
REMARK    2  A    between atoms: C_5  and  N_7
REMARK    3  A    between atoms: N_13  and  S_14
REMARK    4  A    between atoms: S_14  and  C_17
REMARK    5  A    between atoms: C_21  and  C_23
REMARK                            x       y       z     vdW  Elec       q    Type
REMARK                         _______ _______ _______ _____ _____    ______ ____
ROOT
ATOM      1  C   UNL     1       3.634   2.167  -0.406  0.00  0.00    +0.295 C 
ATOM      2  O   UNL     1       4.800   1.507  -0.592  0.00  0.00    -0.264 OA
ATOM      3  N   UNL     1       3.616   3.467  -0.404  0.00  0.00    -0.086 NA
ENDROOT
BRANCH   1   6
ATOM      4  C   UNL     1       0.005   1.380   0.173  0.00  0.00    +0.003 A 
ATOM      5  C   UNL     1       1.175   2.089  -0.013  0.00  0.00    +0.013 A 
ATOM      6  C   UNL     1       2.379   1.410  -0.205  0.00  0.00    +0.044 A 
ATOM      7  C   UNL     1       2.395   0.016  -0.207  0.00  0.00    +0.036 A 
ATOM      8  C   UNL     1       1.215  -0.687  -0.019  0.00  0.00    +0.035 A 
ATOM      9  C   UNL     1       0.021  -0.002   0.170  0.00  0.00    +0.023 A 
BRANCH   8  10
ATOM     10  N   UNL     1       1.226  -2.087  -0.021  0.00  0.00    -0.270 N 
ATOM     11  C   UNL     1       2.296  -2.752   0.457  0.00  0.00    +0.301 C 
ATOM     12  O   UNL     1       3.209  -2.142   0.979  0.00  0.00    -0.253 OA
ATOM     13  N   UNL     1       2.353  -4.095   0.358  0.00  0.00    -0.313 N 
ATOM     14  H   UNL     1       0.464  -2.577  -0.367  0.00  0.00    +0.156 HD
ATOM     15  H   UNL     1       1.625  -4.582  -0.058  0.00  0.00    +0.146 HD
ATOM     16  H   UNL     1       3.123  -4.575   0.702  0.00  0.00    +0.146 HD
ENDBRANCH   8  10
ENDBRANCH   1   6
BRANCH   3  17
ATOM     17  S   UNL     1       5.021   4.315  -0.628  0.00  0.00    +0.102 S 
ATOM     18  O   UNL     1       5.841   4.050   0.502  0.00  0.00    -0.146 OA
ATOM     19  O   UNL     1       5.448   4.049  -1.958  0.00  0.00    -0.146 OA
BRANCH  17  20
ATOM     20  C   UNL     1       4.612   6.027  -0.564  0.00  0.00    +0.114 A 
ATOM     21  C   UNL     1       4.258   6.696  -1.723  0.00  0.00    +0.032 A 
ATOM     22  C   UNL     1       3.936   8.040  -1.684  0.00  0.00    +0.041 A 
ATOM     23  C   UNL     1       3.966   8.726  -0.483  0.00  0.00    +0.141 A 
ATOM     24  C   UNL     1       4.323   8.055   0.691  0.00  0.00    +0.089 A 
ATOM     25  C   UNL     1       4.641   6.696   0.641  0.00  0.00    +0.050 A 
ATOM     26  F   UNL     1       3.652  10.039  -0.445  0.00  0.00    -0.204 F 
BRANCH  24  27
ATOM     27  C   UNL     1       4.358   8.757   1.939  0.00  0.00    +0.102 C 
ATOM     28  N   UNL     1       4.385   9.314   2.928  0.00  0.00    -0.191 NA
ENDBRANCH  24  27
ENDBRANCH  17  20
ENDBRANCH   3  17
TORSDOF 5
