REMARK  Name = ZINC17066489
REMARK  8 active torsions:
REMARK  status: ('A' for Active; 'I' for Inactive)
REMARK    1  A    between atoms: C_1  and  C_2
REMARK    2  A    between atoms: C_2  and  C_4
REMARK    3  A    between atoms: C_2  and  N_14
REMARK    4  A    between atoms: C_4  and  N_5
REMARK    5  A    between atoms: C_6  and  C_8
REMARK    6  A    between atoms: C_12  and  N_13
REMARK    7  A    between atoms: C_15  and  C_17
REMARK    8  A    between atoms: C_21  and  N_22
REMARK                            x       y       z     vdW  Elec       q    Type
REMARK                         _______ _______ _______ _____ _____    ______ ____
ROOT
ATOM      1  C   UNL     1       7.454  -2.564   0.042  0.00  0.00    +0.029 C 
ATOM      2  C   UNL     1       5.943  -2.347  -0.068  0.00  0.00    +0.087 C 
ENDROOT
BRANCH   2   3
ATOM      3  N   UNL     1       5.274  -2.988   1.067  0.00  0.00    -0.307 N 
ATOM      4  C   UNL     1       4.960  -4.298   1.012  0.00  0.00    +0.247 C 
ATOM      5  O   UNL     1       5.232  -4.948   0.019  0.00  0.00    -0.270 OA
ATOM      6  H   UNL     1       5.057  -2.470   1.858  0.00  0.00    +0.149 HD
BRANCH   4   7
ATOM      7  C   UNL     1       4.291  -4.939   2.146  0.00  0.00    +0.065 A 
ATOM      8  C   UNL     1       3.957  -4.203   3.344  0.00  0.00    +0.022 A 
ATOM      9  C   UNL     1       3.339  -4.880   4.327  0.00  0.00    +0.048 A 
ATOM     10  S   UNL     1       3.204  -6.529   3.670  0.00  0.00    -0.082 S 
ATOM     11  C   UNL     1       3.951  -6.288   2.127  0.00  0.00    +0.075 A 
BRANCH  11  12
ATOM     12  N   UNL     1       4.158  -7.211   1.119  0.00  0.00    -0.352 N 
ATOM     13  H   UNL     1       4.593  -6.940   0.295  0.00  0.00    +0.143 HD
ATOM     14  H   UNL     1       3.869  -8.129   1.236  0.00  0.00    +0.143 HD
ENDBRANCH  11  12
ENDBRANCH   4   7
ENDBRANCH   2   3
BRANCH   2  15
ATOM     15  C   UNL     1       5.641  -0.848  -0.057  0.00  0.00    +0.126 C 
BRANCH  15  16
ATOM     16  N   UNL     1       4.191  -0.642  -0.042  0.00  0.00    -0.310 N 
ATOM     17  C   UNL     1       3.688   0.609  -0.030  0.00  0.00    +0.246 C 
ATOM     18  O   UNL     1       4.438   1.567  -0.033  0.00  0.00    -0.270 OA
ATOM     19  H   UNL     1       3.592  -1.405  -0.040  0.00  0.00    +0.149 HD
BRANCH  17  20
ATOM     20  C   UNL     1       2.238   0.814  -0.015  0.00  0.00    +0.065 A 
ATOM     21  C   UNL     1       1.314  -0.296  -0.012  0.00  0.00    +0.022 A 
ATOM     22  C   UNL     1       0.002  -0.004   0.002  0.00  0.00    +0.048 A 
ATOM     23  S   UNL     1      -0.022   1.776   0.012  0.00  0.00    -0.082 S 
ATOM     24  C   UNL     1       1.681   2.089  -0.003  0.00  0.00    +0.075 A 
BRANCH  24  25
ATOM     25  N   UNL     1       2.330   3.310  -0.003  0.00  0.00    -0.352 N 
ATOM     26  H   UNL     1       1.816   4.132   0.007  0.00  0.00    +0.143 HD
ATOM     27  H   UNL     1       3.299   3.343  -0.012  0.00  0.00    +0.143 HD
ENDBRANCH  24  25
ENDBRANCH  17  20
ENDBRANCH  15  16
ENDBRANCH   2  15
TORSDOF 7
