REMARK  Name = ZINC36024263
REMARK  10 active torsions:
REMARK  status: ('A' for Active; 'I' for Inactive)
REMARK    1  A    between atoms: C_1  and  C_2
REMARK    2  A    between atoms: C_2  and  C_3
REMARK    3  A    between atoms: C_3  and  C_5
REMARK    4  A    between atoms: C_3  and  C_6
REMARK    5  A    between atoms: C_6  and  N_7
REMARK    6  A    between atoms: C_10  and  C_32
REMARK    7  A    between atoms: N_21  and  C_22
REMARK    8  A    between atoms: C_25  and  C_28
REMARK    9  A    between atoms: C_32  and  C_33
REMARK   10  A    between atoms: C_32  and  C_34
REMARK                            x       y       z     vdW  Elec       q    Type
REMARK                         _______ _______ _______ _____ _____    ______ ____
ROOT
ATOM      1  N   UNL     1      -3.034  -2.928  -0.351  0.00  0.00    -0.313 N 
ATOM      2  C   UNL     1      -3.765  -3.110   0.768  0.00  0.00    +0.201 C 
ATOM      3  O   UNL     1      -3.753  -2.395   1.748  0.00  0.00    -0.277 OA
ATOM      4  C   UNL     1      -4.605  -4.357   0.595  0.00  0.00    +0.022 C 
ATOM      5  N   UNL     1      -4.588  -4.625  -0.864  0.00  0.00    +0.401 N 
ATOM      6  C   UNL     1      -3.326  -3.999  -1.306  0.00  0.00    +0.006 C 
ATOM      7  C   UNL     1      -2.208  -5.040  -1.293  0.00  0.00    +0.025 C 
ATOM      8  C   UNL     1      -0.893  -4.377  -1.717  0.00  0.00    +0.109 C 
ATOM      9  N   UNL     1      -1.095  -3.712  -3.012  0.00  0.00    -0.285 N 
ATOM     10  C   UNL     1      -2.195  -2.748  -3.147  0.00  0.00    +0.109 C 
ATOM     11  C   UNL     1      -3.499  -3.424  -2.711  0.00  0.00    +0.025 C 
ATOM     12  C   UNL     1      -0.286  -3.982  -4.055  0.00  0.00    +0.306 C 
ATOM     13  O   UNL     1      -0.510  -3.485  -5.142  0.00  0.00    -0.252 OA
ATOM     14  N   UNL     1       0.771  -4.802  -3.894  0.00  0.00    -0.269 N 
ATOM     15  H   UNL     1      -4.580  -5.618  -1.044  0.00  0.00    -0.082 HD
ATOM     16  H   UNL     1       0.923  -5.236  -3.040  0.00  0.00    +0.156 HD
ATOM     17  H   UNL     1      -5.377  -4.186  -1.315  0.00  0.00    -0.082 HD
ENDROOT
BRANCH  14  18
ATOM     18  C   UNL     1       1.650  -5.029  -4.960  0.00  0.00    +0.035 A 
ATOM     19  C   UNL     1       1.929  -4.009  -5.860  0.00  0.00    +0.024 A 
ATOM     20  C   UNL     1       2.797  -4.236  -6.910  0.00  0.00    +0.014 A 
ATOM     21  C   UNL     1       3.388  -5.476  -7.066  0.00  0.00    +0.055 A 
ATOM     22  C   UNL     1       3.111  -6.494  -6.172  0.00  0.00    +0.014 A 
ATOM     23  C   UNL     1       2.248  -6.272  -5.116  0.00  0.00    +0.024 A 
BRANCH  21  24
ATOM     24  C   UNL     1       4.334  -5.720  -8.213  0.00  0.00    +0.417 C 
ATOM     25  F   UNL     1       5.639  -5.409  -7.816  0.00  0.00    -0.166 F 
ATOM     26  F   UNL     1       4.271  -7.065  -8.592  0.00  0.00    -0.166 F 
ATOM     27  F   UNL     1       3.971  -4.913  -9.297  0.00  0.00    -0.166 F 
ENDBRANCH  21  24
ENDBRANCH  14  18
BRANCH   4  28
ATOM     28  C   UNL     1      -6.035  -4.108   1.077  0.00  0.00    -0.023 C 
ATOM     29  C   UNL     1      -6.018  -3.758   2.566  0.00  0.00    +0.006 C 
ATOM     30  C   UNL     1      -6.645  -2.947   0.288  0.00  0.00    +0.006 C 
ENDBRANCH   4  28
BRANCH   1  31
ATOM     31  C   UNL     1      -2.097  -1.825  -0.578  0.00  0.00    +0.109 C 
BRANCH  31  32
ATOM     32  C   UNL     1      -2.880  -0.541  -0.864  0.00  0.00    +0.003 C 
ATOM     33  C   UNL     1      -3.915  -0.808  -1.958  0.00  0.00    +0.009 C 
BRANCH  32  35
ATOM     34  C   UNL     1      -2.677   1.867  -1.496  0.00  0.00    +0.004 C 
ATOM     35  C   UNL     1      -1.915   0.551  -1.329  0.00  0.00    +0.001 C 
ENDBRANCH  32  35
ENDBRANCH  31  32
ENDBRANCH   1  31
TORSDOF 6
