REMARK  Name = ZINC01839139
REMARK  6 active torsions:
REMARK  status: ('A' for Active; 'I' for Inactive)
REMARK    1  A    between atoms: C_1  and  C_2
REMARK    2  A    between atoms: N_11  and  C_30
REMARK    3  A    between atoms: C_15  and  S_19
REMARK    4  A    between atoms: S_19  and  C_20
REMARK    5  A    between atoms: C_20  and  C_21
REMARK    6  A    between atoms: C_24  and  N_27
REMARK                            x       y       z     vdW  Elec       q    Type
REMARK                         _______ _______ _______ _____ _____    ______ ____
ROOT
ATOM      1  C   UNL     1       3.629   1.087  -0.337  0.00  0.00    +0.008 C 
ATOM      2  C   UNL     1       2.801  -0.199  -0.303  0.00  0.00    -0.009 C 
ATOM      3  C   UNL     1       3.278  -1.141  -1.413  0.00  0.00    +0.009 C 
ATOM      4  C   UNL     1       2.285  -2.307  -1.538  0.00  0.00    +0.043 C 
ATOM      5  C   UNL     1       2.015  -2.841  -0.165  0.00  0.00    -0.004 A 
ATOM      6  C   UNL     1       2.300  -2.242   1.009  0.00  0.00    -0.023 A 
ATOM      7  C   UNL     1       1.920  -3.006   2.198  0.00  0.00    +0.075 A 
ATOM      8  C   UNL     1       2.097  -2.628   3.619  0.00  0.00    +0.268 A 
ATOM      9  O   UNL     1       2.615  -1.565   3.908  0.00  0.00    -0.266 OA
ATOM     10  N   UNL     1       1.684  -3.463   4.587  0.00  0.00    -0.245 N 
ATOM     11  C   UNL     1       1.091  -4.679   4.285  0.00  0.00    +0.245 A 
ATOM     12  N   UNL     1       0.620  -5.633   5.054  0.00  0.00    -0.109 NA
ATOM     13  N   UNL     1       0.127  -6.651   4.230  0.00  0.00    -0.120 NA
ATOM     14  C   UNL     1       0.310  -6.290   2.983  0.00  0.00    +0.198 A 
ATOM     15  N   UNL     1       0.911  -5.060   2.981  0.00  0.00    -0.249 N 
ATOM     16  C   UNL     1       1.320  -4.235   1.954  0.00  0.00    +0.102 A 
ATOM     17  S   UNL     1       1.261  -4.375   0.288  0.00  0.00    -0.074 S 
ATOM     18  C   UNL     1       2.968  -0.876   1.059  0.00  0.00    +0.040 C 
ENDROOT
BRANCH  10  19
ATOM     19  C   UNL     1       1.855  -3.097   5.927  0.00  0.00    +0.053 A 
ATOM     20  C   UNL     1       3.022  -3.441   6.598  0.00  0.00    +0.028 A 
ATOM     21  C   UNL     1       3.189  -3.078   7.920  0.00  0.00    +0.022 A 
ATOM     22  C   UNL     1       2.195  -2.374   8.577  0.00  0.00    +0.041 A 
ATOM     23  C   UNL     1       1.032  -2.030   7.910  0.00  0.00    +0.022 A 
ATOM     24  C   UNL     1       0.862  -2.385   6.587  0.00  0.00    +0.028 A 
ATOM     25 CL   UNL     1       2.408  -1.921  10.239  0.00  0.00    -0.084 Cl
ENDBRANCH  10  19
BRANCH  14  26
ATOM     26  S   UNL     1      -0.140  -7.225   1.559  0.00  0.00    -0.081 S 
BRANCH  26  27
ATOM     27  C   UNL     1      -0.883  -8.733   2.240  0.00  0.00    +0.112 C 
BRANCH  27  28
ATOM     28  C   UNL     1      -1.317  -9.633   1.112  0.00  0.00    -0.037 A 
ATOM     29  C   UNL     1      -2.590  -9.515   0.585  0.00  0.00    +0.007 A 
ATOM     30  C   UNL     1      -2.988 -10.341  -0.450  0.00  0.00    +0.033 A 
ATOM     31  C   UNL     1      -2.114 -11.283  -0.958  0.00  0.00    +0.126 A 
ATOM     32  C   UNL     1      -0.841 -11.400  -0.432  0.00  0.00    +0.033 A 
ATOM     33  C   UNL     1      -0.441 -10.572   0.600  0.00  0.00    +0.007 A 
BRANCH  31  34
ATOM     34  N   UNL     1      -2.541 -12.167  -2.066  0.00  0.00    +0.056 N 
ATOM     35  O   UNL     1      -3.655 -12.065  -2.526  0.00  0.00    -0.126 OA
ATOM     36  O   UNL     1      -1.777 -12.992  -2.510  0.00  0.00    -0.126 OA
ENDBRANCH  31  34
ENDBRANCH  27  28
ENDBRANCH  26  27
ENDBRANCH  14  26
TORSDOF 5
