REMARK  Name = ZINC20799058
REMARK  5 active torsions:
REMARK  status: ('A' for Active; 'I' for Inactive)
REMARK    1  A    between atoms: C_4  and  N_7
REMARK    2  A    between atoms: C_13  and  C_18
REMARK    3  A    between atoms: C_18  and  C_19
REMARK    4  A    between atoms: N_21  and  C_22
REMARK    5  A    between atoms: C_27  and  C_28
REMARK                            x       y       z     vdW  Elec       q    Type
REMARK                         _______ _______ _______ _____ _____    ______ ____
ROOT
ATOM      1  N   UNL     1       3.500  -0.895  -0.612  0.00  0.00    -0.326 N 
ATOM      2  C   UNL     1       3.540  -2.271  -0.609  0.00  0.00    +0.201 C 
ATOM      3  N   UNL     1       2.432  -2.954  -0.640  0.00  0.00    -0.268 NA
ATOM      4  N   UNL     1       4.753  -2.925  -0.572  0.00  0.00    -0.295 N 
ATOM      5  C   UNL     1       4.793  -4.308  -0.569  0.00  0.00    +0.230 C 
ATOM      6  N   UNL     1       5.899  -4.997  -0.530  0.00  0.00    -0.236 NA
ATOM      7  C   UNL     1       5.504  -6.417  -0.542  0.00  0.00    +0.208 C 
ATOM      8  C   UNL     1       3.990  -6.357  -0.594  0.00  0.00    +0.274 C 
ATOM      9  O   UNL     1       3.134  -7.394  -0.621  0.00  0.00    -0.268 OA
ATOM     10  N   UNL     1       3.691  -5.087  -0.600  0.00  0.00    -0.176 NA
ATOM     11  H   UNL     1       2.648  -0.434  -0.548  0.00  0.00    +0.169 HD
ATOM     12  H   UNL     1       1.582  -2.497  -0.740  0.00  0.00    +0.190 HD
ATOM     13  H   UNL     1       5.578  -2.416  -0.549  0.00  0.00    +0.172 HD
ENDROOT
BRANCH   1  17
ATOM     14  C   UNL     1       7.034   1.291  -0.895  0.00  0.00    +0.000 A 
ATOM     15  C   UNL     1       6.868   0.147  -1.654  0.00  0.00    +0.002 A 
ATOM     16  C   UNL     1       5.697  -0.580  -1.562  0.00  0.00    +0.026 A 
ATOM     17  C   UNL     1       4.687  -0.161  -0.707  0.00  0.00    +0.042 A 
ATOM     18  C   UNL     1       4.857   0.989   0.054  0.00  0.00    +0.026 A 
ATOM     19  C   UNL     1       6.030   1.711  -0.042  0.00  0.00    +0.002 A 
ENDBRANCH   1  17
BRANCH   7  20
ATOM     20  C   UNL     1       5.976  -7.119   0.732  0.00  0.00    +0.132 C 
BRANCH  20  21
ATOM     21  C   UNL     1       7.482  -7.171   0.748  0.00  0.00    +0.220 C 
ATOM     22  O   UNL     1       8.115  -6.694  -0.169  0.00  0.00    -0.275 OA
ATOM     23  N   UNL     1       8.126  -7.749   1.782  0.00  0.00    -0.285 N 
ATOM     24  H   UNL     1       7.626  -8.052   2.556  0.00  0.00    +0.155 HD
BRANCH  23  25
ATOM     25  C   UNL     1       9.515  -7.910   1.740  0.00  0.00    +0.045 A 
ATOM     26  C   UNL     1      10.184  -7.868   0.523  0.00  0.00    +0.024 A 
ATOM     27  C   UNL     1      11.555  -8.028   0.484  0.00  0.00    +0.002 A 
ATOM     28  C   UNL     1      12.262  -8.229   1.655  0.00  0.00    +0.001 A 
ATOM     29  C   UNL     1      11.600  -8.271   2.868  0.00  0.00    +0.014 A 
ATOM     30  C   UNL     1      10.229  -8.106   2.914  0.00  0.00    +0.076 A 
BRANCH  30  31
ATOM     31  C   UNL     1       9.509  -8.145   4.237  0.00  0.00    +0.419 C 
ATOM     32  F   UNL     1      10.434  -8.352   5.266  0.00  0.00    -0.166 F 
ATOM     33  F   UNL     1       8.847  -6.930   4.444  0.00  0.00    -0.166 F 
ATOM     34  F   UNL     1       8.577  -9.188   4.231  0.00  0.00    -0.166 F 
ENDBRANCH  30  31
ENDBRANCH  23  25
ENDBRANCH  20  21
ENDBRANCH   7  20
TORSDOF 5
