REMARK  Name = ZINC01325966
REMARK  10 active torsions:
REMARK  status: ('A' for Active; 'I' for Inactive)
REMARK    1  A    between atoms: C_1  and  C_2
REMARK    2  A    between atoms: C_2  and  N_3
REMARK    3  A    between atoms: C_7  and  C_9
REMARK    4  A    between atoms: C_9  and  N_10
REMARK    5  A    between atoms: N_10  and  C_11
REMARK    6  A    between atoms: N_10  and  C_25
REMARK    7  A    between atoms: C_11  and  C_12
REMARK    8  A    between atoms: C_17  and  C_24
REMARK    9  A    between atoms: C_25  and  N_27
REMARK   10  A    between atoms: N_27  and  C_28
REMARK                            x       y       z     vdW  Elec       q    Type
REMARK                         _______ _______ _______ _____ _____    ______ ____
ROOT
ATOM      1  N   UNL     1      -1.578  -2.040  -2.939  0.00  0.00    -0.309 N 
ENDROOT
BRANCH   1   2
ATOM      2  C   UNL     1      -2.553  -2.693  -2.276  0.00  0.00    +0.137 C 
ATOM      3  S   UNL     1      -4.196  -2.339  -2.603  0.00  0.00    -0.018 S 
BRANCH   2   4
ATOM      4  N   UNL     1      -2.235  -3.624  -1.355  0.00  0.00    -0.297 N 
ATOM      5  H   UNL     1      -1.307  -3.866  -1.210  0.00  0.00    +0.154 HD
BRANCH   4   6
ATOM      6  C   UNL     1      -3.244  -4.242  -0.607  0.00  0.00    +0.033 A 
ATOM      7  C   UNL     1      -4.383  -4.724  -1.239  0.00  0.00    +0.026 A 
ATOM      8  C   UNL     1      -5.377  -5.333  -0.500  0.00  0.00    +0.040 A 
ATOM      9  C   UNL     1      -5.239  -5.464   0.872  0.00  0.00    +0.124 A 
ATOM     10  C   UNL     1      -4.105  -4.985   1.505  0.00  0.00    +0.040 A 
ATOM     11  C   UNL     1      -3.105  -4.380   0.768  0.00  0.00    +0.026 A 
ATOM     12  F   UNL     1      -6.213  -6.061   1.594  0.00  0.00    -0.205 F 
ENDBRANCH   4   6
ENDBRANCH   2   4
ENDBRANCH   1   2
BRANCH   1  13
ATOM     13  C   UNL     1      -0.173  -2.343  -2.659  0.00  0.00    +0.092 C 
BRANCH  13  18
ATOM     14  N   UNL     1       0.020  -0.154  -1.553  0.00  0.00    +0.382 N 
ATOM     15  C   UNL     1       1.313   0.557  -1.468  0.00  0.00    -0.078 C 
ATOM     16  C   UNL     1       2.234  -0.392  -0.660  0.00  0.00    -0.020 C 
ATOM     17  C   UNL     1       1.784  -1.783  -1.180  0.00  0.00    -0.016 C 
ATOM     18  C   UNL     1       0.267  -1.599  -1.396  0.00  0.00    -0.051 C 
ATOM     19  H   UNL     1      -0.404   0.022  -2.451  0.00  0.00    -0.081 HD
BRANCH  14  21
ATOM     20  C   UNL     1      -1.226   1.783  -0.721  0.00  0.00    -0.017 C 
ATOM     21  C   UNL     1      -0.872   0.314  -0.484  0.00  0.00    -0.082 C 
ENDBRANCH  14  21
ENDBRANCH  13  18
ENDBRANCH   1  13
BRANCH   1  22
ATOM     22  C   UNL     1      -1.924  -1.028  -3.940  0.00  0.00    +0.147 C 
BRANCH  22  23
ATOM     23  C   UNL     1      -2.136  -1.694  -5.275  0.00  0.00    +0.035 A 
ATOM     24  C   UNL     1      -3.387  -2.037  -5.668  0.00  0.00    +0.020 A 
ATOM     25  C   UNL     1      -3.559  -2.682  -6.972  0.00  0.00    -0.001 A 
ATOM     26  C   UNL     1      -4.825  -3.058  -7.432  0.00  0.00    +0.010 A 
ATOM     27  C   UNL     1      -4.951  -3.658  -8.652  0.00  0.00    +0.004 A 
ATOM     28  C   UNL     1      -3.834  -3.897  -9.441  0.00  0.00    -0.048 A 
ATOM     29  C   UNL     1      -2.577  -3.535  -9.008  0.00  0.00    +0.029 A 
ATOM     30  C   UNL     1      -2.424  -2.922  -7.768  0.00  0.00    +0.049 A 
ATOM     31  N   UNL     1      -1.178  -2.549  -7.311  0.00  0.00    -0.322 N 
ATOM     32  H   UNL     1      -0.397  -2.716  -7.861  0.00  0.00    +0.169 HD
ATOM     33  C   UNL     1      -1.031  -1.952  -6.115  0.00  0.00    +0.254 A 
ATOM     34  O   UNL     1       0.085  -1.631  -5.744  0.00  0.00    -0.268 OA
ATOM     35  C   UNL     1      -3.997  -4.560 -10.784  0.00  0.00    +0.044 C 
ENDBRANCH  22  23
ENDBRANCH   1  22
TORSDOF 8
