REMARK  Name = ZINC13015855
REMARK  9 active torsions:
REMARK  status: ('A' for Active; 'I' for Inactive)
REMARK    1  A    between atoms: C_6  and  N_7
REMARK    2  A    between atoms: C_8  and  C_26
REMARK    3  A    between atoms: C_11  and  S_12
REMARK    4  A    between atoms: S_12  and  C_13
REMARK    5  A    between atoms: C_13  and  C_14
REMARK    6  A    between atoms: C_14  and  O_15
REMARK    7  A    between atoms: O_15  and  C_16
REMARK    8  A    between atoms: C_19  and  S_22
REMARK    9  A    between atoms: S_22  and  N_25
REMARK                            x       y       z     vdW  Elec       q    Type
REMARK                         _______ _______ _______ _____ _____    ______ ____
ROOT
ATOM      1  S   UNL     1      -0.888   1.685  -1.458  0.00  0.00    -0.084 S 
ENDROOT
BRANCH   1   6
ATOM      2  N   UNL     1      -0.084   1.123  -4.061  0.00  0.00    -0.282 N 
ATOM      3  C   UNL     1       0.939   0.426  -4.696  0.00  0.00    +0.156 A 
ATOM      4  C   UNL     1       1.720  -0.110  -3.694  0.00  0.00    +0.147 A 
ATOM      5  N   UNL     1       1.196   0.252  -2.526  0.00  0.00    -0.229 NA
ATOM      6  C   UNL     1       0.122   0.990  -2.724  0.00  0.00    +0.174 A 
BRANCH   2  12
ATOM      7  C   UNL     1      -2.067   1.152  -5.442  0.00  0.00    +0.029 A 
ATOM      8  C   UNL     1      -3.095   1.848  -6.047  0.00  0.00    +0.040 A 
ATOM      9  C   UNL     1      -3.180   3.223  -5.903  0.00  0.00    +0.124 A 
ATOM     10  C   UNL     1      -2.238   3.901  -5.148  0.00  0.00    +0.040 A 
ATOM     11  C   UNL     1      -1.212   3.208  -4.537  0.00  0.00    +0.029 A 
ATOM     12  C   UNL     1      -1.125   1.829  -4.680  0.00  0.00    +0.049 A 
ATOM     13  F   UNL     1      -4.184   3.903  -6.499  0.00  0.00    -0.205 F 
ENDBRANCH   2  12
BRANCH   3  14
ATOM     14  C   UNL     1       1.135   0.288  -6.093  0.00  0.00    +0.405 C 
ATOM     15  O   UNL     1       2.076  -0.359  -6.514  0.00  0.00    -0.239 OA
ATOM     16  O   UNL     1       0.279   0.875  -6.955  0.00  0.00    -0.239 OA
ENDBRANCH   3  14
ENDBRANCH   1   6
BRANCH   1  17
ATOM     17  C   UNL     1      -0.013   1.086   0.008  0.00  0.00    +0.118 C 
BRANCH  17  18
ATOM     18  C   UNL     1      -0.729   1.579   1.267  0.00  0.00    +0.240 C 
BRANCH  18  19
ATOM     19  O   UNL     1      -0.038   1.106   2.425  0.00  0.00    -0.491 OA
BRANCH  19  20
ATOM     20  C   UNL     1      -0.547   1.458   3.634  0.00  0.00    +0.121 A 
ATOM     21  C   UNL     1      -1.686   2.247   3.705  0.00  0.00    +0.047 A 
ATOM     22  C   UNL     1      -2.206   2.598   4.936  0.00  0.00    +0.032 A 
ATOM     23  C   UNL     1      -1.585   2.173   6.097  0.00  0.00    +0.105 A 
ATOM     24  C   UNL     1      -0.447   1.391   6.028  0.00  0.00    +0.032 A 
ATOM     25  C   UNL     1       0.073   1.032   4.800  0.00  0.00    +0.047 A 
BRANCH  23  26
ATOM     26  S   UNL     1      -2.246   2.629   7.665  0.00  0.00    +0.056 S 
ATOM     27  O   UNL     1      -3.625   2.907   7.460  0.00  0.00    -0.153 OA
ATOM     28  O   UNL     1      -1.796   1.653   8.595  0.00  0.00    -0.153 OA
BRANCH  26  29
ATOM     29  N   UNL     1      -1.534   4.060   8.099  0.00  0.00    -0.204 NA
ATOM     30  H   UNL     1      -2.017   4.693   8.654  0.00  0.00    +0.144 HD
ATOM     31  H   UNL     1      -0.635   4.265   7.799  0.00  0.00    +0.144 HD
ENDBRANCH  26  29
ENDBRANCH  23  26
ENDBRANCH  19  20
ENDBRANCH  18  19
ENDBRANCH  17  18
ENDBRANCH   1  17
TORSDOF 9
