REMARK  Name = ZINC08598571
REMARK  10 active torsions:
REMARK  status: ('A' for Active; 'I' for Inactive)
REMARK    1  A    between atoms: C_1  and  C_2
REMARK    2  A    between atoms: C_5  and  N_8
REMARK    3  A    between atoms: C_11  and  C_13
REMARK    4  A    between atoms: C_14  and  C_19
REMARK    5  A    between atoms: C_16  and  C_18
REMARK    6  A    between atoms: N_21  and  C_22
REMARK    7  A    between atoms: C_22  and  C_23
REMARK    8  A    between atoms: C_23  and  C_24
REMARK    9  A    between atoms: C_27  and  S_30
REMARK   10  A    between atoms: S_30  and  N_33
REMARK                            x       y       z     vdW  Elec       q    Type
REMARK                         _______ _______ _______ _____ _____    ______ ____
ROOT
ATOM      1  N   UNL     1       0.712  -4.362  -0.159  0.00  0.00    -0.214 N 
ATOM      2  C   UNL     1       1.101  -5.102   0.930  0.00  0.00    +0.164 A 
ATOM      3  C   UNL     1       0.900  -6.454   0.583  0.00  0.00    +0.054 A 
ATOM      4  C   UNL     1       0.386  -6.473  -0.731  0.00  0.00    +0.070 A 
ATOM      5  N   UNL     1       0.275  -5.246  -1.153  0.00  0.00    -0.169 NA
ATOM      6  C   UNL     1       0.022  -7.708  -1.514  0.00  0.00    +0.068 C 
ATOM      7  C   UNL     1       1.220  -7.457   1.525  0.00  0.00    +0.051 A 
ATOM      8  C   UNL     1       1.721  -7.052   2.760  0.00  0.00    +0.037 A 
ATOM      9  C   UNL     1       1.887  -5.700   3.017  0.00  0.00    +0.041 A 
ATOM     10  N   UNL     1       1.582  -4.785   2.123  0.00  0.00    -0.232 NA
ATOM     11  C   UNL     1       2.429  -5.267   4.355  0.00  0.00    +0.065 C 
ENDROOT
BRANCH   1  16
ATOM     12  C   UNL     1       0.827   1.297  -0.553  0.00  0.00    +0.044 C 
ATOM     13  C   UNL     1       0.796  -0.206  -0.448  0.00  0.00    -0.050 A 
ATOM     14  C   UNL     1       1.058  -0.980  -1.563  0.00  0.00    +0.005 A 
ATOM     15  C   UNL     1       1.031  -2.358  -1.471  0.00  0.00    +0.028 A 
ATOM     16  C   UNL     1       0.740  -2.965  -0.256  0.00  0.00    +0.068 A 
ATOM     17  C   UNL     1       0.478  -2.184   0.862  0.00  0.00    +0.028 A 
ATOM     18  C   UNL     1       0.512  -0.807   0.764  0.00  0.00    +0.005 A 
ENDBRANCH   1  16
BRANCH   7  19
ATOM     19  C   UNL     1       1.028  -8.889   1.211  0.00  0.00    +0.245 C 
ATOM     20  O   UNL     1       0.061  -9.245   0.565  0.00  0.00    -0.270 OA
ATOM     21  N   UNL     1       1.924  -9.799   1.641  0.00  0.00    -0.311 N 
ATOM     22  H   UNL     1       2.695  -9.515   2.156  0.00  0.00    +0.149 HD
BRANCH  21  23
ATOM     23  C   UNL     1       1.733 -11.218   1.329  0.00  0.00    +0.109 C 
BRANCH  23  24
ATOM     24  C   UNL     1       2.883 -12.030   1.929  0.00  0.00    +0.054 C 
BRANCH  24  25
ATOM     25  C   UNL     1       2.687 -13.490   1.609  0.00  0.00    -0.046 A 
ATOM     26  C   UNL     1       1.967 -14.296   2.470  0.00  0.00    +0.005 A 
ATOM     27  C   UNL     1       1.787 -15.635   2.177  0.00  0.00    +0.029 A 
ATOM     28  C   UNL     1       2.327 -16.167   1.021  0.00  0.00    +0.105 A 
ATOM     29  C   UNL     1       3.046 -15.361   0.159  0.00  0.00    +0.029 A 
ATOM     30  C   UNL     1       3.222 -14.021   0.450  0.00  0.00    +0.005 A 
BRANCH  28  31
ATOM     31  S   UNL     1       2.099 -17.874   0.647  0.00  0.00    +0.056 S 
ATOM     32  O   UNL     1       3.164 -18.246  -0.217  0.00  0.00    -0.153 OA
ATOM     33  O   UNL     1       1.855 -18.531   1.883  0.00  0.00    -0.153 OA
BRANCH  31  34
ATOM     34  N   UNL     1       0.706 -17.999  -0.239  0.00  0.00    -0.204 NA
ATOM     35  H   UNL     1       0.193 -17.204  -0.451  0.00  0.00    +0.144 HD
ATOM     36  H   UNL     1       0.402 -18.868  -0.546  0.00  0.00    +0.144 HD
ENDBRANCH  31  34
ENDBRANCH  28  31
ENDBRANCH  24  25
ENDBRANCH  23  24
ENDBRANCH  21  23
ENDBRANCH   7  19
TORSDOF 7
