REMARK  Name = ZINC20119196
REMARK  8 active torsions:
REMARK  status: ('A' for Active; 'I' for Inactive)
REMARK    1  A    between atoms: C_1  and  C_2
REMARK    2  A    between atoms: C_2  and  C_4
REMARK    3  A    between atoms: C_2  and  N_10
REMARK    4  A    between atoms: C_11  and  C_13
REMARK    5  A    between atoms: C_16  and  N_19
REMARK    6  A    between atoms: N_19  and  C_20
REMARK    7  A    between atoms: C_20  and  N_22
REMARK    8  A    between atoms: C_23  and  C_25
REMARK                            x       y       z     vdW  Elec       q    Type
REMARK                         _______ _______ _______ _____ _____    ______ ____
ROOT
ATOM      1  C   UNL     1       1.195  -0.685  -0.033  0.00  0.00    +0.037 A 
ATOM      2  C   UNL     1       0.011   0.002   0.251  0.00  0.00    +0.015 A 
ATOM      3  C   UNL     1       0.001   1.378   0.264  0.00  0.00    +0.024 A 
ATOM      4  C   UNL     1       1.169   2.086  -0.004  0.00  0.00    +0.033 A 
ATOM      5  C   UNL     1       2.349   1.405  -0.287  0.00  0.00    +0.024 A 
ATOM      6  C   UNL     1       2.366   0.029  -0.301  0.00  0.00    +0.015 A 
ENDROOT
BRANCH   1   8
ATOM      7  N   UNL     1       2.351  -2.821  -0.320  0.00  0.00    -0.305 N 
ATOM      8  C   UNL     1       1.208  -2.161  -0.047  0.00  0.00    +0.245 C 
ATOM      9  O   UNL     1       0.189  -2.780   0.188  0.00  0.00    -0.270 OA
ATOM     10  H   UNL     1       3.273  -2.260  -0.532  0.00  0.00    +0.150 HD
BRANCH   7  12
ATOM     11  C   UNL     1       2.575  -4.808   1.088  0.00  0.00    +0.033 C 
ATOM     12  C   UNL     1       2.365  -4.286  -0.335  0.00  0.00    +0.100 C 
BRANCH  12  13
ATOM     13  C   UNL     1       3.486  -4.769  -1.218  0.00  0.00    -0.027 A 
ATOM     14  C   UNL     1       4.706  -4.120  -1.203  0.00  0.00    +0.005 A 
ATOM     15  C   UNL     1       5.736  -4.566  -2.010  0.00  0.00    +0.000 A 
ATOM     16  C   UNL     1       5.543  -5.655  -2.840  0.00  0.00    +0.000 A 
ATOM     17  C   UNL     1       4.321  -6.301  -2.858  0.00  0.00    +0.000 A 
ATOM     18  C   UNL     1       3.292  -5.858  -2.047  0.00  0.00    +0.005 A 
ENDBRANCH  12  13
ENDBRANCH   7  12
ENDBRANCH   1   8
BRANCH   4  19
ATOM     19  N   UNL     1       1.156   3.479   0.009  0.00  0.00    -0.297 N 
ATOM     20  H   UNL     1       1.693   4.042  -0.768  0.00  0.00    +0.154 HD
BRANCH  19  21
ATOM     21  C   UNL     1       0.484   4.137   0.975  0.00  0.00    +0.141 C 
ATOM     22  S   UNL     1      -0.233   3.268   2.264  0.00  0.00    -0.018 S 
BRANCH  21  23
ATOM     23  N   UNL     1       0.378   5.480   0.926  0.00  0.00    -0.261 N 
ATOM     24  C   UNL     1      -0.294   6.138   1.892  0.00  0.00    +0.285 C 
ATOM     25  O   UNL     1      -0.803   5.520   2.808  0.00  0.00    -0.266 OA
ATOM     26  H   UNL     1       0.838   6.039   0.098  0.00  0.00    +0.157 HD
BRANCH  24  27
ATOM     27  C   UNL     1      -0.410   7.597   1.839  0.00  0.00    +0.191 A 
ATOM     28  C   UNL     1      -1.063   8.384   2.745  0.00  0.00    +0.056 A 
ATOM     29  C   UNL     1      -0.919   9.709   2.308  0.00  0.00    +0.058 A 
ATOM     30  C   UNL     1      -0.199   9.674   1.162  0.00  0.00    +0.171 A 
ATOM     31  O   UNL     1       0.105   8.399   0.883  0.00  0.00    -0.444 OA
ATOM     32 BR   UNL     1       0.295  11.176   0.125  0.00  0.00    -0.008 Br
ENDBRANCH  24  27
ENDBRANCH  21  23
ENDBRANCH  19  21
ENDBRANCH   4  19
TORSDOF 7
