REMARK  Name = ZINC39932445
REMARK  9 active torsions:
REMARK  status: ('A' for Active; 'I' for Inactive)
REMARK    1  A    between atoms: C_1  and  C_2
REMARK    2  A    between atoms: C_2  and  C_3
REMARK    3  A    between atoms: C_2  and  C_4
REMARK    4  A    between atoms: C_2  and  C_5
REMARK    5  A    between atoms: C_10  and  C_26
REMARK    6  A    between atoms: C_12  and  C_22
REMARK    7  A    between atoms: C_12  and  C_24
REMARK    8  A    between atoms: C_13  and  N_21
REMARK    9  A    between atoms: C_15  and  C_19
REMARK                            x       y       z     vdW  Elec       q    Type
REMARK                         _______ _______ _______ _____ _____    ______ ____
ROOT
ATOM      1  C   UNL     1       0.953  -0.256  -1.232  0.00  0.00    +0.018 C 
ATOM      2  C   UNL     1       0.752  -1.772  -1.279  0.00  0.00    +0.017 C 
ATOM      3  C   UNL     1       1.643  -2.419  -0.216  0.00  0.00    +0.031 C 
ATOM      4  C   UNL     1       1.357  -3.895  -0.068  0.00  0.00    +0.062 C 
ATOM      5  C   UNL     1       2.355  -4.751  -0.844  0.00  0.00    +0.170 C 
ATOM      6  C   UNL     1       3.763  -4.464  -0.305  0.00  0.00    +0.127 C 
ATOM      7  C   UNL     1       4.059  -3.006  -0.545  0.00  0.00    +0.052 C 
ATOM      8  C   UNL     1       3.072  -2.113  -0.554  0.00  0.00    -0.029 C 
ATOM      9  C   UNL     1       3.388  -0.729  -0.948  0.00  0.00    +0.001 C 
ATOM     10  C   UNL     1       2.407   0.106  -1.262  0.00  0.00    -0.023 C 
ENDROOT
BRANCH   4  11
ATOM     11  C   UNL     1       1.429  -4.264   1.392  0.00  0.00    -0.040 A 
ATOM     12  C   UNL     1       2.119  -3.456   2.276  0.00  0.00    +0.004 A 
ATOM     13  C   UNL     1       2.185  -3.794   3.615  0.00  0.00    +0.002 A 
ATOM     14  C   UNL     1       1.561  -4.940   4.070  0.00  0.00    +0.020 A 
ATOM     15  C   UNL     1       0.870  -5.748   3.186  0.00  0.00    +0.041 A 
ATOM     16  C   UNL     1       0.799  -5.407   1.847  0.00  0.00    +0.024 A 
ATOM     17 CL   UNL     1       0.085  -7.188   3.758  0.00  0.00    -0.084 Cl
ENDBRANCH   4  11
BRANCH   1  19
ATOM     18  C   UNL     1      -0.200   1.705  -0.199  0.00  0.00    +0.011 C 
ATOM     19  C   UNL     1       0.329   0.291   0.053  0.00  0.00    -0.031 C 
ATOM     20  C   UNL     1       1.387   0.333   1.157  0.00  0.00    +0.011 C 
ATOM     21  C   UNL     1      -0.825  -0.615   0.486  0.00  0.00    +0.011 C 
ENDBRANCH   1  19
BRANCH   6  22
ATOM     22  N   UNL     1       3.813  -4.752   1.135  0.00  0.00    -0.321 NA
ATOM     23  H   UNL     1       3.521  -5.699   1.324  0.00  0.00    +0.119 HD
ATOM     24  H   UNL     1       4.734  -4.576   1.507  0.00  0.00    +0.119 HD
ENDBRANCH   6  22
BRANCH   7  25
ATOM     25  C   UNL     1       5.408  -2.586  -0.780  0.00  0.00    +0.097 C 
ATOM     26  N   UNL     1       6.478  -2.254  -0.966  0.00  0.00    -0.191 NA
ENDBRANCH   7  25
BRANCH   5  27
ATOM     27  C   UNL     1       2.035  -6.176  -0.660  0.00  0.00    +0.087 C 
ATOM     28  N   UNL     1       1.788  -7.276  -0.518  0.00  0.00    -0.195 NA
ENDBRANCH   5  27
BRANCH   5  29
ATOM     29  C   UNL     1       2.293  -4.409  -2.275  0.00  0.00    +0.087 C 
ATOM     30  N   UNL     1       2.246  -4.146  -3.379  0.00  0.00    -0.195 NA
ENDBRANCH   5  29
TORSDOF 6
