REMARK  Name = ZINC17090747
REMARK  7 active torsions:
REMARK  status: ('A' for Active; 'I' for Inactive)
REMARK    1  A    between atoms: C_1  and  C_2
REMARK    2  A    between atoms: C_3  and  C_30
REMARK    3  A    between atoms: C_5  and  C_28
REMARK    4  A    between atoms: C_7  and  C_10
REMARK    5  A    between atoms: N_12  and  C_13
REMARK    6  A    between atoms: C_14  and  C_22
REMARK    7  A    between atoms: N_24  and  C_25
REMARK                            x       y       z     vdW  Elec       q    Type
REMARK                         _______ _______ _______ _____ _____    ______ ____
ROOT
ATOM      1  C   UNL     1      -1.364   5.862  -1.069  0.00  0.00    +0.084 A 
ATOM      2  C   UNL     1      -0.979   5.475   0.206  0.00  0.00    +0.069 A 
ATOM      3  C   UNL     1      -0.578   4.091   0.395  0.00  0.00    -0.023 A 
ATOM      4  C   UNL     1      -0.625   3.322  -0.714  0.00  0.00    -0.004 A 
ATOM      5  S   UNL     1      -1.192   4.407  -1.993  0.00  0.00    -0.077 S 
ATOM      6  C   UNL     1      -0.272   1.871  -0.823  0.00  0.00    +0.043 C 
ATOM      7  C   UNL     1       0.512   1.468   0.434  0.00  0.00    +0.005 C 
ATOM      8  C   UNL     1      -0.229   1.988   1.669  0.00  0.00    +0.005 C 
ATOM      9  C   UNL     1      -0.131   3.513   1.732  0.00  0.00    +0.037 C 
ENDROOT
BRANCH   1  12
ATOM     10  C   UNL     1      -2.121   7.301  -2.791  0.00  0.00    +0.222 C 
ATOM     11  O   UNL     1      -2.057   6.379  -3.576  0.00  0.00    -0.275 OA
ATOM     12  N   UNL     1      -1.784   7.112  -1.500  0.00  0.00    -0.279 N 
ATOM     13  H   UNL     1      -1.835   7.849  -0.872  0.00  0.00    +0.155 HD
BRANCH  10  19
ATOM     14  C   UNL     1      -1.056  12.217  -3.283  0.00  0.00    +0.039 C 
ATOM     15  C   UNL     1      -1.798  10.976  -3.709  0.00  0.00    -0.073 C 
ATOM     16  C   UNL     1      -2.678  11.088  -4.651  0.00  0.00    -0.073 C 
ATOM     17  C   UNL     1      -3.500   9.947  -5.175  0.00  0.00    +0.046 C 
ATOM     18  C   UNL     1      -2.873   8.613  -4.764  0.00  0.00    +0.118 C 
ATOM     19  C   UNL     1      -2.577   8.659  -3.259  0.00  0.00    +0.093 C 
ATOM     20  C   UNL     1      -1.469   9.687  -3.015  0.00  0.00    +0.044 C 
ATOM     21  C   UNL     1      -2.890  12.450  -5.261  0.00  0.00    +0.039 C 
BRANCH  18  22
ATOM     22  C   UNL     1      -3.833   7.490  -5.057  0.00  0.00    +0.360 C 
ATOM     23  O   UNL     1      -4.242   6.794  -4.158  0.00  0.00    -0.246 OA
ATOM     24  O   UNL     1      -4.235   7.262  -6.318  0.00  0.00    -0.246 OA
ENDBRANCH  18  22
ENDBRANCH  10  19
ENDBRANCH   1  12
BRANCH   2  25
ATOM     25  C   UNL     1      -0.976   6.426   1.322  0.00  0.00    +0.247 C 
ATOM     26  O   UNL     1       0.022   7.079   1.562  0.00  0.00    -0.270 OA
ATOM     27  N   UNL     1      -2.079   6.577   2.081  0.00  0.00    -0.308 N 
ATOM     28  H   UNL     1      -2.875   6.056   1.890  0.00  0.00    +0.149 HD
BRANCH  27  29
ATOM     29  C   UNL     1      -2.076   7.528   3.196  0.00  0.00    +0.073 C 
ATOM     30  C   UNL     1      -2.701   7.071   4.516  0.00  0.00    +0.024 C 
ATOM     31  C   UNL     1      -3.424   8.098   3.642  0.00  0.00    +0.024 C 
ENDBRANCH  27  29
ENDBRANCH   2  25
TORSDOF 5
