REMARK  Name = ZINC09474913
REMARK  10 active torsions:
REMARK  status: ('A' for Active; 'I' for Inactive)
REMARK    1  A    between atoms: C_1  and  C_2
REMARK    2  A    between atoms: C_2  and  C_3
REMARK    3  A    between atoms: C_3  and  N_55
REMARK    4  A    between atoms: C_9  and  N_14
REMARK    5  A    between atoms: C_10  and  C_11
REMARK    6  A    between atoms: C_15  and  C_17
REMARK    7  A    between atoms: C_17  and  C_18
REMARK    8  A    between atoms: C_18  and  C_19
REMARK    9  A    between atoms: C_19  and  S_20
REMARK   10  A    between atoms: S_20  and  C_21
REMARK                            x       y       z     vdW  Elec       q    Type
REMARK                         _______ _______ _______ _____ _____    ______ ____
ROOT
ATOM      1  C   UNL     1       7.595  14.244  -0.439  0.00  0.00    -0.074 C 
ATOM      2  C   UNL     1       8.143  12.880  -0.012  0.00  0.00    +0.018 C 
ATOM      3  C   UNL     1       6.988  11.885  -0.004  0.00  0.00    -0.027 A 
ATOM      4  C   UNL     1       5.710  12.329   0.012  0.00  0.00    -0.021 A 
ATOM      5  S   UNL     1       4.723  10.862   0.014  0.00  0.00    -0.079 S 
ATOM      6  C   UNL     1       5.986   9.675  -0.005  0.00  0.00    +0.084 A 
ATOM      7  C   UNL     1       7.143  10.443  -0.006  0.00  0.00    +0.068 A 
ATOM      8  C   UNL     1       5.267  13.758   0.025  0.00  0.00    -0.035 C 
ATOM      9  N   UNL     1       6.433  14.592   0.405  0.00  0.00    +0.383 N 
ATOM     10  H   UNL     1       6.668  14.410   1.388  0.00  0.00    -0.081 HD
ENDROOT
BRANCH   7  11
ATOM     11  C   UNL     1       8.470   9.820  -0.014  0.00  0.00    +0.244 C 
ATOM     12  O   UNL     1       9.017   9.566  -1.071  0.00  0.00    -0.270 OA
ATOM     13  N   UNL     1       9.084   9.528   1.149  0.00  0.00    -0.325 N 
ATOM     14  H   UNL     1       8.648   9.730   1.992  0.00  0.00    +0.145 HD
ATOM     15  H   UNL     1       9.962   9.116   1.144  0.00  0.00    +0.145 HD
ENDBRANCH   7  11
BRANCH   6  16
ATOM     16  N   UNL     1       5.869   8.293  -0.011  0.00  0.00    -0.279 N 
ATOM     17  C   UNL     1       4.649   7.720  -0.002  0.00  0.00    +0.218 C 
ATOM     18  O   UNL     1       3.654   8.412   0.011  0.00  0.00    -0.275 OA
ATOM     19  H   UNL     1       6.665   7.739  -0.021  0.00  0.00    +0.155 HD
BRANCH  17  20
ATOM     20  C   UNL     1       4.522   6.218  -0.008  0.00  0.00    +0.097 C 
BRANCH  20  21
ATOM     21  C   UNL     1       3.042   5.831   0.004  0.00  0.00    +0.020 C 
BRANCH  21  22
ATOM     22  C   UNL     1       2.913   4.307  -0.003  0.00  0.00    +0.075 C 
BRANCH  22  23
ATOM     23  S   UNL     1       1.158   3.848   0.011  0.00  0.00    -0.125 S 
BRANCH  23  24
ATOM     24  C   UNL     1       1.178   2.086   0.002  0.00  0.00    +0.008 A 
ATOM     25  C   UNL     1      -0.017   1.377   0.010  0.00  0.00    +0.016 A 
ATOM     26  C   UNL     1       0.002  -0.004   0.002  0.00  0.00    +0.021 A 
ATOM     27  C   UNL     1       1.209  -0.681  -0.013  0.00  0.00    +0.041 A 
ATOM     28  C   UNL     1       2.401   0.023  -0.020  0.00  0.00    +0.021 A 
ATOM     29  C   UNL     1       2.388   1.404  -0.013  0.00  0.00    +0.016 A 
ATOM     30 CL   UNL     1       1.228  -2.417  -0.021  0.00  0.00    -0.084 Cl
ENDBRANCH  23  24
ENDBRANCH  22  23
ENDBRANCH  21  22
ENDBRANCH  20  21
ENDBRANCH  17  20
ENDBRANCH   6  16
BRANCH   9  31
ATOM     31  C   UNL     1       6.104  16.025   0.247  0.00  0.00    -0.079 C 
BRANCH  31  33
ATOM     32  C   UNL     1       5.515  17.843  -1.362  0.00  0.00    +0.002 C 
ATOM     33  C   UNL     1       5.851  16.356  -1.225  0.00  0.00    -0.022 C 
ENDBRANCH  31  33
ENDBRANCH   9  31
TORSDOF 9
