REMARK  Name = ZINC09316846
REMARK  5 active torsions:
REMARK  status: ('A' for Active; 'I' for Inactive)
REMARK    1  A    between atoms: C_1  and  C_2
REMARK    2  A    between atoms: N_20  and  C_23
REMARK    3  A    between atoms: C_25  and  C_32
REMARK    4  A    between atoms: C_28  and  O_29
REMARK    5  A    between atoms: O_29  and  C_30
REMARK                            x       y       z     vdW  Elec       q    Type
REMARK                         _______ _______ _______ _____ _____    ______ ____
ROOT
ATOM      1  C   UNL     1       3.031  -0.936  -0.541  0.00  0.00    +0.044 C 
ATOM      2  C   UNL     1       1.813  -0.049  -0.575  0.00  0.00    -0.050 A 
ATOM      3  C   UNL     1       0.565  -0.594  -0.814  0.00  0.00    +0.005 A 
ATOM      4  C   UNL     1      -0.553   0.213  -0.848  0.00  0.00    +0.024 A 
ATOM      5  C   UNL     1      -0.433   1.585  -0.641  0.00  0.00    +0.036 A 
ATOM      6  C   UNL     1       0.828   2.123  -0.402  0.00  0.00    -0.027 A 
ATOM      7  C   UNL     1       1.941   1.314  -0.369  0.00  0.00    +0.008 A 
ATOM      8  C   UNL     1       0.618   3.601  -0.224  0.00  0.00    +0.053 C 
ATOM      9  C   UNL     1       1.409   4.409  -1.257  0.00  0.00    +0.089 C 
ATOM     10  C   UNL     1       2.685   4.872  -0.502  0.00  0.00    +0.074 C 
ATOM     11  C   UNL     1       2.542   4.300   0.920  0.00  0.00    -0.054 C 
ATOM     12  C   UNL     1       0.530   5.424   1.412  0.00  0.00    -0.076 C 
ATOM     13  C   UNL     1       1.602   6.109   2.284  0.00  0.00    -0.020 C 
ATOM     14  C   UNL     1       2.919   5.384   1.946  0.00  0.00    -0.016 C 
ATOM     15  C   UNL     1       3.798   4.132  -1.242  0.00  0.00    +0.229 C 
ATOM     16  O   UNL     1       4.979   4.199  -0.974  0.00  0.00    -0.275 OA
ATOM     17  N   UNL     1       3.269   3.404  -2.232  0.00  0.00    -0.206 N 
ATOM     18  C   UNL     1       1.938   3.486  -2.332  0.00  0.00    +0.230 C 
ATOM     19  O   UNL     1       1.260   2.911  -3.157  0.00  0.00    -0.275 OA
ATOM     20  C   UNL     1      -0.864   3.806  -0.388  0.00  0.00    +0.212 C 
ATOM     21  O   UNL     1      -1.461   4.860  -0.318  0.00  0.00    -0.277 OA
ATOM     22  N   UNL     1      -1.400   2.593  -0.622  0.00  0.00    -0.286 N 
ATOM     23  H   UNL     1      -2.347   2.438  -0.763  0.00  0.00    +0.155 HD
ATOM     24  N   UNL     1       1.127   4.096   1.071  0.00  0.00    +0.395 N 
ATOM     25  H   UNL     1       0.928   3.415   1.814  0.00  0.00    -0.079 HD
ENDROOT
BRANCH  17  26
ATOM     26  C   UNL     1       4.049   2.618  -3.095  0.00  0.00    +0.086 A 
ATOM     27  C   UNL     1       4.436   1.342  -2.714  0.00  0.00    +0.032 A 
ATOM     28  C   UNL     1       5.203   0.569  -3.564  0.00  0.00    -0.030 A 
ATOM     29  C   UNL     1       5.586   1.065  -4.799  0.00  0.00    +0.047 A 
ATOM     30  C   UNL     1       5.203   2.337  -5.186  0.00  0.00    +0.067 A 
ATOM     31  C   UNL     1       4.429   3.115  -4.339  0.00  0.00    +0.143 A 
ATOM     32 CL   UNL     1       6.550   0.089  -5.863  0.00  0.00    -0.083 Cl
ATOM     33  C   UNL     1       5.623  -0.817  -3.148  0.00  0.00    +0.045 C 
BRANCH  31  34
ATOM     34  O   UNL     1       4.047   4.363  -4.720  0.00  0.00    -0.493 OA
ATOM     35  C   UNL     1       4.373   4.762  -6.053  0.00  0.00    +0.277 C 
ENDBRANCH  31  34
ENDBRANCH  17  26
TORSDOF 2
