REMARK  Name = ZINC39590435
REMARK  9 active torsions:
REMARK  status: ('A' for Active; 'I' for Inactive)
REMARK    1  A    between atoms: C_1  and  C_2
REMARK    2  A    between atoms: C_5  and  C_34
REMARK    3  A    between atoms: C_6  and  C_8
REMARK    4  A    between atoms: C_10  and  C_14
REMARK    5  A    between atoms: C_18  and  S_22
REMARK    6  A    between atoms: N_20  and  N_21
REMARK    7  A    between atoms: S_22  and  C_23
REMARK    8  A    between atoms: C_23  and  C_24
REMARK    9  A    between atoms: N_26  and  C_27
REMARK                            x       y       z     vdW  Elec       q    Type
REMARK                         _______ _______ _______ _____ _____    ______ ____
ROOT
ATOM      1  C   UNL     1      -1.937  -5.714   4.334  0.00  0.00    +0.185 C 
ATOM      2  N   UNL     1      -3.029  -4.846   3.818  0.00  0.00    -0.234 NA
ATOM      3  N   UNL     1      -4.242  -5.367   4.454  0.00  0.00    -0.228 NA
ATOM      4  C   UNL     1      -3.816  -6.066   5.683  0.00  0.00    +0.214 C 
ATOM      5  N   UNL     1      -2.338  -5.952   5.746  0.00  0.00    -0.197 NA
ATOM      6  H   UNL     1      -2.873  -3.882   4.071  0.00  0.00    +0.143 HD
ATOM      7  H   UNL     1      -4.887  -4.621   4.667  0.00  0.00    +0.143 HD
ENDROOT
BRANCH   1  10
ATOM      8  C   UNL     1      -0.144  -3.347   2.783  0.00  0.00    +0.091 C 
ATOM      9  C   UNL     1      -0.213  -4.691   2.828  0.00  0.00    +0.034 C 
ATOM     10  C   UNL     1      -0.592  -4.988   4.268  0.00  0.00    +0.187 C 
ATOM     11  N   UNL     1      -0.689  -3.650   4.873  0.00  0.00    -0.176 NA
ATOM     12  N   UNL     1      -0.426  -2.817   4.002  0.00  0.00    -0.154 NA
BRANCH   8  18
ATOM     13  C   UNL     1      -1.010  -2.159  -1.988  0.00  0.00    +0.044 C 
ATOM     14  C   UNL     1      -0.216  -1.983  -0.720  0.00  0.00    -0.050 A 
ATOM     15  C   UNL     1       0.834  -1.083  -0.681  0.00  0.00    +0.003 A 
ATOM     16  C   UNL     1       1.566  -0.916   0.481  0.00  0.00    +0.004 A 
ATOM     17  C   UNL     1       1.253  -1.648   1.608  0.00  0.00    -0.041 A 
ATOM     18  C   UNL     1       0.197  -2.557   1.575  0.00  0.00    +0.005 A 
ATOM     19  C   UNL     1      -0.541  -2.716   0.403  0.00  0.00    +0.013 A 
ATOM     20  C   UNL     1       2.052  -1.466   2.873  0.00  0.00    +0.044 C 
ENDBRANCH   8  18
ENDBRANCH   1  10
BRANCH   5  21
ATOM     21  N   UNL     1      -1.739  -7.173   6.259  0.00  0.00    -0.264 NA
ATOM     22  H   UNL     1      -2.011  -7.335   7.217  0.00  0.00    +0.137 HD
ATOM     23  H   UNL     1      -1.975  -7.963   5.678  0.00  0.00    +0.137 HD
ENDBRANCH   5  21
BRANCH   4  24
ATOM     24  S   UNL     1      -4.566  -5.281   7.136  0.00  0.00    -0.115 S 
BRANCH  24  25
ATOM     25  C   UNL     1      -3.987  -3.564   7.056  0.00  0.00    +0.168 C 
BRANCH  25  26
ATOM     26  C   UNL     1      -4.545  -2.791   8.223  0.00  0.00    +0.227 C 
ATOM     27  O   UNL     1      -5.263  -3.343   9.029  0.00  0.00    -0.275 OA
ATOM     28  N   UNL     1      -4.247  -1.485   8.370  0.00  0.00    -0.285 N 
ATOM     29  H   UNL     1      -3.735  -1.024   7.687  0.00  0.00    +0.155 HD
BRANCH  28  30
ATOM     30  C   UNL     1      -4.676  -0.793   9.509  0.00  0.00    +0.033 A 
ATOM     31  C   UNL     1      -5.031   0.546   9.416  0.00  0.00    +0.024 A 
ATOM     32  C   UNL     1      -5.454   1.226  10.541  0.00  0.00    +0.017 A 
ATOM     33  C   UNL     1      -5.525   0.575  11.760  0.00  0.00    +0.018 A 
ATOM     34  C   UNL     1      -5.172  -0.760  11.855  0.00  0.00    +0.017 A 
ATOM     35  C   UNL     1      -4.753  -1.446  10.732  0.00  0.00    +0.024 A 
ATOM     36 BR   UNL     1      -6.105   1.509  13.298  0.00  0.00    -0.050 Br
ENDBRANCH  28  30
ENDBRANCH  25  26
ENDBRANCH  24  25
ENDBRANCH   4  24
TORSDOF 7
