REMARK  Name = ZINC21604816
REMARK  8 active torsions:
REMARK  status: ('A' for Active; 'I' for Inactive)
REMARK    1  A    between atoms: C_1  and  C_2
REMARK    2  A    between atoms: C_2  and  N_3
REMARK    3  A    between atoms: C_13  and  S_14
REMARK    4  A    between atoms: S_14  and  C_15
REMARK    5  A    between atoms: C_15  and  C_17
REMARK    6  A    between atoms: C_15  and  C_18
REMARK    7  A    between atoms: N_20  and  C_21
REMARK    8  A    between atoms: C_22  and  C_26
REMARK                            x       y       z     vdW  Elec       q    Type
REMARK                         _______ _______ _______ _____ _____    ______ ____
ROOT
ATOM      1  C   UNL     1       1.280   1.980   0.001  0.00  0.00    +0.137 C 
ATOM      2  C   UNL     1       1.577   2.464  -1.420  0.00  0.00    +0.029 C 
ENDROOT
BRANCH   1   3
ATOM      3  C   UNL     1      -0.014   1.209   0.009  0.00  0.00    +0.231 C 
ATOM      4  O   UNL     1       0.002  -0.004   0.002  0.00  0.00    -0.274 OA
ATOM      5  N   UNL     1      -1.191   1.867   0.018  0.00  0.00    -0.278 N 
ATOM      6  H   UNL     1      -1.206   2.966   0.024  0.00  0.00    +0.155 HD
BRANCH   5   7
ATOM      7  C   UNL     1      -2.382   1.157   0.020  0.00  0.00    +0.084 A 
ATOM      8  C   UNL     1      -3.681   1.651   0.034  0.00  0.00    +0.065 A 
ATOM      9  C   UNL     1      -4.746   0.677   0.029  0.00  0.00    +0.022 A 
ATOM     10  C   UNL     1      -4.391  -0.621   0.020  0.00  0.00    +0.048 A 
ATOM     11  S   UNL     1      -2.612  -0.559   0.012  0.00  0.00    -0.081 S 
BRANCH   8  12
ATOM     12  C   UNL     1      -3.956   3.091   0.051  0.00  0.00    +0.244 C 
ATOM     13  O   UNL     1      -3.035   3.887   0.051  0.00  0.00    -0.270 OA
ATOM     14  N   UNL     1      -5.229   3.534   0.064  0.00  0.00    -0.325 N 
ATOM     15  H   UNL     1      -5.435   4.614   0.076  0.00  0.00    +0.145 HD
ATOM     16  H   UNL     1      -6.061   2.815   0.063  0.00  0.00    +0.145 HD
ENDBRANCH   8  12
ENDBRANCH   5   7
ENDBRANCH   1   3
BRANCH   1  17
ATOM     17  S   UNL     1       2.625   0.908   0.566  0.00  0.00    -0.075 S 
BRANCH  17  28
ATOM     18  N   UNL     1       5.182   1.639   0.998  0.00  0.00    -0.288 N 
ATOM     19  C   UNL     1       6.229   2.496   1.037  0.00  0.00    +0.262 A 
ATOM     20  O   UNL     1       7.336   2.124   1.382  0.00  0.00    -0.267 OA
ATOM     21  C   UNL     1       5.981   3.892   0.652  0.00  0.00    +0.066 A 
ATOM     22  C   UNL     1       6.993   4.850   0.664  0.00  0.00    +0.030 A 
ATOM     23  C   UNL     1       6.703   6.145   0.292  0.00  0.00    +0.019 A 
ATOM     24  C   UNL     1       5.415   6.499  -0.091  0.00  0.00    +0.017 A 
ATOM     25  C   UNL     1       4.408   5.575  -0.110  0.00  0.00    +0.029 A 
ATOM     26  C   UNL     1       4.671   4.253   0.261  0.00  0.00    +0.079 A 
ATOM     27  N   UNL     1       3.701   3.309   0.255  0.00  0.00    -0.223 NA
ATOM     28  C   UNL     1       3.948   2.070   0.603  0.00  0.00    +0.173 A 
ATOM     29 BR   UNL     1       8.069   7.453   0.306  0.00  0.00    -0.050 Br
BRANCH  18  31
ATOM     30  C   UNL     1       5.767  -0.576   0.142  0.00  0.00    +0.027 C 
ATOM     31  C   UNL     1       5.375   0.238   1.377  0.00  0.00    +0.124 C 
ENDBRANCH  18  31
ENDBRANCH  17  28
ENDBRANCH   1  17
TORSDOF 6
