REMARK  Name = ZINC42015230
REMARK  4 active torsions:
REMARK  status: ('A' for Active; 'I' for Inactive)
REMARK    1  A    between atoms: C_1  and  C_2
REMARK    2  A    between atoms: C_4  and  N_9
REMARK    3  A    between atoms: C_10  and  C_14
REMARK    4  A    between atoms: C_19  and  N_20
REMARK                            x       y       z     vdW  Elec       q    Type
REMARK                         _______ _______ _______ _____ _____    ______ ____
ROOT
ATOM      1  N   UNL     1       0.005  -2.789  -2.412  0.00  0.00    -0.193 N 
ATOM      2  C   UNL     1       0.734  -3.898  -2.732  0.00  0.00    +0.189 A 
ATOM      3  N   UNL     1       0.457  -4.188  -3.987  0.00  0.00    -0.108 NA
ATOM      4  N   UNL     1      -0.384  -3.347  -4.469  0.00  0.00    -0.022 NA
ATOM      5  N   UNL     1      -0.712  -2.474  -3.580  0.00  0.00    -0.039 NA
ENDROOT
BRANCH   1   9
ATOM      6  C   UNL     1      -2.574  -0.520   1.107  0.00  0.00    +0.045 C 
ATOM      7  C   UNL     1      -1.263  -1.004   0.544  0.00  0.00    -0.034 A 
ATOM      8  C   UNL     1      -1.235  -1.668  -0.666  0.00  0.00    +0.032 A 
ATOM      9  C   UNL     1      -0.026  -2.114  -1.184  0.00  0.00    +0.070 A 
ATOM     10  C   UNL     1       1.151  -1.891  -0.483  0.00  0.00    +0.029 A 
ATOM     11  C   UNL     1       1.118  -1.226   0.727  0.00  0.00    +0.017 A 
ATOM     12  C   UNL     1      -0.087  -0.778   1.238  0.00  0.00    +0.021 A 
ATOM     13 BR   UNL     1      -0.129   0.139   2.891  0.00  0.00    -0.050 Br
ENDBRANCH   1   9
BRANCH   2  14
ATOM     14  C   UNL     1       1.656  -4.632  -1.841  0.00  0.00    +0.044 A 
ATOM     15  C   UNL     1       1.250  -4.996  -0.557  0.00  0.00    +0.051 A 
ATOM     16  C   UNL     1       2.116  -5.682   0.271  0.00  0.00    +0.124 A 
ATOM     17  C   UNL     1       3.390  -6.010  -0.168  0.00  0.00    +0.040 A 
ATOM     18  C   UNL     1       3.804  -5.654  -1.437  0.00  0.00    +0.026 A 
ATOM     19  C   UNL     1       2.942  -4.970  -2.283  0.00  0.00    +0.036 A 
ATOM     20  F   UNL     1       1.722  -6.035   1.514  0.00  0.00    -0.205 F 
BRANCH  19  21
ATOM     21  N   UNL     1       3.357  -4.616  -3.567  0.00  0.00    -0.357 N 
ATOM     22  H   UNL     1       2.755  -4.134  -4.155  0.00  0.00    +0.142 HD
ATOM     23  H   UNL     1       4.247  -4.851  -3.871  0.00  0.00    +0.142 HD
ENDBRANCH  19  21
ENDBRANCH   2  14
TORSDOF 3
