REMARK  Name = ZINC39345517
REMARK  5 active torsions:
REMARK  status: ('A' for Active; 'I' for Inactive)
REMARK    1  A    between atoms: C_1  and  C_2
REMARK    2  A    between atoms: C_2  and  C_28
REMARK    3  A    between atoms: C_6  and  C_19
REMARK    4  A    between atoms: C_12  and  S_16
REMARK    5  A    between atoms: S_16  and  C_17
REMARK                            x       y       z     vdW  Elec       q    Type
REMARK                         _______ _______ _______ _____ _____    ______ ____
ROOT
ATOM      1  C   UNL     1      -0.019   1.526   0.010  0.00  0.00    +0.011 C 
ATOM      2  C   UNL     1       0.002  -0.004   0.002  0.00  0.00    -0.023 C 
ATOM      3  C   UNL     1      -1.431  -0.539   0.041  0.00  0.00    +0.058 C 
ATOM      4  C   UNL     1      -1.408  -2.049   0.075  0.00  0.00    +0.017 C 
ATOM      5  C   UNL     1      -0.403  -2.715   0.675  0.00  0.00    +0.021 C 
ATOM      6  C   UNL     1      -0.367  -4.224   0.750  0.00  0.00    +0.073 C 
ATOM      7  C   UNL     1      -1.240  -4.831  -0.349  0.00  0.00    +0.152 C 
ATOM      8  C   UNL     1      -2.542  -4.065  -0.368  0.00  0.00    +0.115 C 
ATOM      9  N   UNL     1      -3.689  -4.652  -0.212  0.00  0.00    -0.213 NA
ATOM     10  C   UNL     1      -3.793  -5.969   0.006  0.00  0.00    +0.182 C 
ATOM     11  N   UNL     1      -2.726  -6.751   0.089  0.00  0.00    -0.154 NA
ATOM     12  C   UNL     1      -1.489  -6.284  -0.068  0.00  0.00    +0.250 C 
ATOM     13  O   UNL     1      -0.543  -7.042   0.023  0.00  0.00    -0.273 OA
ATOM     14  N   UNL     1      -2.448  -2.711  -0.540  0.00  0.00    -0.305 N 
ATOM     15  C   UNL     1       0.671  -2.018   1.267  0.00  0.00    +0.162 C 
ATOM     16  O   UNL     1       1.559  -2.646   1.809  0.00  0.00    -0.292 OA
ATOM     17  C   UNL     1       0.742  -0.517   1.242  0.00  0.00    +0.086 C 
ATOM     18  C   UNL     1       0.706  -0.503  -1.262  0.00  0.00    +0.011 C 
ATOM     19  H   UNL     1      -3.095  -2.231  -1.080  0.00  0.00    +0.153 HD
ENDROOT
BRANCH   6  20
ATOM     20  C   UNL     1       1.053  -4.697   0.573  0.00  0.00    -0.036 A 
ATOM     21  C   UNL     1       1.760  -4.405  -0.583  0.00  0.00    +0.024 A 
ATOM     22  C   UNL     1       3.060  -4.856  -0.710  0.00  0.00    +0.111 A 
ATOM     23  N   UNL     1       3.628  -5.557   0.252  0.00  0.00    -0.263 NA
ATOM     24  C   UNL     1       2.986  -5.854   1.365  0.00  0.00    +0.111 A 
ATOM     25  C   UNL     1       1.685  -5.431   1.565  0.00  0.00    +0.024 A 
ENDBRANCH   6  20
BRANCH  10  26
ATOM     26  S   UNL     1      -5.394  -6.683   0.190  0.00  0.00    -0.092 S 
ATOM     27  C   UNL     1      -5.060  -8.445   0.462  0.00  0.00    +0.093 C 
ENDBRANCH  10  26
TORSDOF 2
