REMARK  Name = ZINC13474007
REMARK  10 active torsions:
REMARK  status: ('A' for Active; 'I' for Inactive)
REMARK    1  A    between atoms: C_1  and  C_2
REMARK    2  A    between atoms: C_4  and  O_18
REMARK    3  A    between atoms: C_6  and  O_9
REMARK    4  A    between atoms: O_9  and  C_10
REMARK    5  A    between atoms: C_14  and  C_16
REMARK    6  A    between atoms: O_18  and  C_19
REMARK    7  A    between atoms: C_23  and  C_25
REMARK    8  A    between atoms: C_25  and  C_27
REMARK    9  A    between atoms: C_27  and  C_28
REMARK   10  A    between atoms: C_27  and  C_29
REMARK                            x       y       z     vdW  Elec       q    Type
REMARK                         _______ _______ _______ _____ _____    ______ ____
ROOT
ATOM      1  C   UNL     1      -2.203  -4.816 -12.426  0.00  0.00    +0.050 C 
ATOM      2  C   UNL     1      -2.450  -4.269 -11.044  0.00  0.00    +0.030 A 
ATOM      3  C   UNL     1      -1.808  -4.813  -9.941  0.00  0.00    +0.191 A 
ATOM      4  C   UNL     1      -2.060  -4.284  -8.681  0.00  0.00    +0.260 A 
ATOM      5  N   UNL     1      -2.905  -3.278  -8.527  0.00  0.00    -0.172 NA
ATOM      6  C   UNL     1      -3.531  -2.733  -9.558  0.00  0.00    +0.260 A 
ATOM      7  C   UNL     1      -3.326  -3.212 -10.846  0.00  0.00    +0.191 A 
ATOM      8  F   UNL     1      -3.972  -2.655 -11.894  0.00  0.00    -0.200 F 
ATOM      9  F   UNL     1      -0.948  -5.844 -10.090  0.00  0.00    -0.200 F 
ENDROOT
BRANCH   6  10
ATOM     10  O   UNL     1      -4.386  -1.698  -9.355  0.00  0.00    -0.436 OA
BRANCH  10  11
ATOM     11  C   UNL     1      -4.444  -1.154  -8.111  0.00  0.00    +0.131 A 
ATOM     12  C   UNL     1      -3.323  -1.174  -7.291  0.00  0.00    +0.046 A 
ATOM     13  C   UNL     1      -3.377  -0.622  -6.025  0.00  0.00    +0.004 A 
ATOM     14  C   UNL     1      -4.546  -0.047  -5.568  0.00  0.00    +0.011 A 
ATOM     15  C   UNL     1      -5.676  -0.021  -6.385  0.00  0.00    +0.016 A 
ATOM     16  C   UNL     1      -5.619  -0.574  -7.663  0.00  0.00    +0.057 A 
BRANCH  15  17
ATOM     17  C   UNL     1      -6.931   0.596  -5.897  0.00  0.00    +0.094 C 
ATOM     18  N   UNL     1      -6.983   1.146  -4.635  0.00  0.00    -0.345 N 
ATOM     19  H   UNL     1      -8.853   1.000  -6.432  0.00  0.00    +0.157 HD
ATOM     20  H   UNL     1      -6.198   1.129  -4.066  0.00  0.00    +0.144 HD
ATOM     21  H   UNL     1      -7.805   1.550  -4.316  0.00  0.00    +0.144 HD
ATOM     22  N   UNL     1      -7.967   0.587  -6.722  0.00  0.00    -0.387 N 
ATOM     23  H   UNL     1      -7.877   0.164  -7.654  0.00  0.00    +0.157 HD
ENDBRANCH  15  17
ENDBRANCH  10  11
ENDBRANCH   6  10
BRANCH   4  24
ATOM     24  O   UNL     1      -1.437  -4.810  -7.596  0.00  0.00    -0.436 OA
BRANCH  24  25
ATOM     25  C   UNL     1      -1.822  -4.376  -6.367  0.00  0.00    +0.131 A 
ATOM     26  C   UNL     1      -3.136  -3.981  -6.151  0.00  0.00    +0.046 A 
ATOM     27  C   UNL     1      -3.535  -3.538  -4.903  0.00  0.00    +0.004 A 
ATOM     28  C   UNL     1      -2.633  -3.490  -3.861  0.00  0.00    +0.011 A 
ATOM     29  C   UNL     1      -1.306  -3.881  -4.069  0.00  0.00    +0.021 A 
ATOM     30  C   UNL     1      -0.905  -4.328  -5.331  0.00  0.00    +0.057 A 
BRANCH  29  31
ATOM     31  C   UNL     1      -0.338  -3.827  -2.962  0.00  0.00    +0.166 C 
ATOM     32  O   UNL     1       0.811  -4.171  -3.143  0.00  0.00    -0.292 OA
BRANCH  31  33
ATOM     33  C   UNL     1      -0.774  -3.344  -1.602  0.00  0.00    +0.054 C 
ATOM     34  C   UNL     1      -0.693  -1.817  -1.553  0.00  0.00    +0.015 C 
ATOM     35  C   UNL     1       0.144  -3.938  -0.532  0.00  0.00    +0.015 C 
ENDBRANCH  31  33
ENDBRANCH  29  31
ENDBRANCH  24  25
ENDBRANCH   4  24
TORSDOF 7
