REMARK  Name = ZINC01028240
REMARK  5 active torsions:
REMARK  status: ('A' for Active; 'I' for Inactive)
REMARK    1  A    between atoms: C_1  and  C_2
REMARK    2  A    between atoms: C_3  and  N_15
REMARK    3  A    between atoms: N_6  and  C_9
REMARK    4  A    between atoms: N_7  and  C_8
REMARK    5  A    between atoms: N_18  and  C_19
REMARK                            x       y       z     vdW  Elec       q    Type
REMARK                         _______ _______ _______ _____ _____    ______ ____
ROOT
ATOM      1  C   UNL     1       2.839  -0.515   0.150  0.00  0.00    +0.067 C 
ATOM      2  C   UNL     1       2.544   0.963   0.120  0.00  0.00    +0.059 A 
ATOM      3  C   UNL     1       1.317   1.525   0.157  0.00  0.00    +0.122 A 
ATOM      4  C   UNL     1       1.478   2.934   0.115  0.00  0.00    +0.293 A 
ATOM      5  O   UNL     1       0.584   3.760   0.136  0.00  0.00    -0.264 OA
ATOM      6  N   UNL     1       2.800   3.193   0.048  0.00  0.00    -0.216 N 
ATOM      7  N   UNL     1       3.477   1.966   0.047  0.00  0.00    -0.282 N 
ATOM      8  C   UNL     1       4.929   1.787  -0.015  0.00  0.00    +0.171 C 
ENDROOT
BRANCH   6   9
ATOM      9  C   UNL     1       3.389   4.460  -0.009  0.00  0.00    +0.067 A 
ATOM     10  C   UNL     1       4.634   4.675   0.569  0.00  0.00    +0.028 A 
ATOM     11  C   UNL     1       5.215   5.926   0.506  0.00  0.00    +0.002 A 
ATOM     12  C   UNL     1       4.556   6.966  -0.123  0.00  0.00    +0.000 A 
ATOM     13  C   UNL     1       3.314   6.756  -0.695  0.00  0.00    +0.002 A 
ATOM     14  C   UNL     1       2.729   5.506  -0.640  0.00  0.00    +0.028 A 
ENDBRANCH   6   9
BRANCH   3  15
ATOM     15  N   UNL     1       0.090   0.833   0.230  0.00  0.00    -0.263 N 
ATOM     16  C   UNL     1      -0.843   1.013  -0.726  0.00  0.00    +0.308 C 
ATOM     17  O   UNL     1      -0.601   1.719  -1.687  0.00  0.00    -0.252 OA
ATOM     18  N   UNL     1      -2.044   0.411  -0.617  0.00  0.00    -0.269 N 
ATOM     19  H   UNL     1      -0.081   0.225   0.966  0.00  0.00    +0.157 HD
ATOM     20  H   UNL     1      -2.263  -0.094   0.181  0.00  0.00    +0.156 HD
BRANCH  18  21
ATOM     21  C   UNL     1      -2.975   0.514  -1.657  0.00  0.00    +0.035 A 
ATOM     22  C   UNL     1      -4.334   0.539  -1.373  0.00  0.00    +0.024 A 
ATOM     23  C   UNL     1      -5.251   0.646  -2.401  0.00  0.00    +0.017 A 
ATOM     24  C   UNL     1      -4.817   0.718  -3.713  0.00  0.00    +0.018 A 
ATOM     25  C   UNL     1      -3.463   0.688  -3.998  0.00  0.00    +0.017 A 
ATOM     26  C   UNL     1      -2.542   0.587  -2.974  0.00  0.00    +0.024 A 
ATOM     27 BR   UNL     1      -6.075   0.858  -5.117  0.00  0.00    -0.050 Br
ENDBRANCH  18  21
ENDBRANCH   3  15
TORSDOF 3
