REMARK  Name = ZINC63522572
REMARK  7 active torsions:
REMARK  status: ('A' for Active; 'I' for Inactive)
REMARK    1  A    between atoms: C_1  and  C_2
REMARK    2  A    between atoms: C_5  and  C_9
REMARK    3  A    between atoms: C_7  and  C_8
REMARK    4  A    between atoms: C_9  and  C_10
REMARK    5  A    between atoms: C_9  and  O_27
REMARK    6  A    between atoms: C_10  and  N_11
REMARK    7  A    between atoms: C_14  and  C_17
REMARK                            x       y       z     vdW  Elec       q    Type
REMARK                         _______ _______ _______ _____ _____    ______ ____
ROOT
ATOM      1  N   UNL     1      -1.263  -6.257  -0.090  0.00  0.00    +0.382 N 
ATOM      2  C   UNL     1      -0.334  -6.802  -1.087  0.00  0.00    -0.078 C 
ATOM      3  C   UNL     1      -0.162  -8.305  -0.862  0.00  0.00    -0.006 C 
ATOM      4  C   UNL     1      -1.522  -8.995  -0.998  0.00  0.00    +0.072 C 
ATOM      5  C   UNL     1      -2.504  -8.368  -0.004  0.00  0.00    -0.006 C 
ATOM      6  C   UNL     1      -2.589  -6.862  -0.261  0.00  0.00    -0.078 C 
ATOM      7  H   UNL     1      -0.918  -6.462   0.836  0.00  0.00    -0.082 HD
ENDROOT
BRANCH   4   8
ATOM      8  C   UNL     1      -1.374 -10.465  -0.700  0.00  0.00    +0.221 C 
ATOM      9  O   UNL     1      -0.288 -10.918  -0.407  0.00  0.00    -0.275 OA
ATOM     10  N   UNL     1      -2.449 -11.277  -0.758  0.00  0.00    -0.270 N 
ATOM     11  C   UNL     1      -2.333 -12.614  -0.382  0.00  0.00    +0.125 A 
ATOM     12  C   UNL     1      -3.467 -13.418  -0.341  0.00  0.00    +0.045 A 
ATOM     13  C   UNL     1      -3.340 -14.744   0.034  0.00  0.00    +0.025 A 
ATOM     14  C   UNL     1      -2.076 -15.222   0.356  0.00  0.00    +0.059 A 
ATOM     15  C   UNL     1      -0.993 -14.367   0.293  0.00  0.00    +0.132 A 
ATOM     16  N   UNL     1      -1.145 -13.108  -0.073  0.00  0.00    -0.239 NA
ATOM     17 CL   UNL     1      -1.860 -16.877   0.833  0.00  0.00    -0.082 Cl
ATOM     18  H   UNL     1      -3.302 -10.930  -1.062  0.00  0.00    +0.156 HD
ENDBRANCH   4   8
BRANCH   1  19
ATOM     19  C   UNL     1      -1.365  -4.801  -0.262  0.00  0.00    -0.042 C 
BRANCH  19  20
ATOM     20  C   UNL     1      -2.204  -4.211   0.874  0.00  0.00    +0.128 C 
BRANCH  20  25
ATOM     21  C   UNL     1      -2.622   1.511   0.183  0.00  0.00    +0.044 C 
ATOM     22  C   UNL     1      -2.513   0.019   0.363  0.00  0.00    -0.048 A 
ATOM     23  C   UNL     1      -1.371  -0.529   0.919  0.00  0.00    +0.004 A 
ATOM     24  C   UNL     1      -1.272  -1.898   1.084  0.00  0.00    +0.006 A 
ATOM     25  C   UNL     1      -2.313  -2.719   0.694  0.00  0.00    -0.021 A 
ATOM     26  C   UNL     1      -3.455  -2.171   0.140  0.00  0.00    +0.009 A 
ATOM     27  C   UNL     1      -3.556  -0.802  -0.022  0.00  0.00    -0.047 A 
ATOM     28  C   UNL     1      -4.803  -0.204  -0.622  0.00  0.00    +0.044 C 
ENDBRANCH  20  25
BRANCH  20  29
ATOM     29  O   UNL     1      -1.578  -4.496   2.126  0.00  0.00    -0.389 OA
ATOM     30  H   UNL     1      -0.687  -4.132   2.212  0.00  0.00    +0.210 HD
ENDBRANCH  20  29
ENDBRANCH  19  20
ENDBRANCH   1  19
TORSDOF 5
