REMARK  Name = ZINC38793143
REMARK  6 active torsions:
REMARK  status: ('A' for Active; 'I' for Inactive)
REMARK    1  A    between atoms: C_1  and  C_2
REMARK    2  A    between atoms: C_4  and  C_19
REMARK    3  A    between atoms: C_6  and  C_11
REMARK    4  A    between atoms: C_12  and  C_18
REMARK    5  A    between atoms: C_14  and  C_17
REMARK    6  A    between atoms: C_24  and  C_27
REMARK                            x       y       z     vdW  Elec       q    Type
REMARK                         _______ _______ _______ _____ _____    ______ ____
ROOT
ATOM      1  C   UNL     1      -0.521   0.824  -3.219  0.00  0.00    +0.248 C 
ATOM      2  O   UNL     1      -0.412   1.807  -2.512  0.00  0.00    -0.270 OA
ATOM      3  N   UNL     1      -0.771   0.965  -4.536  0.00  0.00    -0.293 N 
ATOM      4  C   UNL     1      -0.789   2.293  -5.173  0.00  0.00    +0.113 C 
ATOM      5  C   UNL     1       0.331   2.334  -6.215  0.00  0.00    +0.054 C 
ATOM      6  C   UNL     1       0.320   1.084  -7.044  0.00  0.00    -0.043 C 
ATOM      7  C   UNL     1      -0.277  -0.046  -6.681  0.00  0.00    -0.004 C 
ATOM      8  C   UNL     1      -1.029  -0.200  -5.393  0.00  0.00    +0.135 C 
ENDROOT
BRANCH   1  12
ATOM      9  C   UNL     1      -2.667   1.154  -0.878  0.00  0.00    +0.070 C 
ATOM     10  C   UNL     1      -2.158  -0.253  -0.697  0.00  0.00    +0.091 A 
ATOM     11  C   UNL     1      -1.147  -0.919  -1.514  0.00  0.00    +0.076 A 
ATOM     12  C   UNL     1      -0.380  -0.528  -2.633  0.00  0.00    +0.053 A 
ATOM     13  C   UNL     1       0.510  -1.450  -3.168  0.00  0.00    +0.042 A 
ATOM     14  C   UNL     1       0.611  -2.720  -2.582  0.00  0.00    +0.075 A 
ATOM     15  N   UNL     1      -0.126  -3.054  -1.530  0.00  0.00    -0.210 NA
ATOM     16  C   UNL     1      -0.988  -2.211  -0.984  0.00  0.00    +0.260 A 
ATOM     17  O   UNL     1      -1.832  -2.311   0.063  0.00  0.00    -0.334 OA
ATOM     18  N   UNL     1      -2.533  -1.094   0.219  0.00  0.00    -0.080 NA
BRANCH  14  19
ATOM     19  C   UNL     1       1.552  -3.702  -3.144  0.00  0.00    +0.019 C 
ATOM     20  C   UNL     1       1.702  -4.971  -2.756  0.00  0.00    +0.100 C 
ATOM     21  O   UNL     1       2.652  -5.631  -3.450  0.00  0.00    -0.493 OA
ATOM     22  C   UNL     1       2.925  -4.910  -4.666  0.00  0.00    +0.174 C 
ATOM     23  C   UNL     1       2.532  -3.465  -4.281  0.00  0.00    +0.084 C 
ATOM     24  C   UNL     1       4.408  -4.999  -5.032  0.00  0.00    +0.052 C 
ATOM     25  C   UNL     1       0.892  -5.602  -1.653  0.00  0.00    +0.086 C 
ENDBRANCH  14  19
ENDBRANCH   1  12
BRANCH   6  26
ATOM     26  C   UNL     1       0.986   1.109  -8.286  0.00  0.00    -0.015 C 
ATOM     27  C   UNL     1       1.772   2.135  -8.797  0.00  0.00    +0.022 A 
ATOM     28  C   UNL     1       2.144   3.401  -8.291  0.00  0.00    +0.013 A 
ATOM     29  C   UNL     1       2.946   4.192  -9.058  0.00  0.00    +0.020 A 
ATOM     30  C   UNL     1       3.385   3.758 -10.308  0.00  0.00    +0.113 A 
ATOM     31  N   UNL     1       3.059   2.592 -10.805  0.00  0.00    -0.238 NA
ATOM     32  C   UNL     1       2.269   1.733 -10.126  0.00  0.00    +0.135 A 
ATOM     33  N   UNL     1       1.827   0.534 -10.436  0.00  0.00    -0.365 N 
ATOM     34  C   UNL     1       1.001   0.023  -9.339  0.00  0.00    +0.150 C 
ATOM     35  H   UNL     1       2.022   0.060 -11.260  0.00  0.00    +0.161 HD
ENDBRANCH   6  26
TORSDOF 3
