REMARK  Name = ZINC22698253
REMARK  7 active torsions:
REMARK  status: ('A' for Active; 'I' for Inactive)
REMARK    1  A    between atoms: C_1  and  C_2
REMARK    2  A    between atoms: C_5  and  C_15
REMARK    3  A    between atoms: N_8  and  C_9
REMARK    4  A    between atoms: C_9  and  C_10
REMARK    5  A    between atoms: C_15  and  C_17
REMARK    6  A    between atoms: C_15  and  N_24
REMARK    7  A    between atoms: N_27  and  C_30
REMARK                            x       y       z     vdW  Elec       q    Type
REMARK                         _______ _______ _______ _____ _____    ______ ____
ROOT
ATOM      1  C   UNL     1       0.862  -1.892   1.303  0.00  0.00    +0.002 C 
ENDROOT
BRANCH   1   6
ATOM      2  C   UNL     1       3.563  -4.679   5.565  0.00  0.00    +0.064 C 
ATOM      3  C   UNL     1       2.845  -3.958   4.454  0.00  0.00    +0.023 A 
ATOM      4  C   UNL     1       1.573  -4.297   4.153  0.00  0.00    +0.072 A 
ATOM      5  C   UNL     1       0.894  -3.623   3.118  0.00  0.00    +0.188 A 
ATOM      6  C   UNL     1       1.554  -2.629   2.420  0.00  0.00    +0.054 A 
ATOM      7  C   UNL     1       2.873  -2.313   2.768  0.00  0.00    +0.257 A 
ATOM      8  O   UNL     1       3.468  -1.434   2.165  0.00  0.00    -0.267 OA
ATOM      9  N   UNL     1       3.486  -2.976   3.767  0.00  0.00    -0.305 N 
ATOM     10  O   UNL     1      -0.384  -3.948   2.808  0.00  0.00    -0.287 OA
BRANCH   9  11
ATOM     11  C   UNL     1       4.866  -2.634   4.118  0.00  0.00    +0.199 C 
BRANCH  11  12
ATOM     12  C   UNL     1       4.867  -1.458   5.062  0.00  0.00    +0.125 A 
ATOM     13  C   UNL     1       4.815  -1.528   6.404  0.00  0.00    +0.046 A 
ATOM     14  C   UNL     1       4.841  -0.198   6.884  0.00  0.00    +0.041 A 
ATOM     15  C   UNL     1       4.899   0.604   5.806  0.00  0.00    +0.195 A 
ATOM     16  O   UNL     1       4.914  -0.165   4.705  0.00  0.00    -0.466 OA
ENDBRANCH  11  12
ENDBRANCH   9  11
ENDBRANCH   1   6
BRANCH   1  17
ATOM     17  C   UNL     1       1.504  -2.253  -0.011  0.00  0.00    -0.056 A 
ATOM     18  C   UNL     1       2.615  -1.557  -0.452  0.00  0.00    +0.005 A 
ATOM     19  C   UNL     1       3.208  -1.891  -1.654  0.00  0.00    +0.038 A 
ATOM     20  C   UNL     1       2.683  -2.915  -2.424  0.00  0.00    +0.123 A 
ATOM     21  C   UNL     1       1.568  -3.608  -1.984  0.00  0.00    +0.038 A 
ATOM     22  C   UNL     1       0.980  -3.276  -0.778  0.00  0.00    +0.005 A 
ATOM     23  F   UNL     1       3.259  -3.239  -3.603  0.00  0.00    -0.205 F 
ENDBRANCH   1  17
BRANCH   1  24
ATOM     24  N   UNL     1       0.980  -0.444   1.525  0.00  0.00    +0.389 N 
ATOM     25  C   UNL     1       0.401  -0.061   2.820  0.00  0.00    -0.058 C 
ATOM     26  C   UNL     1       0.615   1.438   3.047  0.00  0.00    +0.086 C 
ATOM     27  N   UNL     1      -0.009   2.191   1.951  0.00  0.00    -0.333 N 
ATOM     28  C   UNL     1       0.571   1.808   0.656  0.00  0.00    +0.086 C 
ATOM     29  C   UNL     1       0.357   0.309   0.428  0.00  0.00    -0.058 C 
ATOM     30  H   UNL     1       2.051  -0.193   1.544  0.00  0.00    -0.080 HD
BRANCH  27  31
ATOM     31  C   UNL     1       0.104   3.569   2.162  0.00  0.00    +0.030 A 
ATOM     32  C   UNL     1       0.739   4.048   3.300  0.00  0.00    +0.026 A 
ATOM     33  C   UNL     1       0.853   5.410   3.504  0.00  0.00    +0.040 A 
ATOM     34  C   UNL     1       0.327   6.296   2.580  0.00  0.00    +0.124 A 
ATOM     35  C   UNL     1      -0.311   5.820   1.447  0.00  0.00    +0.040 A 
ATOM     36  C   UNL     1      -0.423   4.460   1.236  0.00  0.00    +0.026 A 
ATOM     37  F   UNL     1       0.436   7.627   2.784  0.00  0.00    -0.205 F 
ENDBRANCH  27  31
ENDBRANCH   1  24
TORSDOF 6
