REMARK  Name = ZINC03242431
REMARK  8 active torsions:
REMARK  status: ('A' for Active; 'I' for Inactive)
REMARK    1  A    between atoms: C_1  and  O_2
REMARK    2  A    between atoms: O_2  and  C_3
REMARK    3  A    between atoms: C_6  and  C_9
REMARK    4  A    between atoms: N_13  and  C_17
REMARK    5  A    between atoms: C_17  and  C_18
REMARK    6  A    between atoms: C_18  and  N_19
REMARK    7  A    between atoms: C_20  and  C_22
REMARK    8  A    between atoms: C_25  and  C_28
REMARK                            x       y       z     vdW  Elec       q    Type
REMARK                         _______ _______ _______ _____ _____    ______ ____
ROOT
ATOM      1  C   UNL     1       1.175   3.555   0.009  0.00  0.00    +0.028 C 
ATOM      2  C   UNL     1       2.340   4.244   0.104  0.00  0.00    +0.080 C 
ATOM      3  C   UNL     1       2.566   5.697   0.230  0.00  0.00    +0.260 C 
ATOM      4  O   UNL     1       1.642   6.488   0.263  0.00  0.00    -0.269 OA
ATOM      5  N   UNL     1       3.825   6.097   0.305  0.00  0.00    -0.227 N 
ATOM      6  C   UNL     1       4.846   5.217   0.267  0.00  0.00    +0.286 C 
ATOM      7  O   UNL     1       6.040   5.443   0.326  0.00  0.00    -0.262 OA
ATOM      8  S   UNL     1       4.022   3.640   0.120  0.00  0.00    -0.026 S 
ENDROOT
BRANCH   1  12
ATOM      9  C   UNL     1       1.229  -0.591  -0.878  0.00  0.00    +0.120 A 
ATOM     10  C   UNL     1       0.038   0.022  -0.507  0.00  0.00    +0.046 A 
ATOM     11  C   UNL     1       0.014   1.367  -0.217  0.00  0.00    +0.011 A 
ATOM     12  C   UNL     1       1.193   2.119  -0.298  0.00  0.00    -0.024 A 
ATOM     13  C   UNL     1       2.390   1.496  -0.673  0.00  0.00    +0.011 A 
ATOM     14  C   UNL     1       2.402   0.150  -0.960  0.00  0.00    +0.046 A 
BRANCH   9  16
ATOM     15  C   UNL     1       2.503  -2.485  -1.538  0.00  0.00    +0.277 C 
ATOM     16  O   UNL     1       1.246  -1.919  -1.163  0.00  0.00    -0.495 OA
ENDBRANCH   9  16
ENDBRANCH   1  12
BRANCH   5  17
ATOM     17  C   UNL     1       4.116   7.527   0.431  0.00  0.00    +0.136 C 
BRANCH  17  18
ATOM     18  C   UNL     1       4.169   7.908   1.911  0.00  0.00    +0.124 C 
BRANCH  18  19
ATOM     19  N   UNL     1       4.460   9.339   2.037  0.00  0.00    -0.310 N 
ATOM     20  C   UNL     1       4.554   9.902   3.258  0.00  0.00    +0.244 C 
ATOM     21  O   UNL     1       4.399   9.223   4.254  0.00  0.00    -0.270 OA
ATOM     22  H   UNL     1       4.584   9.880   1.242  0.00  0.00    +0.149 HD
BRANCH  20  23
ATOM     23  C   UNL     1       4.848  11.345   3.385  0.00  0.00    +0.037 A 
ATOM     24  C   UNL     1       5.033  12.126   2.243  0.00  0.00    +0.013 A 
ATOM     25  C   UNL     1       5.301  13.474   2.368  0.00  0.00    +0.013 A 
ATOM     26  C   UNL     1       5.398  14.049   3.623  0.00  0.00    +0.055 A 
ATOM     27  C   UNL     1       5.221  13.280   4.759  0.00  0.00    +0.013 A 
ATOM     28  C   UNL     1       4.947  11.932   4.648  0.00  0.00    +0.013 A 
BRANCH  26  29
ATOM     29  C   UNL     1       5.698  15.520   3.753  0.00  0.00    +0.417 C 
ATOM     30  F   UNL     1       7.082  15.710   3.814  0.00  0.00    -0.166 F 
ATOM     31  F   UNL     1       5.182  16.201   2.644  0.00  0.00    -0.166 F 
ATOM     32  F   UNL     1       5.106  16.016   4.920  0.00  0.00    -0.166 F 
ENDBRANCH  26  29
ENDBRANCH  20  23
ENDBRANCH  18  19
ENDBRANCH  17  18
ENDBRANCH   5  17
TORSDOF 7
