REMARK  Name = ZINC02513372
REMARK  7 active torsions:
REMARK  status: ('A' for Active; 'I' for Inactive)
REMARK    1  A    between atoms: C_1  and  C_2
REMARK    2  A    between atoms: C_2  and  C_3
REMARK    3  A    between atoms: C_2  and  C_4
REMARK    4  A    between atoms: C_2  and  S_5
REMARK    5  A    between atoms: S_5  and  C_8
REMARK    6  A    between atoms: C_12  and  N_13
REMARK    7  A    between atoms: C_16  and  C_19
REMARK                            x       y       z     vdW  Elec       q    Type
REMARK                         _______ _______ _______ _____ _____    ______ ____
ROOT
ATOM      1  C   UNL     1       2.355   0.056  -1.503  0.00  0.00    +0.148 A 
ATOM      2  C   UNL     1       3.523  -0.708  -1.596  0.00  0.00    +0.163 A 
ATOM      3  N   UNL     1       4.547   0.105  -1.652  0.00  0.00    -0.169 NA
ATOM      4  N   UNL     1       4.072   1.421  -1.586  0.00  0.00    -0.193 N 
ATOM      5  C   UNL     1       2.714   1.369  -1.494  0.00  0.00    +0.147 A 
ATOM      6  C   UNL     1       4.850   2.576  -1.611  0.00  0.00    +0.196 A 
ATOM      7  N   UNL     1       6.161   2.699  -1.698  0.00  0.00    -0.221 NA
ATOM      8  C   UNL     1       6.742   3.888  -1.708  0.00  0.00    +0.080 A 
ATOM      9  C   UNL     1       5.968   5.013  -1.626  0.00  0.00    +0.077 A 
ATOM     10  S   UNL     1       4.336   4.287  -1.540  0.00  0.00    -0.056 S 
ENDROOT
BRANCH   8  11
ATOM     11  C   UNL     1       8.217   4.000  -1.806  0.00  0.00    +0.001 A 
ATOM     12  C   UNL     1       8.825   5.255  -1.821  0.00  0.00    +0.010 A 
ATOM     13  C   UNL     1      10.198   5.352  -1.908  0.00  0.00    +0.001 A 
ATOM     14  C   UNL     1      10.972   4.208  -1.989  0.00  0.00    +0.000 A 
ATOM     15  C   UNL     1      10.375   2.961  -1.980  0.00  0.00    +0.001 A 
ATOM     16  C   UNL     1       9.002   2.851  -1.888  0.00  0.00    +0.010 A 
ENDBRANCH   8  11
BRANCH   1  17
ATOM     17  S   UNL     1       0.711  -0.571  -1.406  0.00  0.00    +0.006 S 
ATOM     18  O   UNL     1       0.682  -1.656  -2.322  0.00  0.00    -0.169 OA
ATOM     19  O   UNL     1      -0.122   0.564  -1.601  0.00  0.00    -0.169 OA
BRANCH  17  21
ATOM     20  C   UNL     1       0.903  -0.066   1.275  0.00  0.00    +0.035 C 
ATOM     21  C   UNL     1       0.545  -1.183   0.293  0.00  0.00    +0.085 C 
ATOM     22  C   UNL     1       1.489  -2.369   0.503  0.00  0.00    +0.035 C 
ATOM     23  C   UNL     1      -0.898  -1.631   0.535  0.00  0.00    +0.035 C 
ENDBRANCH  17  21
ENDBRANCH   1  17
BRANCH   5  24
ATOM     24  N   UNL     1       1.852   2.458  -1.407  0.00  0.00    -0.341 N 
ATOM     25  H   UNL     1       0.893   2.322  -1.450  0.00  0.00    +0.144 HD
ATOM     26  H   UNL     1       2.211   3.353  -1.303  0.00  0.00    +0.144 HD
ENDBRANCH   5  24
TORSDOF 4
