REMARK  Name = ZINC35538403
REMARK  10 active torsions:
REMARK  status: ('A' for Active; 'I' for Inactive)
REMARK    1  A    between atoms: C_1  and  C_2
REMARK    2  A    between atoms: C_5  and  C_38
REMARK    3  A    between atoms: N_8  and  C_10
REMARK    4  A    between atoms: C_10  and  C_11
REMARK    5  A    between atoms: C_11  and  C_12
REMARK    6  A    between atoms: C_12  and  N_13
REMARK    7  A    between atoms: C_14  and  C_16
REMARK    8  A    between atoms: C_16  and  C_37
REMARK    9  A    between atoms: N_28  and  C_29
REMARK   10  A    between atoms: C_29  and  C_30
REMARK                            x       y       z     vdW  Elec       q    Type
REMARK                         _______ _______ _______ _____ _____    ______ ____
ROOT
ATOM      1  C   UNL     1       7.353  -2.177   3.951  0.00  0.00    +0.129 C 
ATOM      2  C   UNL     1       7.990  -2.397   5.323  0.00  0.00    +0.157 C 
ATOM      3  N   UNL     1       7.761  -1.212   6.155  0.00  0.00    -0.331 N 
ATOM      4  C   UNL     1       7.641  -1.102   7.508  0.00  0.00    +0.088 A 
ATOM      5  C   UNL     1       7.628  -1.790   8.745  0.00  0.00    +0.067 A 
ATOM      6  C   UNL     1       7.443  -0.874   9.710  0.00  0.00    +0.198 A 
ATOM      7  O   UNL     1       7.339   0.346   9.155  0.00  0.00    -0.461 OA
ATOM      8  C   UNL     1       7.453   0.246   7.814  0.00  0.00    +0.153 A 
ATOM      9  C   UNL     1       7.453   0.959   6.606  0.00  0.00    +0.079 A 
ATOM     10  C   UNL     1       7.636   0.058   5.598  0.00  0.00    +0.109 A 
ATOM     11  C   UNL     1       7.695   0.250   4.144  0.00  0.00    +0.264 C 
ATOM     12  O   UNL     1       7.760   1.359   3.646  0.00  0.00    -0.268 OA
ATOM     13  N   UNL     1       7.673  -0.871   3.387  0.00  0.00    -0.276 N 
ATOM     14  C   UNL     1       7.853  -3.264   2.997  0.00  0.00    +0.043 C 
ENDROOT
BRANCH   1  16
ATOM     15  N   UNL     1       5.052  -1.756   3.149  0.00  0.00    -0.314 N 
ATOM     16  C   UNL     1       5.857  -2.297   4.084  0.00  0.00    +0.238 C 
ATOM     17  O   UNL     1       5.377  -2.880   5.034  0.00  0.00    -0.273 OA
ATOM     18  H   UNL     1       5.434  -1.355   2.353  0.00  0.00    +0.149 HD
BRANCH  15  19
ATOM     19  C   UNL     1       3.599  -1.774   3.334  0.00  0.00    +0.102 C 
BRANCH  19  20
ATOM     20  C   UNL     1       2.918  -1.212   2.084  0.00  0.00    +0.000 C 
BRANCH  20  21
ATOM     21  C   UNL     1       1.401  -1.342   2.227  0.00  0.00    -0.077 C 
BRANCH  21  27
ATOM     22  C   UNL     1       0.683   2.691  -0.454  0.00  0.00    +0.005 C 
ATOM     23  C   UNL     1       0.405   1.189  -0.359  0.00  0.00    -0.031 C 
ATOM     24  C   UNL     1      -1.107   0.949  -0.345  0.00  0.00    +0.003 C 
ATOM     25  C   UNL     1      -1.375  -0.548  -0.171  0.00  0.00    -0.031 C 
ATOM     26  C   UNL     1      -0.699  -1.036   1.113  0.00  0.00    -0.076 C 
ATOM     27  N   UNL     1       0.747  -0.802   1.027  0.00  0.00    +0.380 N 
ATOM     28  C   UNL     1       1.016   0.638   0.931  0.00  0.00    -0.076 C 
ATOM     29  C   UNL     1      -2.883  -0.791  -0.079  0.00  0.00    +0.005 C 
ATOM     30  H   UNL     1       1.114  -1.266   0.210  0.00  0.00    -0.082 HD
ENDBRANCH  21  27
ENDBRANCH  20  21
ENDBRANCH  19  20
ENDBRANCH  15  19
ENDBRANCH   1  16
BRANCH  13  31
ATOM     31  C   UNL     1       7.981  -0.770   1.958  0.00  0.00    +0.144 C 
BRANCH  31  32
ATOM     32  C   UNL     1       9.475  -0.802   1.762  0.00  0.00    -0.030 A 
ATOM     33  C   UNL     1      10.215   0.357   1.901  0.00  0.00    +0.006 A 
ATOM     34  C   UNL     1      11.585   0.328   1.721  0.00  0.00    +0.020 A 
ATOM     35  C   UNL     1      12.216  -0.861   1.403  0.00  0.00    +0.041 A 
ATOM     36  C   UNL     1      11.474  -2.021   1.264  0.00  0.00    +0.020 A 
ATOM     37  C   UNL     1      10.105  -1.992   1.450  0.00  0.00    +0.006 A 
ATOM     38 CL   UNL     1      13.936  -0.898   1.176  0.00  0.00    -0.084 Cl
ENDBRANCH  31  32
ENDBRANCH  13  31
TORSDOF 7
