REMARK  Name = ZINC34938984
REMARK  5 active torsions:
REMARK  status: ('A' for Active; 'I' for Inactive)
REMARK    1  A    between atoms: C_1  and  C_2
REMARK    2  A    between atoms: C_5  and  S_9
REMARK    3  A    between atoms: C_7  and  N_8
REMARK    4  A    between atoms: S_9  and  N_12
REMARK    5  A    between atoms: N_12  and  C_13
REMARK                            x       y       z     vdW  Elec       q    Type
REMARK                         _______ _______ _______ _____ _____    ______ ____
ROOT
ATOM      1  S   UNL     1       0.062  -4.535  -0.031  0.00  0.00    +0.093 S 
ATOM      2  O   UNL     1      -0.477  -4.960   1.213  0.00  0.00    -0.148 OA
ATOM      3  O   UNL     1      -0.490  -4.937  -1.277  0.00  0.00    -0.148 OA
ENDROOT
BRANCH   1   8
ATOM      4  C   UNL     1      -0.018   1.503   0.010  0.00  0.00    +0.045 C 
ATOM      5  C   UNL     1       0.002  -0.004   0.002  0.00  0.00    -0.030 A 
ATOM      6  C   UNL     1       0.006  -0.689  -1.198  0.00  0.00    +0.007 A 
ATOM      7  C   UNL     1       0.024  -2.071  -1.206  0.00  0.00    +0.029 A 
ATOM      8  C   UNL     1       0.039  -2.773  -0.014  0.00  0.00    +0.112 A 
ATOM      9  C   UNL     1       0.036  -2.095   1.188  0.00  0.00    +0.051 A 
ATOM     10  C   UNL     1       0.023  -0.706   1.200  0.00  0.00    +0.029 A 
BRANCH  10  11
ATOM     11  N   UNL     1       0.025  -0.016   2.415  0.00  0.00    -0.358 N 
ATOM     12  H   UNL     1       0.012   0.954   2.422  0.00  0.00    +0.142 HD
ATOM     13  H   UNL     1       0.040  -0.507   3.252  0.00  0.00    +0.142 HD
ENDBRANCH  10  11
ENDBRANCH   1   8
BRANCH   1  14
ATOM     14  N   UNL     1       1.650  -5.004  -0.044  0.00  0.00    -0.078 NA
BRANCH  14  15
ATOM     15  C   UNL     1       1.975  -6.356  -0.058  0.00  0.00    +0.163 A 
ATOM     16  C   UNL     1       3.312  -6.743  -0.063  0.00  0.00    +0.048 A 
ATOM     17  C   UNL     1       3.622  -8.091  -0.076  0.00  0.00    +0.025 A 
ATOM     18  C   UNL     1       2.580  -9.011  -0.085  0.00  0.00    +0.059 A 
ATOM     19  C   UNL     1       1.276  -8.556  -0.080  0.00  0.00    +0.133 A 
ATOM     20  N   UNL     1       1.011  -7.263  -0.061  0.00  0.00    -0.236 NA
ATOM     21 CL   UNL     1       2.914 -10.714  -0.103  0.00  0.00    -0.082 Cl
ENDBRANCH  14  15
ENDBRANCH   1  14
TORSDOF 4
