REMARK  Name = ZINC67258758
REMARK  5 active torsions:
REMARK  status: ('A' for Active; 'I' for Inactive)
REMARK    1  A    between atoms: C_1  and  N_2
REMARK    2  A    between atoms: C_3  and  C_5
REMARK    3  A    between atoms: C_5  and  C_6
REMARK    4  A    between atoms: C_11  and  N_12
REMARK    5  A    between atoms: C_19  and  C_22
REMARK                            x       y       z     vdW  Elec       q    Type
REMARK                         _______ _______ _______ _____ _____    ______ ____
ROOT
ATOM      1  N   UNL     1      -0.686  -2.515   3.499  0.00  0.00    -0.269 N 
ATOM      2  C   UNL     1      -1.367  -2.756   4.636  0.00  0.00    +0.307 C 
ATOM      3  O   UNL     1      -0.781  -3.160   5.622  0.00  0.00    -0.252 OA
ATOM      4  N   UNL     1      -2.698  -2.549   4.682  0.00  0.00    -0.280 N 
ATOM      5  C   UNL     1      -3.448  -2.173   3.473  0.00  0.00    +0.137 C 
ATOM      6  C   UNL     1      -4.301  -0.941   3.796  0.00  0.00    +0.179 C 
ATOM      7  O   UNL     1      -5.076  -1.199   4.969  0.00  0.00    -0.369 OA
ATOM      8  C   UNL     1      -4.297  -1.435   6.145  0.00  0.00    +0.166 C 
ATOM      9  C   UNL     1      -3.446  -2.699   5.941  0.00  0.00    +0.145 C 
ATOM     10  H   UNL     1      -1.145  -2.149   2.727  0.00  0.00    +0.156 HD
ENDROOT
BRANCH   8  11
ATOM     11  C   UNL     1      -5.214  -1.633   7.324  0.00  0.00    -0.015 A 
ATOM     12  C   UNL     1      -6.377  -2.366   7.181  0.00  0.00    +0.006 A 
ATOM     13  C   UNL     1      -7.219  -2.548   8.261  0.00  0.00    +0.003 A 
ATOM     14  C   UNL     1      -6.900  -1.996   9.488  0.00  0.00    +0.038 A 
ATOM     15  C   UNL     1      -5.736  -1.261   9.633  0.00  0.00    +0.124 A 
ATOM     16  C   UNL     1      -4.890  -1.085   8.551  0.00  0.00    +0.044 A 
ATOM     17  F   UNL     1      -5.423  -0.720  10.831  0.00  0.00    -0.205 F 
ENDBRANCH   8  11
BRANCH   1  23
ATOM     18  C   UNL     1       1.271  -3.105   2.212  0.00  0.00    -0.017 A 
ATOM     19  C   UNL     1       2.624  -3.374   2.148  0.00  0.00    +0.006 A 
ATOM     20  C   UNL     1       3.393  -3.338   3.296  0.00  0.00    +0.000 A 
ATOM     21  C   UNL     1       2.810  -3.034   4.513  0.00  0.00    +0.002 A 
ATOM     22  C   UNL     1       1.458  -2.764   4.584  0.00  0.00    +0.023 A 
ATOM     23  C   UNL     1       0.684  -2.793   3.431  0.00  0.00    +0.038 A 
BRANCH  18  24
ATOM     24  C   UNL     1       0.433  -3.145   0.960  0.00  0.00    +0.132 C 
BRANCH  24  27
ATOM     25  C   UNL     1      -0.494  -0.197  -1.300  0.00  0.00    +0.128 C 
ATOM     26  N   UNL     1      -0.386  -1.548  -0.742  0.00  0.00    -0.318 N 
ATOM     27  C   UNL     1       0.322  -1.756   0.386  0.00  0.00    +0.217 C 
ATOM     28  O   UNL     1       0.868  -0.825   0.940  0.00  0.00    -0.275 OA
ATOM     29  H   UNL     1      -0.823  -2.292  -1.185  0.00  0.00    +0.148 HD
ENDBRANCH  24  27
ENDBRANCH  18  24
ENDBRANCH   1  23
TORSDOF 4
