REMARK  Name = ZINC66197012
REMARK  11 active torsions:
REMARK  status: ('A' for Active; 'I' for Inactive)
REMARK    1  A    between atoms: C_1  and  C_2
REMARK    2  A    between atoms: C_2  and  C_3
REMARK    3  A    between atoms: C_3  and  C_5
REMARK    4  A    between atoms: C_3  and  N_6
REMARK    5  A    between atoms: N_6  and  C_7
REMARK    6  A    between atoms: N_6  and  C_8
REMARK    7  A    between atoms: C_8  and  C_9
REMARK    8  A    between atoms: C_9  and  N_10
REMARK    9  A    between atoms: N_16  and  C_19
REMARK   10  A    between atoms: C_22  and  S_25
REMARK   11  A    between atoms: S_25  and  N_28
REMARK                            x       y       z     vdW  Elec       q    Type
REMARK                         _______ _______ _______ _____ _____    ______ ____
ROOT
ATOM      1  N   UNL     1       4.797   0.069  -3.973  0.00  0.00    -0.301 N 
ATOM      2  C   UNL     1       6.083   0.409  -4.183  0.00  0.00    +0.302 C 
ATOM      3  O   UNL     1       6.769   0.795  -3.256  0.00  0.00    -0.253 OA
ATOM      4  N   UNL     1       6.610   0.322  -5.420  0.00  0.00    -0.283 N 
ATOM      5  C   UNL     1       5.764  -0.028  -6.570  0.00  0.00    +0.128 C 
ATOM      6  C   UNL     1       5.908   1.067  -7.635  0.00  0.00    +0.124 C 
ATOM      7  N   UNL     1       7.338   1.320  -7.859  0.00  0.00    -0.327 N 
ATOM      8  C   UNL     1       8.184   1.669  -6.709  0.00  0.00    +0.124 C 
ATOM      9  C   UNL     1       8.039   0.580  -5.645  0.00  0.00    +0.128 C 
ATOM     10  H   UNL     1       4.271  -0.309  -4.695  0.00  0.00    +0.150 HD
ENDROOT
BRANCH   7  11
ATOM     11  C   UNL     1       7.884   1.229  -9.141  0.00  0.00    +0.030 A 
ATOM     12  C   UNL     1       7.056   1.024 -10.237  0.00  0.00    +0.025 A 
ATOM     13  C   UNL     1       7.598   0.935 -11.504  0.00  0.00    +0.030 A 
ATOM     14  C   UNL     1       8.965   1.050 -11.682  0.00  0.00    +0.105 A 
ATOM     15  C   UNL     1       9.793   1.253 -10.593  0.00  0.00    +0.030 A 
ATOM     16  C   UNL     1       9.256   1.349  -9.324  0.00  0.00    +0.025 A 
BRANCH  14  17
ATOM     17  S   UNL     1       9.654   0.935 -13.300  0.00  0.00    +0.056 S 
ATOM     18  O   UNL     1      11.006   0.529 -13.138  0.00  0.00    -0.153 OA
ATOM     19  O   UNL     1       8.726   0.198 -14.084  0.00  0.00    -0.153 OA
BRANCH  17  20
ATOM     20  N   UNL     1       9.691   2.467 -13.926  0.00  0.00    -0.204 NA
ATOM     21  H   UNL     1       9.365   3.214 -13.400  0.00  0.00    +0.144 HD
ATOM     22  H   UNL     1      10.040   2.618 -14.818  0.00  0.00    +0.144 HD
ENDBRANCH  17  20
ENDBRANCH  14  17
ENDBRANCH   7  11
BRANCH   1  23
ATOM     23  C   UNL     1       4.192   0.269  -2.653  0.00  0.00    +0.087 C 
BRANCH  23  24
ATOM     24  C   UNL     1       2.735  -0.196  -2.684  0.00  0.00    -0.060 C 
BRANCH  24  25
ATOM     25  N   UNL     1       2.128   0.006  -1.361  0.00  0.00    +0.381 N 
ATOM     26  C   UNL     1       2.071   1.443  -1.062  0.00  0.00    -0.096 C 
ATOM     27  H   UNL     1       2.685  -0.462  -0.661  0.00  0.00    -0.082 HD
BRANCH  25  28
ATOM     28  C   UNL     1       0.768  -0.550  -1.356  0.00  0.00    -0.072 C 
ATOM     29  C   UNL     1      -0.034   0.054  -2.511  0.00  0.00    -0.013 C 
BRANCH  28  31
ATOM     30  C   UNL     1       1.524  -2.686  -0.303  0.00  0.00    +0.002 C 
ATOM     31  C   UNL     1       0.838  -2.069  -1.523  0.00  0.00    -0.019 C 
ENDBRANCH  28  31
ENDBRANCH  25  28
ENDBRANCH  24  25
ENDBRANCH  23  24
ENDBRANCH   1  23
TORSDOF 8
