REMARK  Name = ZINC56708294
REMARK  8 active torsions:
REMARK  status: ('A' for Active; 'I' for Inactive)
REMARK    1  A    between atoms: C_1  and  N_2
REMARK    2  A    between atoms: N_2  and  C_3
REMARK    3  A    between atoms: N_2  and  C_4
REMARK    4  A    between atoms: C_4  and  C_6
REMARK    5  A    between atoms: C_4  and  C_23
REMARK    6  A    between atoms: C_6  and  N_7
REMARK    7  A    between atoms: N_10  and  C_11
REMARK    8  A    between atoms: C_15  and  N_17
REMARK                            x       y       z     vdW  Elec       q    Type
REMARK                         _______ _______ _______ _____ _____    ______ ____
ROOT
ATOM      1  N   UNL     1      -0.510  -2.074   0.631  0.00  0.00    -0.300 N 
ATOM      2  C   UNL     1      -0.311  -3.403   0.732  0.00  0.00    +0.304 C 
ATOM      3  O   UNL     1      -0.739  -4.149  -0.128  0.00  0.00    -0.253 OA
ATOM      4  N   UNL     1       0.363  -3.906   1.786  0.00  0.00    -0.269 N 
ATOM      5  H   UNL     1      -0.169  -1.479   1.317  0.00  0.00    +0.150 HD
ATOM      6  H   UNL     1       0.630  -3.322   2.514  0.00  0.00    +0.156 HD
ENDROOT
BRANCH   4   7
ATOM      7  C   UNL     1       0.678  -5.268   1.829  0.00  0.00    +0.037 A 
ATOM      8  C   UNL     1       0.984  -5.949   0.658  0.00  0.00    +0.023 A 
ATOM      9  C   UNL     1       1.296  -7.295   0.700  0.00  0.00    +0.004 A 
ATOM     10  C   UNL     1       1.304  -7.967   1.907  0.00  0.00    +0.023 A 
ATOM     11  C   UNL     1       0.998  -7.292   3.082  0.00  0.00    +0.032 A 
ATOM     12  C   UNL     1       0.691  -5.939   3.043  0.00  0.00    +0.046 A 
BRANCH  11  13
ATOM     13  N   UNL     1       1.006  -7.973   4.302  0.00  0.00    -0.325 N 
ATOM     14  C   UNL     1       0.559  -7.315   5.539  0.00  0.00    +0.133 C 
ATOM     15  C   UNL     1      -0.463  -8.226   6.230  0.00  0.00    +0.178 C 
ATOM     16  O   UNL     1       0.095  -9.534   6.372  0.00  0.00    -0.377 OA
ATOM     17  C   UNL     1       0.395 -10.181   5.133  0.00  0.00    +0.178 C 
ATOM     18  C   UNL     1       1.455  -9.372   4.386  0.00  0.00    +0.133 C 
ENDBRANCH  11  13
ENDBRANCH   4   7
BRANCH   1  19
ATOM     19  C   UNL     1      -1.243  -1.528  -0.514  0.00  0.00    +0.095 C 
BRANCH  19  20
ATOM     20  C   UNL     1      -1.438  -0.023  -0.324  0.00  0.00    -0.021 C 
BRANCH  20  21
ATOM     21  C   UNL     1      -2.254   0.225   0.918  0.00  0.00    -0.057 A 
ATOM     22  C   UNL     1      -3.629   0.081   0.882  0.00  0.00    +0.002 A 
ATOM     23  C   UNL     1      -4.379   0.308   2.021  0.00  0.00    +0.003 A 
ATOM     24  C   UNL     1      -3.755   0.680   3.197  0.00  0.00    +0.038 A 
ATOM     25  C   UNL     1      -2.379   0.824   3.235  0.00  0.00    +0.124 A 
ATOM     26  C   UNL     1      -1.628   0.591   2.095  0.00  0.00    +0.040 A 
ATOM     27  F   UNL     1      -1.768   1.188   4.384  0.00  0.00    -0.205 F 
ENDBRANCH  20  21
BRANCH  20  29
ATOM     28  C   UNL     1      -2.240   1.990  -1.353  0.00  0.00    -0.096 C 
ATOM     29  N   UNL     1      -2.140   0.531  -1.489  0.00  0.00    +0.382 N 
ATOM     30  C   UNL     1      -1.393   0.205  -2.712  0.00  0.00    -0.096 C 
ATOM     31  H   UNL     1      -3.066   0.134  -1.545  0.00  0.00    -0.082 HD
ENDBRANCH  20  29
ENDBRANCH  19  20
ENDBRANCH   1  19
TORSDOF 6
