REMARK  Name = ZINC03450084
REMARK  7 active torsions:
REMARK  status: ('A' for Active; 'I' for Inactive)
REMARK    1  A    between atoms: C_1  and  C_2
REMARK    2  A    between atoms: C_2  and  C_4
REMARK    3  A    between atoms: C_2  and  N_51
REMARK    4  A    between atoms: N_6  and  C_7
REMARK    5  A    between atoms: N_17  and  C_20
REMARK    6  A    between atoms: C_23  and  C_26
REMARK    7  A    between atoms: C_26  and  C_28
REMARK                            x       y       z     vdW  Elec       q    Type
REMARK                         _______ _______ _______ _____ _____    ______ ____
ROOT
ATOM      1  C   UNL     1      -1.338   1.795  -0.905  0.00  0.00    -0.059 C 
ATOM      2  C   UNL     1      -1.830   3.221  -0.643  0.00  0.00    +0.086 C 
ATOM      3  N   UNL     1      -0.676   4.127  -0.561  0.00  0.00    -0.333 N 
ATOM      4  C   UNL     1       0.234   3.720   0.518  0.00  0.00    +0.086 C 
ATOM      5  C   UNL     1       0.726   2.294   0.257  0.00  0.00    -0.059 C 
ATOM      6  N   UNL     1      -0.442   1.390   0.199  0.00  0.00    +0.389 N 
ATOM      7  H   UNL     1      -0.956   1.451   1.085  0.00  0.00    -0.081 HD
ENDROOT
BRANCH   3   8
ATOM      8  C   UNL     1      -1.088   5.443  -0.395  0.00  0.00    +0.030 A 
ATOM      9  C   UNL     1      -0.635   6.180   0.697  0.00  0.00    +0.024 A 
ATOM     10  C   UNL     1      -1.033   7.476   0.861  0.00  0.00    +0.013 A 
ATOM     11  C   UNL     1      -1.908   8.060  -0.064  0.00  0.00    +0.017 A 
ATOM     12  C   UNL     1      -2.365   7.314  -1.158  0.00  0.00    +0.013 A 
ATOM     13  C   UNL     1      -1.958   6.020  -1.317  0.00  0.00    +0.024 A 
BRANCH  11  14
ATOM     14  C   UNL     1      -2.343   9.451   0.111  0.00  0.00    +0.160 C 
ATOM     15  O   UNL     1      -3.100   9.956  -0.691  0.00  0.00    -0.292 OA
ATOM     16  C   UNL     1      -1.849  10.252   1.288  0.00  0.00    +0.091 C 
ENDBRANCH  11  14
ENDBRANCH   3   8
BRANCH   6  18
ATOM     17  C   UNL     1       1.048  -0.076  -1.121  0.00  0.00    -0.004 C 
ATOM     18  C   UNL     1       0.008  -0.004  -0.001  0.00  0.00    +0.017 C 
BRANCH  18  19
ATOM     19  C   UNL     1       0.616  -0.506   1.283  0.00  0.00    +0.203 C 
ATOM     20  O   UNL     1       0.907   0.277   2.163  0.00  0.00    -0.277 OA
ATOM     21  N   UNL     1       0.838  -1.824   1.454  0.00  0.00    -0.287 N 
ATOM     22  H   UNL     1       0.667  -2.443   0.726  0.00  0.00    +0.155 HD
BRANCH  21  23
ATOM     23  C   UNL     1       1.315  -2.300   2.680  0.00  0.00    +0.036 A 
ATOM     24  C   UNL     1       2.216  -1.543   3.417  0.00  0.00    +0.043 A 
ATOM     25  C   UNL     1       2.682  -2.014   4.630  0.00  0.00    +0.044 A 
ATOM     26  C   UNL     1       2.260  -3.243   5.105  0.00  0.00    +0.040 A 
ATOM     27  C   UNL     1       1.367  -4.002   4.370  0.00  0.00    +0.044 A 
ATOM     28  C   UNL     1       0.893  -3.534   3.159  0.00  0.00    +0.043 A 
ATOM     29 CL   UNL     1       0.840  -5.543   4.970  0.00  0.00    -0.083 Cl
ATOM     30 CL   UNL     1       3.803  -1.065   5.556  0.00  0.00    -0.083 Cl
ENDBRANCH  21  23
ENDBRANCH  18  19
ENDBRANCH   6  18
TORSDOF 5
