REMARK  Name = ZINC63818976
REMARK  7 active torsions:
REMARK  status: ('A' for Active; 'I' for Inactive)
REMARK    1  A    between atoms: C_1  and  C_2
REMARK    2  A    between atoms: N_4  and  C_5
REMARK    3  A    between atoms: C_9  and  C_11
REMARK    4  A    between atoms: N_13  and  C_14
REMARK    5  A    between atoms: C_14  and  C_15
REMARK    6  A    between atoms: C_15  and  C_17
REMARK    7  A    between atoms: C_15  and  C_24
REMARK                            x       y       z     vdW  Elec       q    Type
REMARK                         _______ _______ _______ _____ _____    ______ ____
ROOT
ATOM      1  C   UNL     1      -4.170  -8.685   0.336  0.00  0.00    +0.066 C 
ENDROOT
BRANCH   1   2
ATOM      2  C   UNL     1      -5.417  -9.521   0.208  0.00  0.00    -0.033 C 
ATOM      3  C   UNL     1      -5.675 -10.458  -0.733  0.00  0.00    -0.000 A 
ATOM      4  C   UNL     1      -4.901 -10.959  -1.875  0.00  0.00    +0.010 A 
ATOM      5  C   UNL     1      -5.435 -11.925  -2.657  0.00  0.00    +0.001 A 
ATOM      6  C   UNL     1      -6.707 -12.457  -2.405  0.00  0.00    +0.002 A 
ATOM      7  C   UNL     1      -7.478 -12.048  -1.375  0.00  0.00    +0.026 A 
ATOM      8  C   UNL     1      -7.015 -11.038  -0.487  0.00  0.00    +0.043 A 
ATOM      9  N   UNL     1      -7.564 -10.481   0.564  0.00  0.00    -0.380 N 
ATOM     10  C   UNL     1      -6.631  -9.488   1.109  0.00  0.00    +0.145 C 
ATOM     11  H   UNL     1      -8.440 -10.692   0.924  0.00  0.00    +0.160 HD
ENDBRANCH   1   2
BRANCH   1  12
ATOM     12  C   UNL     1      -3.520  -8.953   1.669  0.00  0.00    -0.020 A 
ATOM     13  C   UNL     1      -4.215  -8.708   2.839  0.00  0.00    +0.006 A 
ATOM     14  C   UNL     1      -3.618  -8.954   4.061  0.00  0.00    +0.000 A 
ATOM     15  C   UNL     1      -2.327  -9.446   4.115  0.00  0.00    +0.001 A 
ATOM     16  C   UNL     1      -1.632  -9.692   2.946  0.00  0.00    +0.020 A 
ATOM     17  C   UNL     1      -2.231  -9.451   1.722  0.00  0.00    +0.045 A 
ATOM     18 CL   UNL     1      -1.360  -9.766   0.253  0.00  0.00    -0.083 Cl
ENDBRANCH   1  12
BRANCH   1  19
ATOM     19  C   UNL     1      -4.538  -7.203   0.238  0.00  0.00    +0.117 C 
BRANCH  19  22
ATOM     20  C   UNL     1      -3.396  -5.052   0.164  0.00  0.00    +0.244 C 
ATOM     21  O   UNL     1      -4.481  -4.511   0.088  0.00  0.00    -0.270 OA
ATOM     22  N   UNL     1      -3.316  -6.395   0.242  0.00  0.00    -0.310 N 
ATOM     23  H   UNL     1      -2.450  -6.827   0.302  0.00  0.00    +0.149 HD
BRANCH  20  28
ATOM     24  C   UNL     1      -1.081  -2.089   0.091  0.00  0.00    +0.034 A 
ATOM     25  C   UNL     1       0.157  -2.715   0.178  0.00  0.00    +0.023 A 
ATOM     26  C   UNL     1       0.236  -4.092   0.259  0.00  0.00    +0.003 A 
ATOM     27  C   UNL     1      -0.914  -4.856   0.255  0.00  0.00    +0.013 A 
ATOM     28  C   UNL     1      -2.162  -4.237   0.168  0.00  0.00    +0.038 A 
ATOM     29  C   UNL     1      -2.242  -2.846   0.092  0.00  0.00    +0.036 A 
BRANCH  24  33
ATOM     30  C   UNL     1      -2.194   1.470   0.609  0.00  0.00    +0.109 C 
ATOM     31  C   UNL     1      -2.169  -0.037   0.608  0.00  0.00    +0.214 C 
ATOM     32  O   UNL     1      -3.061  -0.658   1.146  0.00  0.00    -0.276 OA
ATOM     33  N   UNL     1      -1.156  -0.694   0.009  0.00  0.00    -0.286 N 
ATOM     34  H   UNL     1      -0.478  -0.200  -0.478  0.00  0.00    +0.155 HD
ENDBRANCH  24  33
ENDBRANCH  20  28
ENDBRANCH  19  22
ENDBRANCH   1  19
TORSDOF 6
