REMARK  Name = ZINC17130865
REMARK  6 active torsions:
REMARK  status: ('A' for Active; 'I' for Inactive)
REMARK    1  A    between atoms: C_1  and  O_2
REMARK    2  A    between atoms: O_2  and  C_3
REMARK    3  A    between atoms: N_11  and  C_12
REMARK    4  A    between atoms: C_13  and  C_21
REMARK    5  A    between atoms: C_24  and  C_26
REMARK    6  A    between atoms: N_28  and  C_29
REMARK                            x       y       z     vdW  Elec       q    Type
REMARK                         _______ _______ _______ _____ _____    ______ ____
ROOT
ATOM      1  C   UNL     1       0.438  -0.654   0.776  0.00  0.00    +0.163 A 
ATOM      2  C   UNL     1       0.249   0.092   1.928  0.00  0.00    +0.049 A 
ATOM      3  C   UNL     1      -0.019  -0.532   3.137  0.00  0.00    +0.004 A 
ATOM      4  C   UNL     1      -0.099  -1.904   3.212  0.00  0.00    +0.012 A 
ATOM      5  C   UNL     1       0.092  -2.675   2.058  0.00  0.00    +0.022 A 
ATOM      6  C   UNL     1       0.354  -2.042   0.829  0.00  0.00    +0.179 A 
ATOM      7  O   UNL     1       0.525  -2.787  -0.290  0.00  0.00    -0.435 OA
ATOM      8  C   UNL     1       0.993  -4.049  -0.125  0.00  0.00    +0.212 A 
ATOM      9  N   UNL     1       1.892  -4.554  -0.950  0.00  0.00    -0.319 N 
ATOM     10  C   UNL     1       0.468  -4.840   1.003  0.00  0.00    +0.098 A 
ATOM     11  C   UNL     1       0.020  -4.136   2.112  0.00  0.00    +0.030 A 
ATOM     12  H   UNL     1       2.297  -5.415  -0.758  0.00  0.00    +0.169 HD
ENDROOT
BRANCH   9  13
ATOM     13  C   UNL     1       2.248  -3.875  -2.057  0.00  0.00    +0.093 A 
ATOM     14  C   UNL     1       3.167  -4.233  -3.052  0.00  0.00    +0.071 A 
ATOM     15  C   UNL     1       3.362  -3.305  -4.152  0.00  0.00    -0.023 A 
ATOM     16  C   UNL     1       2.632  -2.169  -4.115  0.00  0.00    -0.004 A 
ATOM     17  S   UNL     1       1.662  -2.293  -2.637  0.00  0.00    -0.075 S 
ATOM     18  C   UNL     1       2.641  -1.052  -5.114  0.00  0.00    +0.043 C 
ATOM     19  C   UNL     1       3.880  -1.211  -6.007  0.00  0.00    +0.005 C 
ATOM     20  C   UNL     1       3.963  -2.666  -6.477  0.00  0.00    +0.005 C 
ATOM     21  C   UNL     1       4.331  -3.571  -5.301  0.00  0.00    +0.037 C 
BRANCH  14  22
ATOM     22  C   UNL     1       3.903  -5.496  -2.985  0.00  0.00    +0.244 C 
ATOM     23  O   UNL     1       3.440  -6.499  -3.497  0.00  0.00    -0.270 OA
ATOM     24  N   UNL     1       5.094  -5.548  -2.356  0.00  0.00    -0.325 N 
ATOM     25  H   UNL     1       5.463  -4.749  -1.949  0.00  0.00    +0.145 HD
ATOM     26  H   UNL     1       5.582  -6.385  -2.312  0.00  0.00    +0.145 HD
ENDBRANCH  14  22
ENDBRANCH   9  13
BRANCH  10  27
ATOM     27  C   UNL     1       0.432  -6.312   0.959  0.00  0.00    +0.253 C 
ATOM     28  O   UNL     1       0.120  -6.942   1.952  0.00  0.00    -0.270 OA
ATOM     29  N   UNL     1       0.745  -6.960  -0.180  0.00  0.00    -0.281 N 
ATOM     30  H   UNL     1       1.046  -6.460  -0.956  0.00  0.00    +0.155 HD
BRANCH  29  31
ATOM     31  C   UNL     1       0.636  -8.354  -0.245  0.00  0.00    +0.034 A 
ATOM     32  C   UNL     1       0.928  -9.127   0.871  0.00  0.00    +0.026 A 
ATOM     33  C   UNL     1       0.820 -10.502   0.804  0.00  0.00    +0.040 A 
ATOM     34  C   UNL     1       0.419 -11.110  -0.374  0.00  0.00    +0.124 A 
ATOM     35  C   UNL     1       0.127 -10.341  -1.488  0.00  0.00    +0.040 A 
ATOM     36  C   UNL     1       0.229  -8.965  -1.424  0.00  0.00    +0.026 A 
ATOM     37  F   UNL     1       0.315 -12.455  -0.436  0.00  0.00    -0.205 F 
ENDBRANCH  29  31
ENDBRANCH  10  27
BRANCH   1  39
ATOM     38  C   UNL     1       0.770   1.396  -0.383  0.00  0.00    +0.277 C 
ATOM     39  O   UNL     1       0.699  -0.031  -0.404  0.00  0.00    -0.491 OA
ENDBRANCH   1  39
TORSDOF 5
