REMARK  Name = ZINC64028184
REMARK  9 active torsions:
REMARK  status: ('A' for Active; 'I' for Inactive)
REMARK    1  A    between atoms: C_1  and  C_2
REMARK    2  A    between atoms: C_5  and  C_7
REMARK    3  A    between atoms: C_7  and  N_8
REMARK    4  A    between atoms: N_8  and  C_9
REMARK    5  A    between atoms: N_8  and  C_23
REMARK    6  A    between atoms: C_9  and  N_10
REMARK    7  A    between atoms: N_16  and  C_19
REMARK    8  A    between atoms: C_23  and  C_24
REMARK    9  A    between atoms: C_23  and  C_25
REMARK                            x       y       z     vdW  Elec       q    Type
REMARK                         _______ _______ _______ _____ _____    ______ ____
ROOT
ATOM      1  N   UNL     1       2.026  -5.417  -3.243  0.00  0.00    -0.211 N 
ATOM      2  C   UNL     1       1.217  -5.943  -4.186  0.00  0.00    +0.247 C 
ATOM      3  O   UNL     1       0.144  -6.480  -4.017  0.00  0.00    -0.273 OA
ATOM      4  C   UNL     1       1.933  -5.721  -5.498  0.00  0.00    +0.109 C 
ATOM      5  C   UNL     1       2.242  -7.056  -6.170  0.00  0.00    +0.017 C 
ATOM      6  C   UNL     1       2.924  -6.798  -7.517  0.00  0.00    -0.077 C 
ATOM      7  N   UNL     1       2.041  -5.992  -8.368  0.00  0.00    +0.378 N 
ATOM      8  C   UNL     1       1.823  -4.674  -7.758  0.00  0.00    -0.077 C 
ATOM      9  C   UNL     1       1.095  -4.842  -6.422  0.00  0.00    +0.017 C 
ATOM     10  C   UNL     1       2.659  -5.821  -9.689  0.00  0.00    -0.096 C 
ATOM     11  N   UNL     1       3.173  -5.035  -5.119  0.00  0.00    -0.285 N 
ATOM     12  C   UNL     1       3.136  -4.896  -3.779  0.00  0.00    +0.310 C 
ATOM     13  O   UNL     1       4.014  -4.361  -3.131  0.00  0.00    -0.252 OA
ATOM     14  H   UNL     1       3.879  -4.738  -5.715  0.00  0.00    +0.151 HD
ATOM     15  H   UNL     1       1.155  -6.463  -8.473  0.00  0.00    -0.082 HD
ENDROOT
BRANCH   1  16
ATOM     16  C   UNL     1       1.723  -5.410  -1.809  0.00  0.00    +0.205 C 
BRANCH  16  17
ATOM     17  N   UNL     1       0.774  -4.328  -1.514  0.00  0.00    -0.279 NA
BRANCH  17  18
ATOM     18  C   UNL     1      -0.046  -4.654  -0.340  0.00  0.00    +0.052 C 
ATOM     19  C   UNL     1      -0.931  -5.861  -0.654  0.00  0.00    +0.024 C 
ATOM     20  C   UNL     1       0.866  -4.984   0.844  0.00  0.00    +0.024 C 
ENDBRANCH  17  18
BRANCH  17  21
ATOM     21  C   UNL     1       1.474  -3.050  -1.330  0.00  0.00    +0.128 C 
BRANCH  21  26
ATOM     22  C   UNL     1      -2.188   1.202  -2.103  0.00  0.00    +0.051 C 
ATOM     23  C   UNL     1      -1.276   0.095  -1.642  0.00  0.00    -0.013 A 
ATOM     24  C   UNL     1      -1.064  -0.371  -0.387  0.00  0.00    +0.011 A 
ATOM     25  C   UNL     1      -0.171  -1.408  -0.198  0.00  0.00    +0.013 A 
ATOM     26  C   UNL     1       0.468  -1.930  -1.274  0.00  0.00    +0.004 A 
ATOM     27  S   UNL     1      -0.198  -0.950  -2.610  0.00  0.00    -0.097 S 
ENDBRANCH  21  26
ENDBRANCH  17  21
ENDBRANCH  16  17
ENDBRANCH   1  16
TORSDOF 5
