REMARK  Name = ZINC10121642
REMARK  15 active torsions:
REMARK  status: ('A' for Active; 'I' for Inactive)
REMARK    1  A    between atoms: C_1  and  C_2
REMARK    2  A    between atoms: C_2  and  C_3
REMARK    3  A    between atoms: C_3  and  C_4
REMARK    4  A    between atoms: C_4  and  O_5
REMARK    5  A    between atoms: O_5  and  C_6
REMARK    6  A    between atoms: C_9  and  N_12
REMARK    7  A    between atoms: N_12  and  C_13
REMARK    8  A    between atoms: C_13  and  N_15
REMARK    9  A    between atoms: C_16  and  C_18
REMARK   10  A    between atoms: C_22  and  O_24
REMARK   11  A    between atoms: O_24  and  C_25
REMARK   12  A    between atoms: C_25  and  C_26
REMARK   13  A    between atoms: C_26  and  O_27
REMARK   14  A    between atoms: O_27  and  C_28
REMARK   15  A    between atoms: C_28  and  C_29
REMARK                            x       y       z     vdW  Elec       q    Type
REMARK                         _______ _______ _______ _____ _____    ______ ____
ROOT
ATOM      1  N   UNL     1      -1.225   1.869   0.430  0.00  0.00    -0.264 N 
ATOM      2  C   UNL     1      -0.098   1.237   0.812  0.00  0.00    +0.250 C 
ATOM      3  O   UNL     1      -0.139   0.068   1.141  0.00  0.00    -0.270 OA
ATOM      4  H   UNL     1      -1.193   2.803   0.167  0.00  0.00    +0.157 HD
ENDROOT
BRANCH   2   5
ATOM      5  C   UNL     1       1.188   1.964   0.826  0.00  0.00    +0.041 A 
ATOM      6  C   UNL     1       1.239   3.306   0.443  0.00  0.00    +0.013 A 
ATOM      7  C   UNL     1       2.442   3.983   0.461  0.00  0.00    +0.004 A 
ATOM      8  C   UNL     1       3.599   3.333   0.849  0.00  0.00    +0.046 A 
ATOM      9  C   UNL     1       3.560   1.998   1.227  0.00  0.00    +0.121 A 
ATOM     10  C   UNL     1       2.358   1.311   1.217  0.00  0.00    +0.058 A 
BRANCH   9  11
ATOM     11  O   UNL     1       4.701   1.366   1.606  0.00  0.00    -0.490 OA
BRANCH  11  12
ATOM     12  C   UNL     1       5.905   2.135   1.593  0.00  0.00    +0.257 C 
BRANCH  12  13
ATOM     13  C   UNL     1       7.075   1.260   2.047  0.00  0.00    +0.200 C 
BRANCH  13  14
ATOM     14  O   UNL     1       7.285   0.214   1.096  0.00  0.00    -0.377 OA
BRANCH  14  15
ATOM     15  C   UNL     1       8.361  -0.665   1.428  0.00  0.00    +0.156 C 
ATOM     16  C   UNL     1       8.493  -1.740   0.347  0.00  0.00    +0.034 C 
ENDBRANCH  14  15
ENDBRANCH  13  14
ENDBRANCH  12  13
ENDBRANCH  11  12
ENDBRANCH   9  11
ENDBRANCH   2   5
BRANCH   1  17
ATOM     17  C   UNL     1      -2.398   1.205   0.412  0.00  0.00    +0.141 C 
ATOM     18  S   UNL     1      -2.455  -0.442   0.875  0.00  0.00    -0.018 S 
BRANCH  17  19
ATOM     19  N   UNL     1      -3.525   1.837   0.029  0.00  0.00    -0.297 N 
ATOM     20  H   UNL     1      -3.504   2.785  -0.175  0.00  0.00    +0.154 HD
BRANCH  19  24
ATOM     21  C   UNL     1      -7.102  -0.282  -0.280  0.00  0.00    +0.121 A 
ATOM     22  C   UNL     1      -6.288  -0.454   0.830  0.00  0.00    +0.047 A 
ATOM     23  C   UNL     1      -5.103   0.247   0.933  0.00  0.00    +0.027 A 
ATOM     24  C   UNL     1      -4.726   1.125  -0.075  0.00  0.00    +0.033 A 
ATOM     25  C   UNL     1      -5.544   1.300  -1.183  0.00  0.00    +0.027 A 
ATOM     26  C   UNL     1      -6.726   0.594  -1.288  0.00  0.00    +0.047 A 
BRANCH  21  27
ATOM     27  O   UNL     1      -8.268  -0.974  -0.381  0.00  0.00    -0.492 OA
BRANCH  27  28
ATOM     28  C   UNL     1      -9.057  -0.748  -1.551  0.00  0.00    +0.229 C 
BRANCH  28  29
ATOM     29  C   UNL     1     -10.322  -1.607  -1.487  0.00  0.00    +0.041 C 
BRANCH  29  31
ATOM     30  C   UNL     1     -12.431  -2.224  -2.676  0.00  0.00    +0.004 C 
ATOM     31  C   UNL     1     -11.167  -1.365  -2.740  0.00  0.00    -0.000 C 
ENDBRANCH  29  31
ENDBRANCH  28  29
ENDBRANCH  27  28
ENDBRANCH  21  27
ENDBRANCH  19  24
ENDBRANCH  17  19
ENDBRANCH   1  17
TORSDOF 13
