REMARK  Name = ZINC16671957
REMARK  2 active torsions:
REMARK  status: ('A' for Active; 'I' for Inactive)
REMARK    1  A    between atoms: C_3  and  N_21
REMARK    2  A    between atoms: C_6  and  N_7
REMARK                            x       y       z     vdW  Elec       q    Type
REMARK                         _______ _______ _______ _____ _____    ______ ____
ROOT
ATOM      1  C   UNL     1      -0.002   1.362   0.247  0.00  0.00    +0.026 A 
ATOM      2  C   UNL     1       1.184   2.069   0.240  0.00  0.00    +0.027 A 
ATOM      3  C   UNL     1       2.381   1.414  -0.013  0.00  0.00    +0.062 A 
ATOM      4  C   UNL     1       2.386   0.046  -0.258  0.00  0.00    +0.065 A 
ATOM      5  C   UNL     1       1.199  -0.660  -0.251  0.00  0.00    +0.045 A 
ATOM      6  C   UNL     1       0.002  -0.004   0.002  0.00  0.00    +0.045 A 
ATOM      7 CL   UNL     1       3.883  -0.774  -0.575  0.00  0.00    -0.082 Cl
ENDROOT
BRANCH   6   8
ATOM      8  N   UNL     1      -1.203  -0.722   0.010  0.00  0.00    -0.210 N 
ATOM      9  C   UNL     1      -2.406  -0.132   0.118  0.00  0.00    +0.230 C 
ATOM     10  O   UNL     1      -2.624   1.060   0.072  0.00  0.00    -0.275 OA
ATOM     11  C   UNL     1      -3.450  -1.231   0.307  0.00  0.00    +0.088 C 
ATOM     12  C   UNL     1      -3.803  -1.290   1.781  0.00  0.00    +0.013 C 
ATOM     13  C   UNL     1      -4.307  -2.663   2.206  0.00  0.00    +0.001 C 
ATOM     14  C   UNL     1      -3.212  -3.694   1.911  0.00  0.00    +0.001 C 
ATOM     15  C   UNL     1      -3.030  -3.775   0.399  0.00  0.00    +0.013 C 
ATOM     16  C   UNL     1      -2.715  -2.445  -0.243  0.00  0.00    +0.088 C 
ATOM     17  C   UNL     1      -1.259  -2.063  -0.095  0.00  0.00    +0.230 C 
ATOM     18  O   UNL     1      -0.316  -2.825  -0.073  0.00  0.00    -0.275 OA
ENDBRANCH   6   8
BRANCH   3  19
ATOM     19  N   UNL     1       3.586   2.133  -0.021  0.00  0.00    -0.209 N 
ATOM     20  C   UNL     1       4.088   2.710  -1.127  0.00  0.00    +0.230 C 
ATOM     21  O   UNL     1       3.523   2.819  -2.194  0.00  0.00    -0.275 OA
ATOM     22  C   UNL     1       5.495   3.204  -0.798  0.00  0.00    +0.088 C 
ATOM     23  C   UNL     1       6.485   2.206  -1.366  0.00  0.00    +0.013 C 
ATOM     24  C   UNL     1       7.812   2.210  -0.619  0.00  0.00    +0.001 C 
ATOM     25  C   UNL     1       7.543   1.869   0.851  0.00  0.00    +0.001 C 
ATOM     26  C   UNL     1       6.726   3.003   1.460  0.00  0.00    +0.013 C 
ATOM     27  C   UNL     1       5.441   3.286   0.721  0.00  0.00    +0.088 C 
ATOM     28  C   UNL     1       4.341   2.311   1.080  0.00  0.00    +0.230 C 
ATOM     29  O   UNL     1       4.173   1.786   2.159  0.00  0.00    -0.275 OA
ENDBRANCH   3  19
TORSDOF 2
