REMARK  Name = ZINC50495254
REMARK  5 active torsions:
REMARK  status: ('A' for Active; 'I' for Inactive)
REMARK    1  A    between atoms: C_1  and  C_2
REMARK    2  A    between atoms: C_4  and  N_22
REMARK    3  A    between atoms: C_7  and  N_8
REMARK    4  A    between atoms: C_9  and  C_11
REMARK    5  A    between atoms: N_15  and  C_17
REMARK                            x       y       z     vdW  Elec       q    Type
REMARK                         _______ _______ _______ _____ _____    ______ ____
ROOT
ATOM      1  N   UNL     1       0.024  -0.011   2.418  0.00  0.00    -0.285 N 
ATOM      2  C   UNL     1       0.123  -0.570   3.640  0.00  0.00    +0.222 C 
ATOM      3  O   UNL     1       0.319  -1.762   3.748  0.00  0.00    -0.275 OA
ATOM      4  H   UNL     1      -0.076   0.950   2.331  0.00  0.00    +0.155 HD
ENDROOT
BRANCH   1  11
ATOM      5  C   UNL     1      -1.255   0.935   0.061  0.00  0.00    +0.046 C 
ATOM      6  C   UNL     1      -0.545  -0.394   0.101  0.00  0.00    -0.028 A 
ATOM      7  C   UNL     1      -0.499  -1.186  -1.028  0.00  0.00    +0.028 A 
ATOM      8  C   UNL     1       0.155  -2.411  -0.991  0.00  0.00    +0.030 A 
ATOM      9  C   UNL     1       0.762  -2.838   0.183  0.00  0.00    +0.025 A 
ATOM     10  C   UNL     1       0.715  -2.046   1.312  0.00  0.00    +0.025 A 
ATOM     11  C   UNL     1       0.066  -0.818   1.273  0.00  0.00    +0.036 A 
BRANCH   8  12
ATOM     12  N   UNL     1       0.202  -3.214  -2.135  0.00  0.00    -0.328 N 
ATOM     13  C   UNL     1       0.993  -4.445  -2.122  0.00  0.00    +0.116 C 
ATOM     14  C   UNL     1       0.059  -5.654  -2.249  0.00  0.00    +0.088 C 
ATOM     15  S   UNL     1      -0.916  -5.478  -3.774  0.00  0.00    -0.158 S 
ATOM     16  C   UNL     1      -1.659  -3.828  -3.602  0.00  0.00    +0.088 C 
ATOM     17  C   UNL     1      -0.546  -2.816  -3.329  0.00  0.00    +0.116 C 
ENDBRANCH   8  12
ENDBRANCH   1  11
BRANCH   2  18
ATOM     18  C   UNL     1      -0.009   0.287   4.873  0.00  0.00    +0.101 C 
ATOM     19  C   UNL     1       1.185   1.260   5.002  0.00  0.00    +0.110 C 
ATOM     20  C   UNL     1       1.458   1.318   6.489  0.00  0.00    +0.217 C 
ATOM     21  O   UNL     1       2.123   2.170   7.040  0.00  0.00    -0.276 OA
ATOM     22  N   UNL     1       0.856   0.290   7.110  0.00  0.00    -0.298 N 
ATOM     23  C   UNL     1       0.138  -0.563   6.155  0.00  0.00    +0.121 C 
BRANCH  22  24
ATOM     24  C   UNL     1       0.910   0.050   8.554  0.00  0.00    +0.076 C 
ATOM     25  C   UNL     1       0.373   1.281   9.314  0.00  0.00    +0.022 C 
ATOM     26  C   UNL     1       1.276   1.375  10.569  0.00  0.00    +0.002 C 
ATOM     27  C   UNL     1       2.668   0.979  10.020  0.00  0.00    +0.002 C 
ATOM     28  C   UNL     1       2.369  -0.141   9.003  0.00  0.00    +0.022 C 
ENDBRANCH  22  24
ENDBRANCH   2  18
TORSDOF 4
