REMARK  Name = ZINC58703396
REMARK  3 active torsions:
REMARK  status: ('A' for Active; 'I' for Inactive)
REMARK    1  A    between atoms: C_1  and  C_2
REMARK    2  A    between atoms: C_6  and  C_10
REMARK    3  A    between atoms: C_11  and  C_13
REMARK                            x       y       z     vdW  Elec       q    Type
REMARK                         _______ _______ _______ _____ _____    ______ ____
ROOT
ATOM      1  C   UNL     1       1.152   1.234  -0.220  0.00  0.00    +0.039 C 
ATOM      2  C   UNL     1       0.931  -0.272  -0.071  0.00  0.00    +0.133 C 
ATOM      3  C   UNL     1      -0.562  -0.588  -0.216  0.00  0.00    +0.139 C 
ATOM      4  N   UNL     1      -0.771  -2.006   0.116  0.00  0.00    -0.288 N 
ATOM      5  C   UNL     1      -0.207  -2.512   1.377  0.00  0.00    +0.099 C 
ATOM      6  C   UNL     1       1.269  -2.103   1.444  0.00  0.00    +0.182 C 
ATOM      7  O   UNL     1       1.379  -0.695   1.219  0.00  0.00    -0.373 OA
ATOM      8  C   UNL     1      -0.322  -4.037   1.418  0.00  0.00    +0.030 C 
ATOM      9  C   UNL     1      -1.460  -2.817  -0.711  0.00  0.00    +0.282 C 
ATOM     10  O   UNL     1      -1.529  -4.009  -0.475  0.00  0.00    -0.267 OA
ENDROOT
BRANCH   9  11
ATOM     11  C   UNL     1      -2.126  -2.264  -1.893  0.00  0.00    +0.191 A 
ATOM     12  C   UNL     1      -2.731  -2.985  -2.884  0.00  0.00    +0.056 A 
ATOM     13  C   UNL     1      -3.233  -2.057  -3.809  0.00  0.00    +0.063 A 
ATOM     14  C   UNL     1      -2.917  -0.824  -3.348  0.00  0.00    +0.195 A 
ATOM     15  O   UNL     1      -2.255  -0.954  -2.191  0.00  0.00    -0.439 OA
ATOM     16 CL   UNL     1      -3.311   0.677  -4.125  0.00  0.00    -0.043 Cl
ENDBRANCH   9  11
TORSDOF 1
