REMARK  Name = ZINC12414677
REMARK  7 active torsions:
REMARK  status: ('A' for Active; 'I' for Inactive)
REMARK    1  A    between atoms: C_1  and  C_2
REMARK    2  A    between atoms: C_5  and  N_9
REMARK    3  A    between atoms: C_7  and  C_8
REMARK    4  A    between atoms: C_10  and  C_12
REMARK    5  A    between atoms: C_12  and  N_13
REMARK    6  A    between atoms: N_19  and  C_24
REMARK    7  A    between atoms: C_28  and  C_30
REMARK                            x       y       z     vdW  Elec       q    Type
REMARK                         _______ _______ _______ _____ _____    ______ ____
ROOT
ATOM      1  N   UNL     1      -5.826   2.665  -0.190  0.00  0.00    -0.203 N 
ATOM      2  C   UNL     1      -6.688   2.368   0.804  0.00  0.00    +0.352 A 
ATOM      3  O   UNL     1      -6.612   2.750   1.958  0.00  0.00    -0.244 OA
ATOM      4  N   UNL     1      -7.648   1.575   0.292  0.00  0.00    -0.245 N 
ATOM      5  C   UNL     1      -8.775   0.978   0.852  0.00  0.00    +0.116 A 
ATOM      6  C   UNL     1      -9.581   0.220   0.126  0.00  0.00    +0.113 A 
ATOM      7  N   UNL     1      -9.350  -0.022  -1.221  0.00  0.00    -0.280 N 
ATOM      8  C   UNL     1      -8.279   0.521  -1.839  0.00  0.00    +0.301 A 
ATOM      9  O   UNL     1      -8.070   0.314  -3.019  0.00  0.00    -0.263 OA
ATOM     10  C   UNL     1      -7.367   1.369  -1.050  0.00  0.00    +0.227 A 
ATOM     11  N   UNL     1      -6.277   2.019  -1.350  0.00  0.00    -0.143 NA
ENDROOT
BRANCH   7  12
ATOM     12  C   UNL     1     -10.233  -0.832  -1.944  0.00  0.00    +0.050 A 
ATOM     13  C   UNL     1     -11.029  -0.278  -2.939  0.00  0.00    +0.027 A 
ATOM     14  C   UNL     1     -11.899  -1.080  -3.651  0.00  0.00    +0.017 A 
ATOM     15  C   UNL     1     -11.978  -2.434  -3.374  0.00  0.00    +0.021 A 
ATOM     16  C   UNL     1     -11.187  -2.987  -2.383  0.00  0.00    -0.035 A 
ATOM     17  C   UNL     1     -10.311  -2.191  -1.671  0.00  0.00    +0.030 A 
ATOM     18  C   UNL     1     -11.276  -4.462  -2.084  0.00  0.00    +0.045 C 
ATOM     19 BR   UNL     1     -13.171  -3.528  -4.350  0.00  0.00    -0.050 Br
ENDBRANCH   7  12
BRANCH   1  20
ATOM     20  C   UNL     1      -4.632   3.506  -0.077  0.00  0.00    +0.244 C 
BRANCH  20  22
ATOM     21  N   UNL     1      -2.235   3.213   0.459  0.00  0.00    -0.284 N 
ATOM     22  C   UNL     1      -3.449   2.651   0.298  0.00  0.00    +0.239 C 
ATOM     23  O   UNL     1      -3.590   1.457   0.456  0.00  0.00    -0.273 OA
ATOM     24  H   UNL     1      -2.136   4.177   0.407  0.00  0.00    +0.155 HD
BRANCH  21  29
ATOM     25  C   UNL     1       2.298  -0.055   1.437  0.00  0.00    +0.044 C 
ATOM     26  C   UNL     1       1.094   0.813   1.177  0.00  0.00    -0.047 A 
ATOM     27  C   UNL     1       0.068   0.348   0.375  0.00  0.00    +0.005 A 
ATOM     28  C   UNL     1      -1.034   1.143   0.131  0.00  0.00    +0.023 A 
ATOM     29  C   UNL     1      -1.117   2.407   0.700  0.00  0.00    +0.034 A 
ATOM     30  C   UNL     1      -0.084   2.872   1.504  0.00  0.00    +0.027 A 
ATOM     31  C   UNL     1       1.018   2.074   1.740  0.00  0.00    -0.046 A 
ATOM     32  C   UNL     1       2.139   2.577   2.613  0.00  0.00    +0.044 C 
ENDBRANCH  21  29
ENDBRANCH  20  22
ENDBRANCH   1  20
TORSDOF 4
