REMARK  Name = ZINC22843108
REMARK  6 active torsions:
REMARK  status: ('A' for Active; 'I' for Inactive)
REMARK    1  A    between atoms: C_3  and  C_10
REMARK    2  A    between atoms: C_5  and  N_7
REMARK    3  A    between atoms: C_11  and  C_12
REMARK    4  A    between atoms: N_14  and  C_15
REMARK    5  A    between atoms: C_18  and  N_21
REMARK    6  A    between atoms: N_24  and  C_27
REMARK                            x       y       z     vdW  Elec       q    Type
REMARK                         _______ _______ _______ _____ _____    ______ ____
ROOT
ATOM      1  C   UNL     1       6.114   6.261  -0.115  0.00  0.00    +0.034 A 
ATOM      2  C   UNL     1       7.291   5.532  -0.219  0.00  0.00    +0.025 A 
ATOM      3  C   UNL     1       8.502   6.186  -0.316  0.00  0.00    +0.025 A 
ATOM      4  C   UNL     1       8.544   7.575  -0.312  0.00  0.00    +0.030 A 
ATOM      5  C   UNL     1       7.366   8.304  -0.209  0.00  0.00    +0.025 A 
ATOM      6  C   UNL     1       6.154   7.649  -0.116  0.00  0.00    +0.025 A 
ENDROOT
BRANCH   4   7
ATOM      7  N   UNL     1       9.771   8.238  -0.410  0.00  0.00    -0.327 N 
ATOM      8  C   UNL     1       9.844   9.700  -0.277  0.00  0.00    +0.124 C 
ATOM      9  C   UNL     1      10.846  10.041   0.834  0.00  0.00    +0.124 C 
ATOM     10  N   UNL     1      12.085   9.289   0.596  0.00  0.00    -0.322 N 
ATOM     11  C   UNL     1      12.012   7.827   0.462  0.00  0.00    +0.124 C 
ATOM     12  C   UNL     1      11.012   7.485  -0.642  0.00  0.00    +0.124 C 
BRANCH  10  13
ATOM     13  C   UNL     1      13.315   9.954   0.497  0.00  0.00    +0.107 A 
ATOM     14  C   UNL     1      13.765  10.405  -0.738  0.00  0.00    +0.185 A 
ATOM     15  C   UNL     1      14.981  11.061  -0.833  0.00  0.00    +0.198 A 
ATOM     16  C   UNL     1      15.749  11.269   0.302  0.00  0.00    +0.199 A 
ATOM     17  C   UNL     1      15.301  10.820   1.535  0.00  0.00    +0.198 A 
ATOM     18  C   UNL     1      14.084  10.168   1.635  0.00  0.00    +0.185 A 
ATOM     19  F   UNL     1      13.645   9.736   2.837  0.00  0.00    -0.200 F 
ATOM     20  F   UNL     1      16.051  11.023   2.640  0.00  0.00    -0.199 F 
ATOM     21  F   UNL     1      16.934  11.909   0.207  0.00  0.00    -0.199 F 
ATOM     22  F   UNL     1      15.419  11.499  -2.034  0.00  0.00    -0.199 F 
ATOM     23  F   UNL     1      13.018  10.202  -1.845  0.00  0.00    -0.200 F 
ENDBRANCH  10  13
ENDBRANCH   4   7
BRANCH   1  26
ATOM     24  C   UNL     1       3.788   6.119  -0.600  0.00  0.00    +0.241 C 
ATOM     25  O   UNL     1       3.846   7.206  -1.144  0.00  0.00    -0.270 OA
ATOM     26  N   UNL     1       4.885   5.597  -0.016  0.00  0.00    -0.282 N 
ATOM     27  H   UNL     1       4.823   4.761   0.472  0.00  0.00    +0.155 HD
BRANCH  24  29
ATOM     28  C   UNL     1       1.428   5.900  -1.164  0.00  0.00    +0.013 C 
ATOM     29  C   UNL     1       2.525   5.378  -0.580  0.00  0.00    +0.068 C 
BRANCH  28  32
ATOM     30  C   UNL     1      -1.107   3.214  -0.504  0.00  0.00    +0.003 A 
ATOM     31  C   UNL     1       0.087   3.906  -0.520  0.00  0.00    +0.008 A 
ATOM     32  C   UNL     1       0.158   5.155  -1.143  0.00  0.00    -0.023 A 
ATOM     33  C   UNL     1      -0.982   5.693  -1.748  0.00  0.00    +0.040 A 
ATOM     34  C   UNL     1      -2.168   4.990  -1.724  0.00  0.00    +0.127 A 
ATOM     35  C   UNL     1      -2.231   3.753  -1.105  0.00  0.00    +0.033 A 
BRANCH  34  36
ATOM     36  N   UNL     1      -3.376   5.558  -2.363  0.00  0.00    +0.056 N 
ATOM     37  O   UNL     1      -3.323   6.637  -2.905  0.00  0.00    -0.126 OA
ATOM     38  O   UNL     1      -4.416   4.942  -2.343  0.00  0.00    -0.126 OA
ENDBRANCH  34  36
ENDBRANCH  28  32
ENDBRANCH  24  29
ENDBRANCH   1  26
TORSDOF 6
