REMARK  Name = ZINC04370862
REMARK  5 active torsions:
REMARK  status: ('A' for Active; 'I' for Inactive)
REMARK    1  A    between atoms: C_4  and  C_7
REMARK    2  A    between atoms: CA_9  and  C_25
REMARK    3  A    between atoms: N_14  and  S_15
REMARK    4  A    between atoms: S_15  and  C_18
REMARK    5  A    between atoms: C_25  and  O_26
REMARK                            x       y       z     vdW  Elec       q    Type
REMARK                         _______ _______ _______ _____ _____    ______ ____
ROOT
ATOM      1  C   UNL     1      -0.084   1.070  -2.527  0.00  0.00    +0.229 C 
ATOM      2  CA  UNL     1      -0.753   1.593  -1.232  0.00  0.00    +0.145 C 
ATOM      3  N   UNL     1      -0.601   3.054  -1.375  0.00  0.00    -0.289 N 
ATOM      4  C   UNL     1       0.274   3.285  -2.306  0.00  0.00    +0.302 C 
ATOM      5  O   UNL     1       0.790   2.168  -2.858  0.00  0.00    -0.455 OA
ATOM      6  N   UNL     1       0.640   4.550  -2.693  0.00  0.00    -0.076 NA
ATOM      7  H   UNL     1      -1.189   3.733  -0.740  0.00  0.00    +0.151 HD
ENDROOT
BRANCH   1  11
ATOM      8  C   UNL     1       2.145  -2.495  -1.773  0.00  0.00    +0.000 A 
ATOM      9  C   UNL     1       0.881  -2.574  -2.328  0.00  0.00    +0.000 A 
ATOM     10  C   UNL     1       0.160  -1.420  -2.572  0.00  0.00    +0.007 A 
ATOM     11  C   UNL     1       0.702  -0.187  -2.260  0.00  0.00    -0.005 A 
ATOM     12  C   UNL     1       1.968  -0.108  -1.711  0.00  0.00    +0.007 A 
ATOM     13  C   UNL     1       2.687  -1.262  -1.462  0.00  0.00    +0.000 A 
ENDBRANCH   1  11
BRANCH   6  14
ATOM     14  S   UNL     1      -0.043   5.870  -1.962  0.00  0.00    +0.103 S 
ATOM     15  O   UNL     1       0.552   7.016  -2.555  0.00  0.00    -0.146 OA
ATOM     16  O   UNL     1      -1.448   5.654  -1.965  0.00  0.00    -0.146 OA
BRANCH  14  17
ATOM     17  C   UNL     1       0.466   5.853  -0.276  0.00  0.00    +0.113 A 
ATOM     18  C   UNL     1      -0.299   5.196   0.670  0.00  0.00    +0.030 A 
ATOM     19  C   UNL     1       0.102   5.178   1.993  0.00  0.00    +0.022 A 
ATOM     20  C   UNL     1       1.264   5.826   2.371  0.00  0.00    +0.041 A 
ATOM     21  C   UNL     1       2.026   6.488   1.425  0.00  0.00    +0.022 A 
ATOM     22  C   UNL     1       1.627   6.501   0.102  0.00  0.00    +0.030 A 
ATOM     23 CL   UNL     1       1.765   5.810   4.033  0.00  0.00    -0.084 Cl
ENDBRANCH  14  17
ENDBRANCH   6  14
BRANCH   2  24
ATOM     24  C   UNL     1      -0.013   1.086   0.008  0.00  0.00    +0.182 C 
BRANCH  24  25
ATOM     25  O   UNL     1      -0.682   1.547   1.184  0.00  0.00    -0.393 OA
ATOM     26  H   UNL     1      -0.293   1.281   2.178  0.00  0.00    +0.209 HD
ENDBRANCH  24  25
ENDBRANCH   2  24
TORSDOF 5
