REMARK  Name = ZINC65085500
REMARK  3 active torsions:
REMARK  status: ('A' for Active; 'I' for Inactive)
REMARK    1  A    between atoms: C_13  and  C_15
REMARK    2  A    between atoms: C_18  and  S_20
REMARK    3  A    between atoms: S_20  and  C_23
REMARK                            x       y       z     vdW  Elec       q    Type
REMARK                         _______ _______ _______ _____ _____    ______ ____
ROOT
ATOM      1  C   UNL     1       2.101   0.986  -1.696  0.00  0.00    +0.005 A 
ATOM      2  C   UNL     1       0.858   1.605  -1.683  0.00  0.00    +0.018 A 
ATOM      3  C   UNL     1      -0.264   0.862  -1.380  0.00  0.00    +0.084 A 
ATOM      4  N   UNL     1      -0.169  -0.425  -1.103  0.00  0.00    -0.350 N 
ATOM      5  C   UNL     1       0.997  -1.052  -1.104  0.00  0.00    +0.099 A 
ATOM      6  C   UNL     1       2.170  -0.364  -1.402  0.00  0.00    +0.042 A 
ATOM      7  N   UNL     1       1.051  -2.408  -0.806  0.00  0.00    -0.314 N 
ATOM      8  C   UNL     1       2.313  -3.151  -0.928  0.00  0.00    +0.125 C 
ATOM      9  C   UNL     1       2.614  -3.831   0.413  0.00  0.00    +0.127 C 
ATOM     10  N   UNL     1       1.410  -4.548   0.856  0.00  0.00    -0.294 N 
ATOM     11  C   UNL     1       0.148  -3.805   0.978  0.00  0.00    +0.127 C 
ATOM     12  C   UNL     1      -0.151  -3.124  -0.358  0.00  0.00    +0.125 C 
ATOM     13  C   UNL     1       1.462  -5.863   1.145  0.00  0.00    +0.253 C 
ATOM     14  O   UNL     1       0.441  -6.468   1.415  0.00  0.00    -0.269 OA
ATOM     15  H   UNL     1      -0.974  -0.925  -0.893  0.00  0.00    +0.166 HD
ENDROOT
BRANCH  13  16
ATOM     16  C   UNL     1       2.749  -6.565   1.135  0.00  0.00    +0.076 A 
ATOM     17  C   UNL     1       3.002  -7.924   1.026  0.00  0.00    +0.022 A 
ATOM     18  C   UNL     1       4.328  -8.287   1.047  0.00  0.00    +0.036 A 
ATOM     19  C   UNL     1       5.274  -7.324   1.169  0.00  0.00    +0.131 A 
ATOM     20  S   UNL     1       4.396  -5.894   1.251  0.00  0.00    -0.065 S 
BRANCH  19  21
ATOM     21  S   UNL     1       7.023  -7.525   1.220  0.00  0.00    +0.031 S 
ATOM     22  O   UNL     1       7.543  -6.387   1.893  0.00  0.00    -0.164 OA
ATOM     23  O   UNL     1       7.267  -8.852   1.667  0.00  0.00    -0.164 OA
BRANCH  21  24
ATOM     24  C   UNL     1       7.607  -7.438  -0.440  0.00  0.00    +0.094 A 
ATOM     25  C   UNL     1       7.698  -8.588  -1.202  0.00  0.00    +0.029 A 
ATOM     26  C   UNL     1       8.155  -8.521  -2.504  0.00  0.00    +0.022 A 
ATOM     27  C   UNL     1       8.523  -7.302  -3.046  0.00  0.00    +0.041 A 
ATOM     28  C   UNL     1       8.432  -6.151  -2.283  0.00  0.00    +0.022 A 
ATOM     29  C   UNL     1       7.969  -6.219  -0.982  0.00  0.00    +0.029 A 
ATOM     30 CL   UNL     1       9.098  -7.216  -4.681  0.00  0.00    -0.084 Cl
ENDBRANCH  21  24
ENDBRANCH  19  21
ENDBRANCH  13  16
TORSDOF 3
