REMARK  Name = ZINC43455917
REMARK  1 active torsions:
REMARK  status: ('A' for Active; 'I' for Inactive)
REMARK    1  A    between atoms: N_12  and  C_13
REMARK                            x       y       z     vdW  Elec       q    Type
REMARK                         _______ _______ _______ _____ _____    ______ ____
ROOT
ATOM      1  C   UNL     1      -0.304   1.518   0.137  0.00  0.00    +0.013 A 
ATOM      2  C   UNL     1       0.751   2.363   0.079  0.00  0.00    +0.046 A 
ATOM      3  S   UNL     1       2.103   1.240  -0.243  0.00  0.00    -0.101 S 
ATOM      4  C   UNL     1       1.163  -0.263  -0.278  0.00  0.00    -0.004 A 
ATOM      5  C   UNL     1      -0.112   0.149  -0.044  0.00  0.00    -0.020 A 
ATOM      6  C   UNL     1      -1.248  -0.870   0.016  0.00  0.00    +0.145 C 
ATOM      7  N   UNL     1      -0.740  -2.141  -0.517  0.00  0.00    -0.281 N 
ATOM      8  C   UNL     1       0.563  -2.641  -0.053  0.00  0.00    +0.115 C 
ATOM      9  C   UNL     1       1.649  -1.656  -0.513  0.00  0.00    +0.062 C 
ATOM     10  C   UNL     1      -1.457  -2.839  -1.420  0.00  0.00    +0.307 C 
ATOM     11  O   UNL     1      -0.989  -3.841  -1.926  0.00  0.00    -0.252 OA
ATOM     12  N   UNL     1      -2.694  -2.428  -1.761  0.00  0.00    -0.268 N 
ATOM     13  H   UNL     1      -3.043  -1.594  -1.407  0.00  0.00    +0.156 HD
ENDROOT
BRANCH  12  14
ATOM     14  C   UNL     1      -3.477  -3.203  -2.627  0.00  0.00    +0.052 A 
ATOM     15  C   UNL     1      -3.164  -4.538  -2.838  0.00  0.00    +0.073 A 
ATOM     16  C   UNL     1      -3.938  -5.306  -3.695  0.00  0.00    +0.164 A 
ATOM     17  C   UNL     1      -5.029  -4.736  -4.340  0.00  0.00    +0.163 A 
ATOM     18  C   UNL     1      -5.339  -3.401  -4.128  0.00  0.00    +0.066 A 
ATOM     19  C   UNL     1      -4.570  -2.637  -3.271  0.00  0.00    +0.043 A 
ATOM     20 BR   UNL     1      -5.001  -0.819  -2.980  0.00  0.00    -0.048 Br
ATOM     21  O   UNL     1      -5.806  -5.476  -5.179  0.00  0.00    -0.485 OA
ATOM     22  C   UNL     1      -5.249  -6.706  -5.656  0.00  0.00    +0.270 C 
ATOM     23  C   UNL     1      -4.630  -7.447  -4.463  0.00  0.00    +0.270 C 
ATOM     24  O   UNL     1      -3.615  -6.613  -3.894  0.00  0.00    -0.485 OA
ENDBRANCH  12  14
TORSDOF 1
