REMARK  Name = ZINC00818653
REMARK  7 active torsions:
REMARK  status: ('A' for Active; 'I' for Inactive)
REMARK    1  A    between atoms: C_1  and  C_2
REMARK    2  A    between atoms: C_4  and  C_13
REMARK    3  A    between atoms: C_7  and  N_8
REMARK    4  A    between atoms: C_15  and  C_28
REMARK    5  A    between atoms: C_16  and  N_27
REMARK    6  A    between atoms: C_23  and  C_25
REMARK    7  A    between atoms: C_23  and  C_26
REMARK                            x       y       z     vdW  Elec       q    Type
REMARK                         _______ _______ _______ _____ _____    ______ ____
ROOT
ATOM      1  C   UNL     1       0.957   3.936  -0.050  0.00  0.00    +0.101 C 
ATOM      2  C   UNL     1       0.931   2.449  -0.263  0.00  0.00    +0.098 C 
ATOM      3  C   UNL     1      -0.245   1.776  -0.263  0.00  0.00    +0.198 C 
ATOM      4  O   UNL     1      -1.413   2.411  -0.076  0.00  0.00    -0.445 OA
ATOM      5  C   UNL     1      -1.502   3.733  -0.307  0.00  0.00    +0.115 C 
ATOM      6  C   UNL     1      -0.411   4.521  -0.304  0.00  0.00    +0.046 C 
ATOM      7  C   UNL     1      -0.509   5.907  -0.533  0.00  0.00    +0.164 C 
ATOM      8  O   UNL     1       0.500   6.583  -0.537  0.00  0.00    -0.292 OA
ATOM      9  C   UNL     1      -1.840   6.565  -0.772  0.00  0.00    +0.086 C 
ATOM     10  C   UNL     1      -2.929   5.753  -0.063  0.00  0.00    -0.021 C 
ATOM     11  C   UNL     1      -2.871   4.313  -0.575  0.00  0.00    +0.081 C 
ATOM     12  C   UNL     1      -2.684   5.772   1.447  0.00  0.00    +0.012 C 
ATOM     13  C   UNL     1      -4.302   6.357  -0.368  0.00  0.00    +0.012 C 
ENDROOT
BRANCH   1  17
ATOM     14  C   UNL     1       4.129   6.063   3.183  0.00  0.00    +0.045 C 
ATOM     15  C   UNL     1       2.889   5.249   2.915  0.00  0.00    -0.029 A 
ATOM     16  C   UNL     1       2.511   4.973   1.616  0.00  0.00    +0.009 A 
ATOM     17  C   UNL     1       1.371   4.230   1.369  0.00  0.00    -0.034 A 
ATOM     18  C   UNL     1       0.612   3.752   2.422  0.00  0.00    +0.006 A 
ATOM     19  C   UNL     1       0.988   4.020   3.724  0.00  0.00    +0.023 A 
ATOM     20  C   UNL     1       2.130   4.770   3.975  0.00  0.00    +0.033 A 
BRANCH  20  21
ATOM     21  N   UNL     1       2.513   5.043   5.290  0.00  0.00    -0.330 N 
ATOM     22  C   UNL     1       1.559   4.442   6.258  0.00  0.00    +0.105 C 
ATOM     23  C   UNL     1       2.380   4.376   7.570  0.00  0.00    +0.020 C 
ATOM     24  C   UNL     1       3.798   4.011   7.073  0.00  0.00    +0.020 C 
ATOM     25  C   UNL     1       3.829   4.441   5.594  0.00  0.00    +0.105 C 
ENDBRANCH  20  21
ENDBRANCH   1  17
BRANCH   3  26
ATOM     26  N   UNL     1      -0.243   0.418  -0.465  0.00  0.00    -0.328 N 
ATOM     27  H   UNL     1       0.594  -0.050  -0.605  0.00  0.00    +0.145 HD
ATOM     28  H   UNL     1      -1.080  -0.073  -0.467  0.00  0.00    +0.145 HD
ENDBRANCH   3  26
BRANCH   2  29
ATOM     29  C   UNL     1       2.157   1.738  -0.469  0.00  0.00    +0.101 C 
ATOM     30  N   UNL     1       3.130   1.174  -0.631  0.00  0.00    -0.191 NA
ENDBRANCH   2  29
TORSDOF 4
