REMARK  Name = ZINC21882728
REMARK  13 active torsions:
REMARK  status: ('A' for Active; 'I' for Inactive)
REMARK    1  A    between atoms: C_1  and  C_2
REMARK    2  A    between atoms: C_2  and  C_3
REMARK    3  A    between atoms: C_3  and  C_5
REMARK    4  A    between atoms: C_3  and  S_16
REMARK    5  A    between atoms: N_7  and  C_8
REMARK    6  A    between atoms: C_11  and  C_15
REMARK    7  A    between atoms: C_13  and  C_14
REMARK    8  A    between atoms: S_16  and  C_17
REMARK    9  A    between atoms: C_21  and  C_24
REMARK   10  A    between atoms: C_26  and  C_35
REMARK   11  A    between atoms: C_29  and  N_30
REMARK   12  A    between atoms: C_31  and  C_33
REMARK   13  A    between atoms: C_33  and  C_34
REMARK                            x       y       z     vdW  Elec       q    Type
REMARK                         _______ _______ _______ _____ _____    ______ ____
ROOT
ATOM      1  C   UNL     1      -4.591   0.026   0.155  0.00  0.00    +0.213 A 
ATOM      2  N   UNL     1      -3.434  -0.678   0.315  0.00  0.00    -0.180 NA
ATOM      3  C   UNL     1      -2.269   0.005   0.416  0.00  0.00    +0.300 A 
ATOM      4  O   UNL     1      -1.207  -0.575   0.559  0.00  0.00    -0.263 OA
ATOM      5  C   UNL     1      -2.334   1.469   0.347  0.00  0.00    +0.161 A 
ATOM      6  N   UNL     1      -3.515   2.044   0.196  0.00  0.00    -0.141 NA
ATOM      7  N   UNL     1      -4.588   1.345   0.100  0.00  0.00    -0.122 NA
ENDROOT
BRANCH   5   8
ATOM      8  C   UNL     1      -1.104   2.285   0.450  0.00  0.00    +0.029 A 
ATOM      9  C   UNL     1      -0.930   3.158   1.523  0.00  0.00    +0.015 A 
ATOM     10  C   UNL     1       0.221   3.913   1.617  0.00  0.00    -0.050 A 
ATOM     11  C   UNL     1       1.204   3.811   0.647  0.00  0.00    +0.005 A 
ATOM     12  C   UNL     1       1.041   2.953  -0.424  0.00  0.00    +0.024 A 
ATOM     13  C   UNL     1      -0.110   2.188  -0.533  0.00  0.00    +0.043 A 
ATOM     14  C   UNL     1       0.410   4.852   2.780  0.00  0.00    +0.044 C 
BRANCH  13  15
ATOM     15  N   UNL     1      -0.277   1.321  -1.616  0.00  0.00    -0.285 N 
ATOM     16  C   UNL     1       0.802   0.843  -2.268  0.00  0.00    +0.217 C 
ATOM     17  O   UNL     1       1.917   1.091  -1.860  0.00  0.00    -0.275 OA
ATOM     18  H   UNL     1      -1.287   1.028  -1.936  0.00  0.00    +0.155 HD
BRANCH  16  19
ATOM     19  C   UNL     1       0.622   0.000  -3.505  0.00  0.00    +0.093 C 
ATOM     20  C   UNL     1       1.993  -0.410  -4.046  0.00  0.00    +0.013 C 
ENDBRANCH  16  19
ENDBRANCH  13  15
ENDBRANCH   5   8
BRANCH   1  21
ATOM     21  S   UNL     1      -6.119  -0.842   0.021  0.00  0.00    -0.072 S 
BRANCH  21  22
ATOM     22  C   UNL     1      -7.235   0.540  -0.327  0.00  0.00    +0.140 C 
BRANCH  22  23
ATOM     23  C   UNL     1      -6.858   1.171  -1.642  0.00  0.00    +0.231 C 
ATOM     24  O   UNL     1      -6.276   0.519  -2.483  0.00  0.00    -0.274 OA
ATOM     25  N   UNL     1      -7.169   2.460  -1.885  0.00  0.00    -0.284 N 
ATOM     26  H   UNL     1      -7.636   3.071  -1.098  0.00  0.00    +0.155 HD
BRANCH  25  27
ATOM     27  C   UNL     1      -6.896   3.022  -3.137  0.00  0.00    +0.036 A 
ATOM     28  C   UNL     1      -5.878   2.502  -3.926  0.00  0.00    +0.024 A 
ATOM     29  C   UNL     1      -5.612   3.058  -5.162  0.00  0.00    +0.005 A 
ATOM     30  C   UNL     1      -6.356   4.133  -5.613  0.00  0.00    -0.050 A 
ATOM     31  C   UNL     1      -7.371   4.652  -4.830  0.00  0.00    +0.008 A 
ATOM     32  C   UNL     1      -7.646   4.097  -3.596  0.00  0.00    -0.029 A 
ATOM     33  C   UNL     1      -8.755   4.660  -2.745  0.00  0.00    +0.045 C 
ATOM     34  C   UNL     1      -6.063   4.737  -6.962  0.00  0.00    +0.044 C 
ENDBRANCH  25  27
ENDBRANCH  22  23
BRANCH  22  36
ATOM     35  C   UNL     1      -9.109  -0.473   0.979  0.00  0.00    +0.005 C 
ATOM     36  C   UNL     1      -8.674   0.027  -0.401  0.00  0.00    +0.020 C 
ENDBRANCH  22  36
ENDBRANCH  21  22
ENDBRANCH   1  21
TORSDOF 8
