REMARK  Name = ZINC04724031
REMARK  20 active torsions:
REMARK  status: ('A' for Active; 'I' for Inactive)
REMARK    1  A    between atoms: C_1  and  C_2
REMARK    2  A    between atoms: C_2  and  O_3
REMARK    3  A    between atoms: O_3  and  C_4
REMARK    4  A    between atoms: C_6  and  C_16
REMARK    5  A    between atoms: C_8  and  O_13
REMARK    6  A    between atoms: C_9  and  O_10
REMARK    7  A    between atoms: O_10  and  C_11
REMARK    8  A    between atoms: C_11  and  C_12
REMARK    9  A    between atoms: O_13  and  C_14
REMARK   10  A    between atoms: C_14  and  C_15
REMARK   11  A    between atoms: N_18  and  N_19
REMARK   12  A    between atoms: N_19  and  C_20
REMARK   13  A    between atoms: C_20  and  N_22
REMARK   14  A    between atoms: N_22  and  C_23
REMARK   15  A    between atoms: C_23  and  C_24
REMARK   16  A    between atoms: C_24  and  C_25
REMARK   17  A    between atoms: C_25  and  O_26
REMARK   18  A    between atoms: O_26  and  C_27
REMARK   19  A    between atoms: C_27  and  C_28
REMARK   20  A    between atoms: C_27  and  C_29
REMARK                            x       y       z     vdW  Elec       q    Type
REMARK                         _______ _______ _______ _____ _____    ______ ____
ROOT
ATOM      1  C   UNL     1      -1.125   7.541   1.859  0.00  0.00    +0.260 C 
ATOM      2  O   UNL     1      -2.090   8.133   1.413  0.00  0.00    -0.269 OA
ATOM      3  N   UNL     1      -0.162   8.219   2.514  0.00  0.00    -0.231 N 
ATOM      4  H   UNL     1       0.607   7.746   2.869  0.00  0.00    +0.173 HD
ENDROOT
BRANCH   1   7
ATOM      5  C   UNL     1       0.200   4.030   2.030  0.00  0.00    +0.166 A 
ATOM      6  C   UNL     1       0.097   5.399   2.192  0.00  0.00    +0.062 A 
ATOM      7  C   UNL     1      -1.010   6.080   1.682  0.00  0.00    +0.045 A 
ATOM      8  C   UNL     1      -2.008   5.377   1.003  0.00  0.00    +0.062 A 
ATOM      9  C   UNL     1      -1.898   4.008   0.838  0.00  0.00    +0.166 A 
ATOM     10  C   UNL     1      -0.793   3.332   1.349  0.00  0.00    +0.204 A 
BRANCH   5  11
ATOM     11  O   UNL     1       1.275   3.365   2.532  0.00  0.00    -0.488 OA
BRANCH  11  13
ATOM     12  C   UNL     1       3.381   3.229   3.709  0.00  0.00    +0.048 C 
ATOM     13  C   UNL     1       2.256   4.143   3.220  0.00  0.00    +0.226 C 
ENDBRANCH  11  13
ENDBRANCH   5  11
BRANCH  10  14
ATOM     14  O   UNL     1      -0.688   1.987   1.186  0.00  0.00    -0.485 OA
BRANCH  14  15
ATOM     15  C   UNL     1      -0.019   1.526   0.010  0.00  0.00    +0.226 C 
ATOM     16  C   UNL     1       0.002  -0.004   0.002  0.00  0.00    +0.048 C 
ENDBRANCH  14  15
ENDBRANCH  10  14
BRANCH   9  17
ATOM     17  O   UNL     1      -2.869   3.323   0.178  0.00  0.00    -0.488 OA
BRANCH  17  18
ATOM     18  C   UNL     1      -3.974   4.081  -0.319  0.00  0.00    +0.226 C 
ATOM     19  C   UNL     1      -4.957   3.146  -1.027  0.00  0.00    +0.048 C 
ENDBRANCH  17  18
ENDBRANCH   9  17
ENDBRANCH   1   7
BRANCH   3  20
ATOM     20  N   UNL     1      -0.271   9.605   2.681  0.00  0.00    -0.246 N 
ATOM     21  H   UNL     1      -1.040  10.078   2.326  0.00  0.00    +0.172 HD
BRANCH  20  22
ATOM     22  C   UNL     1       0.692  10.283   3.336  0.00  0.00    +0.147 C 
ATOM     23  S   UNL     1       0.559  11.977   3.542  0.00  0.00    -0.017 S 
BRANCH  22  24
ATOM     24  N   UNL     1       1.761   9.626   3.830  0.00  0.00    -0.325 N 
ATOM     25  H   UNL     1       1.837   8.666   3.713  0.00  0.00    +0.148 HD
BRANCH  24  26
ATOM     26  C   UNL     1       2.808  10.363   4.542  0.00  0.00    +0.105 C 
BRANCH  26  27
ATOM     27  C   UNL     1       3.898   9.389   4.995  0.00  0.00    +0.047 C 
BRANCH  27  28
ATOM     28  C   UNL     1       4.992  10.159   5.738  0.00  0.00    +0.161 C 
BRANCH  28  29
ATOM     29  O   UNL     1       6.010   9.249   6.161  0.00  0.00    -0.377 OA
BRANCH  29  30
ATOM     30  C   UNL     1       7.086   9.869   6.869  0.00  0.00    +0.112 C 
ATOM     31  C   UNL     1       7.675   8.876   7.873  0.00  0.00    +0.037 C 
ATOM     32  C   UNL     1       8.170  10.296   5.878  0.00  0.00    +0.037 C 
ENDBRANCH  29  30
ENDBRANCH  28  29
ENDBRANCH  27  28
ENDBRANCH  26  27
ENDBRANCH  24  26
ENDBRANCH  22  24
ENDBRANCH  20  22
ENDBRANCH   3  20
TORSDOF 15
