REMARK  Name = ZINC01453211
REMARK  7 active torsions:
REMARK  status: ('A' for Active; 'I' for Inactive)
REMARK    1  A    between atoms: C_1  and  C_2
REMARK    2  A    between atoms: C_5  and  N_8
REMARK    3  A    between atoms: C_13  and  C_25
REMARK    4  A    between atoms: C_15  and  C_23
REMARK    5  A    between atoms: C_16  and  N_22
REMARK    6  A    between atoms: C_28  and  O_31
REMARK    7  A    between atoms: O_31  and  C_32
REMARK                            x       y       z     vdW  Elec       q    Type
REMARK                         _______ _______ _______ _____ _____    ______ ____
ROOT
ATOM      1  N   UNL     1       0.065  -4.086   0.194  0.00  0.00    -0.209 N 
ATOM      2  C   UNL     1       0.071  -4.908   1.277  0.00  0.00    +0.232 C 
ATOM      3  O   UNL     1      -0.144  -4.597   2.429  0.00  0.00    -0.274 OA
ATOM      4  C   UNL     1       0.396  -6.272   0.759  0.00  0.00    +0.110 C 
ATOM      5  C   UNL     1      -0.174  -7.487   1.435  0.00  0.00    +0.075 C 
ATOM      6  C   UNL     1       0.243  -8.730   0.697  0.00  0.00    +0.064 C 
ATOM      7  C   UNL     1       0.643  -8.812  -0.592  0.00  0.00    +0.074 C 
ATOM      8  S   UNL     1       0.721  -7.392  -1.649  0.00  0.00    -0.096 S 
ATOM      9  C   UNL     1      -0.223  -6.188  -0.670  0.00  0.00    +0.152 C 
ATOM     10  C   UNL     1       0.073  -4.750  -0.991  0.00  0.00    +0.240 C 
ATOM     11  O   UNL     1       0.279  -4.277  -2.088  0.00  0.00    -0.274 OA
ENDROOT
BRANCH   1  16
ATOM     12  C   UNL     1      -0.011   1.575   0.587  0.00  0.00    +0.044 C 
ATOM     13  C   UNL     1       0.009   0.072   0.483  0.00  0.00    -0.050 A 
ATOM     14  C   UNL     1       0.018  -0.533  -0.760  0.00  0.00    +0.005 A 
ATOM     15  C   UNL     1       0.036  -1.911  -0.859  0.00  0.00    +0.024 A 
ATOM     16  C   UNL     1       0.047  -2.688   0.291  0.00  0.00    +0.044 A 
ATOM     17  C   UNL     1       0.039  -2.077   1.538  0.00  0.00    +0.024 A 
ATOM     18  C   UNL     1       0.025  -0.699   1.631  0.00  0.00    +0.005 A 
ENDBRANCH   1  16
BRANCH   5  19
ATOM     19  C   UNL     1      -1.678  -7.394   1.444  0.00  0.00    -0.038 A 
ATOM     20  C   UNL     1      -2.407  -7.899   0.383  0.00  0.00    +0.008 A 
ATOM     21  C   UNL     1      -3.786  -7.815   0.388  0.00  0.00    +0.046 A 
ATOM     22  C   UNL     1      -4.439  -7.223   1.459  0.00  0.00    +0.120 A 
ATOM     23  C   UNL     1      -3.706  -6.718   2.523  0.00  0.00    +0.046 A 
ATOM     24  C   UNL     1      -2.328  -6.809   2.515  0.00  0.00    +0.008 A 
BRANCH  22  25
ATOM     25  O   UNL     1      -5.796  -7.139   1.467  0.00  0.00    -0.495 OA
ATOM     26  C   UNL     1      -6.401  -6.517   2.602  0.00  0.00    +0.277 C 
ENDBRANCH  22  25
ENDBRANCH   5  19
BRANCH   7  27
ATOM     27  N   UNL     1       1.002 -10.038  -1.100  0.00  0.00    -0.352 N 
ATOM     28  H   UNL     1       0.965 -10.826  -0.535  0.00  0.00    +0.143 HD
ATOM     29  H   UNL     1       1.291 -10.115  -2.022  0.00  0.00    +0.143 HD
ENDBRANCH   7  27
BRANCH   6  30
ATOM     30  C   UNL     1       0.213  -9.956   1.438  0.00  0.00    +0.098 C 
ATOM     31  N   UNL     1       0.189 -10.928   2.025  0.00  0.00    -0.191 NA
ENDBRANCH   6  30
TORSDOF 5
