REMARK  Name = ZINC39011876
REMARK  10 active torsions:
REMARK  status: ('A' for Active; 'I' for Inactive)
REMARK    1  A    between atoms: C_1  and  C_2
REMARK    2  A    between atoms: C_5  and  C_8
REMARK    3  A    between atoms: C_10  and  C_14
REMARK    4  A    between atoms: C_18  and  S_22
REMARK    5  A    between atoms: N_20  and  N_21
REMARK    6  A    between atoms: S_22  and  C_23
REMARK    7  A    between atoms: C_23  and  C_24
REMARK    8  A    between atoms: N_26  and  C_27
REMARK    9  A    between atoms: C_28  and  C_34
REMARK   10  A    between atoms: C_32  and  C_33
REMARK                            x       y       z     vdW  Elec       q    Type
REMARK                         _______ _______ _______ _____ _____    ______ ____
ROOT
ATOM      1  C   UNL     1       2.274  -5.986   0.695  0.00  0.00    +0.185 C 
ATOM      2  N   UNL     1       3.648  -6.497   0.451  0.00  0.00    -0.234 NA
ATOM      3  N   UNL     1       3.508  -7.955   0.484  0.00  0.00    -0.228 NA
ATOM      4  C   UNL     1       2.098  -8.257   0.165  0.00  0.00    +0.214 C 
ATOM      5  N   UNL     1       1.421  -6.954  -0.043  0.00  0.00    -0.197 NA
ATOM      6  H   UNL     1       4.285  -6.179   1.166  0.00  0.00    +0.143 HD
ATOM      7  H   UNL     1       3.761  -8.322   1.389  0.00  0.00    +0.143 HD
ENDROOT
BRANCH   1  10
ATOM      8  C   UNL     1       3.837  -3.142  -0.139  0.00  0.00    +0.091 C 
ATOM      9  C   UNL     1       3.029  -3.599   0.838  0.00  0.00    +0.034 C 
ATOM     10  C   UNL     1       2.111  -4.575   0.124  0.00  0.00    +0.187 C 
ATOM     11  N   UNL     1       2.581  -4.518  -1.271  0.00  0.00    -0.176 NA
ATOM     12  N   UNL     1       3.513  -3.714  -1.328  0.00  0.00    -0.154 NA
BRANCH   8  17
ATOM     13  C   UNL     1       8.050   0.711   0.617  0.00  0.00    +0.044 C 
ATOM     14  C   UNL     1       6.947  -0.297   0.419  0.00  0.00    -0.050 A 
ATOM     15  C   UNL     1       6.706  -0.816  -0.840  0.00  0.00    +0.004 A 
ATOM     16  C   UNL     1       5.698  -1.740  -1.027  0.00  0.00    +0.010 A 
ATOM     17  C   UNL     1       4.922  -2.149   0.056  0.00  0.00    +0.002 A 
ATOM     18  C   UNL     1       5.170  -1.623   1.323  0.00  0.00    +0.010 A 
ATOM     19  C   UNL     1       6.184  -0.704   1.499  0.00  0.00    +0.004 A 
ENDBRANCH   8  17
ENDBRANCH   1  10
BRANCH   5  20
ATOM     20  N   UNL     1       0.070  -6.973   0.493  0.00  0.00    -0.264 NA
ATOM     21  H   UNL     1      -0.509  -7.630  -0.008  0.00  0.00    +0.137 HD
ATOM     22  H   UNL     1       0.076  -7.176   1.481  0.00  0.00    +0.137 HD
ENDBRANCH   5  20
BRANCH   4  23
ATOM     23  S   UNL     1       2.003  -9.260  -1.344  0.00  0.00    -0.115 S 
BRANCH  23  24
ATOM     24  C   UNL     1       2.814  -8.237  -2.603  0.00  0.00    +0.168 C 
BRANCH  24  25
ATOM     25  C   UNL     1       2.804  -8.962  -3.923  0.00  0.00    +0.227 C 
ATOM     26  O   UNL     1       2.299 -10.062  -4.007  0.00  0.00    -0.275 OA
ATOM     27  N   UNL     1       3.356  -8.390  -5.011  0.00  0.00    -0.284 N 
ATOM     28  H   UNL     1       3.694  -7.482  -4.963  0.00  0.00    +0.155 HD
BRANCH  27  29
ATOM     29  C   UNL     1       3.441  -9.105  -6.211  0.00  0.00    +0.039 A 
ATOM     30  C   UNL     1       2.919  -8.567  -7.380  0.00  0.00    -0.029 A 
ATOM     31  C   UNL     1       3.004  -9.275  -8.563  0.00  0.00    +0.005 A 
ATOM     32  C   UNL     1       3.609 -10.518  -8.584  0.00  0.00    +0.001 A 
ATOM     33  C   UNL     1       4.130 -11.057  -7.421  0.00  0.00    +0.005 A 
ATOM     34  C   UNL     1       4.053 -10.351  -6.237  0.00  0.00    -0.029 A 
ATOM     35  C   UNL     1       4.628 -10.935  -4.972  0.00  0.00    +0.045 C 
ATOM     36  C   UNL     1       2.259  -7.212  -7.358  0.00  0.00    +0.045 C 
ENDBRANCH  27  29
ENDBRANCH  24  25
ENDBRANCH  23  24
ENDBRANCH   4  23
TORSDOF 7
