REMARK  Name = ZINC01048743
REMARK  9 active torsions:
REMARK  status: ('A' for Active; 'I' for Inactive)
REMARK    1  A    between atoms: C_1  and  C_2
REMARK    2  A    between atoms: C_2  and  C_3
REMARK    3  A    between atoms: C_2  and  C_4
REMARK    4  A    between atoms: C_2  and  C_5
REMARK    5  A    between atoms: C_6  and  C_33
REMARK    6  A    between atoms: C_7  and  C_28
REMARK    7  A    between atoms: C_9  and  C_26
REMARK    8  A    between atoms: C_10  and  N_12
REMARK    9  A    between atoms: C_16  and  C_18
REMARK                            x       y       z     vdW  Elec       q    Type
REMARK                         _______ _______ _______ _____ _____    ______ ____
ROOT
ATOM      1  C   UNL     1      -1.354   2.268   0.187  0.00  0.00    +0.127 C 
ATOM      2  C   UNL     1      -0.091   1.834   0.259  0.00  0.00    +0.081 C 
ATOM      3  C   UNL     1       1.054   2.795   0.419  0.00  0.00    +0.115 C 
ATOM      4  C   UNL     1       0.542   4.134   0.875  0.00  0.00    +0.100 C 
ATOM      5  C   UNL     1      -0.772   4.445   0.774  0.00  0.00    +0.208 C 
ATOM      6  O   UNL     1      -1.663   3.574   0.266  0.00  0.00    -0.443 OA
ENDROOT
BRANCH   5   7
ATOM      7  N   UNL     1      -1.207   5.681   1.202  0.00  0.00    -0.239 N 
ATOM      8  C   UNL     1      -2.511   6.006   1.109  0.00  0.00    +0.313 C 
ATOM      9  O   UNL     1      -3.304   5.209   0.647  0.00  0.00    -0.252 OA
ATOM     10  N   UNL     1      -2.937   7.214   1.527  0.00  0.00    -0.236 N 
ATOM     11  C   UNL     1      -4.241   7.539   1.433  0.00  0.00    +0.257 C 
ATOM     12  O   UNL     1      -5.035   6.742   0.972  0.00  0.00    -0.270 OA
ATOM     13  H   UNL     1      -0.574   6.317   1.571  0.00  0.00    +0.159 HD
ATOM     14  H   UNL     1      -2.304   7.850   1.896  0.00  0.00    +0.159 HD
BRANCH  11  15
ATOM     15  C   UNL     1      -4.707   8.861   1.891  0.00  0.00    +0.107 A 
ATOM     16  C   UNL     1      -4.732   9.944   1.005  0.00  0.00    +0.138 A 
ATOM     17  C   UNL     1      -5.176  11.178   1.442  0.00  0.00    +0.039 A 
ATOM     18  C   UNL     1      -5.582  11.348   2.753  0.00  0.00    +0.006 A 
ATOM     19  C   UNL     1      -5.555  10.285   3.637  0.00  0.00    +0.039 A 
ATOM     20  C   UNL     1      -5.120   9.042   3.216  0.00  0.00    +0.138 A 
ATOM     21  F   UNL     1      -5.094   8.005   4.081  0.00  0.00    -0.205 F 
ATOM     22  F   UNL     1      -4.329   9.782  -0.274  0.00  0.00    -0.205 F 
ENDBRANCH  11  15
ENDBRANCH   5   7
BRANCH   3  23
ATOM     23  C   UNL     1       1.762   2.954  -0.902  0.00  0.00    +0.003 A 
ATOM     24  C   UNL     1       3.054   2.688  -1.216  0.00  0.00    +0.012 A 
ATOM     25  C   UNL     1       3.489   2.912  -2.508  0.00  0.00    +0.008 A 
ATOM     26  C   UNL     1       2.612   3.392  -3.424  0.00  0.00    +0.045 A 
ATOM     27  S   UNL     1       1.115   3.535  -2.461  0.00  0.00    -0.101 S 
ENDBRANCH   3  23
BRANCH   1  29
ATOM     28  C   UNL     1      -2.448   0.284   1.196  0.00  0.00    +0.019 C 
ATOM     29  C   UNL     1      -2.465   1.263   0.020  0.00  0.00    +0.021 C 
ATOM     30  C   UNL     1      -3.810   1.991  -0.019  0.00  0.00    +0.019 C 
ATOM     31  C   UNL     1      -2.263   0.494  -1.287  0.00  0.00    +0.019 C 
ENDBRANCH   1  29
BRANCH   4  32
ATOM     32  C   UNL     1       1.454   5.092   1.423  0.00  0.00    +0.101 C 
ATOM     33  N   UNL     1       2.179   5.851   1.858  0.00  0.00    -0.191 NA
ENDBRANCH   4  32
BRANCH   2  34
ATOM     34  C   UNL     1       0.176   0.429   0.176  0.00  0.00    +0.099 C 
ATOM     35  N   UNL     1       0.387  -0.685   0.111  0.00  0.00    -0.191 NA
ENDBRANCH   2  34
TORSDOF 6
