REMARK  Name = ZINC46659298
REMARK  4 active torsions:
REMARK  status: ('A' for Active; 'I' for Inactive)
REMARK    1  A    between atoms: C_1  and  C_2
REMARK    2  A    between atoms: N_4  and  C_5
REMARK    3  A    between atoms: C_8  and  N_11
REMARK    4  A    between atoms: C_12  and  C_14
REMARK                            x       y       z     vdW  Elec       q    Type
REMARK                         _______ _______ _______ _____ _____    ______ ____
ROOT
ATOM      1  N   UNL     1       0.273  -6.220  -1.570  0.00  0.00    -0.282 N 
ATOM      2  C   UNL     1       0.450  -6.801  -2.773  0.00  0.00    +0.248 C 
ATOM      3  O   UNL     1       0.459  -6.121  -3.781  0.00  0.00    -0.270 OA
ATOM      4  H   UNL     1       0.199  -6.768  -0.773  0.00  0.00    +0.155 HD
ENDROOT
BRANCH   2   5
ATOM      5  C   UNL     1       0.634  -8.267  -2.868  0.00  0.00    +0.039 A 
ATOM      6  C   UNL     1       0.617  -9.047  -1.701  0.00  0.00    +0.014 A 
ATOM      7  C   UNL     1       0.784 -10.397  -1.762  0.00  0.00    +0.016 A 
ATOM      8  C   UNL     1       0.975 -11.022  -3.002  0.00  0.00    +0.065 A 
ATOM      9  C   UNL     1       0.994 -10.246  -4.191  0.00  0.00    +0.080 A 
ATOM     10  C   UNL     1       0.815  -8.857  -4.108  0.00  0.00    +0.041 A 
ATOM     11  N   UNL     1       1.178 -10.859  -5.369  0.00  0.00    -0.223 NA
ATOM     12  C   UNL     1       1.340 -12.172  -5.430  0.00  0.00    +0.180 A 
ATOM     13  N   UNL     1       1.330 -12.950  -4.335  0.00  0.00    -0.301 N 
ATOM     14  H   UNL     1       1.453 -13.908  -4.428  0.00  0.00    +0.171 HD
ATOM     15  C   UNL     1       1.152 -12.418  -3.107  0.00  0.00    +0.260 A 
ATOM     16  O   UNL     1       1.142 -13.198  -2.012  0.00  0.00    -0.267 OA
ATOM     17  S   UNL     1       1.570 -12.903  -6.961  0.00  0.00    -0.011 S 
ENDBRANCH   2   5
BRANCH   1  21
ATOM     18  C   UNL     1       0.044  -2.068  -1.272  0.00  0.00    +0.033 A 
ATOM     19  C   UNL     1      -0.485  -2.715  -2.381  0.00  0.00    +0.025 A 
ATOM     20  C   UNL     1      -0.409  -4.090  -2.480  0.00  0.00    +0.025 A 
ATOM     21  C   UNL     1       0.197  -4.826  -1.470  0.00  0.00    +0.034 A 
ATOM     22  C   UNL     1       0.726  -4.179  -0.361  0.00  0.00    +0.025 A 
ATOM     23  C   UNL     1       0.654  -2.804  -0.265  0.00  0.00    +0.025 A 
BRANCH  18  27
ATOM     24  C   UNL     1       0.941   1.525  -0.587  0.00  0.00    +0.109 C 
ATOM     25  C   UNL     1       0.974   0.018  -0.602  0.00  0.00    +0.214 C 
ATOM     26  O   UNL     1       1.907  -0.573  -0.100  0.00  0.00    -0.276 OA
ATOM     27  N   UNL     1      -0.032  -0.673  -1.172  0.00  0.00    -0.286 N 
ATOM     28  H   UNL     1      -0.810  -0.204  -1.514  0.00  0.00    +0.155 HD
ENDBRANCH  18  27
ENDBRANCH   1  21
TORSDOF 3
