REMARK  Name = ZINC09548974
REMARK  6 active torsions:
REMARK  status: ('A' for Active; 'I' for Inactive)
REMARK    1  A    between atoms: C_1  and  C_2
REMARK    2  A    between atoms: N_11  and  C_15
REMARK    3  A    between atoms: C_15  and  C_16
REMARK    4  A    between atoms: N_21  and  C_24
REMARK    5  A    between atoms: C_27  and  C_31
REMARK    6  A    between atoms: C_31  and  C_33
REMARK                            x       y       z     vdW  Elec       q    Type
REMARK                         _______ _______ _______ _____ _____    ______ ____
ROOT
ATOM      1  C   UNL     1      -3.253  -1.900   2.398  0.00  0.00    +0.234 C 
ATOM      2  O   UNL     1      -2.340  -2.244   1.678  0.00  0.00    -0.274 OA
ATOM      3  N   UNL     1      -4.234  -2.773   2.706  0.00  0.00    -0.297 N 
ATOM      4  C   UNL     1      -5.347  -2.378   3.582  0.00  0.00    +0.126 C 
ATOM      5  C   UNL     1      -6.665  -2.740   2.878  0.00  0.00    +0.124 C 
ATOM      6  N   UNL     1      -6.642  -4.160   2.505  0.00  0.00    -0.325 N 
ATOM      7  C   UNL     1      -5.574  -4.439   1.536  0.00  0.00    +0.124 C 
ATOM      8  C   UNL     1      -4.215  -4.146   2.179  0.00  0.00    +0.126 C 
ENDROOT
BRANCH   6   9
ATOM      9  C   UNL     1      -7.878  -4.567   2.016  0.00  0.00    +0.065 A 
ATOM     10  C   UNL     1      -8.090  -5.904   1.691  0.00  0.00    +0.027 A 
ATOM     11  C   UNL     1      -9.301  -6.312   1.211  0.00  0.00    +0.013 A 
ATOM     12  C   UNL     1     -10.337  -5.385   1.042  0.00  0.00    +0.020 A 
ATOM     13  C   UNL     1     -10.127  -4.038   1.368  0.00  0.00    +0.051 A 
ATOM     14  C   UNL     1      -8.904  -3.636   1.858  0.00  0.00    +0.145 A 
ATOM     15  F   UNL     1      -8.697  -2.340   2.179  0.00  0.00    -0.204 F 
BRANCH  12  16
ATOM     16  C   UNL     1     -11.639  -5.822   0.525  0.00  0.00    +0.160 C 
ATOM     17  O   UNL     1     -11.789  -6.966   0.149  0.00  0.00    -0.292 OA
ATOM     18  C   UNL     1     -12.789  -4.851   0.461  0.00  0.00    +0.091 C 
ENDBRANCH  12  16
ENDBRANCH   6   9
BRANCH   1  19
ATOM     19  C   UNL     1      -3.293  -0.498   2.948  0.00  0.00    +0.213 C 
BRANCH  19  29
ATOM     20  C   UNL     1      -1.515   3.543   2.512  0.00  0.00    +0.010 C 
ATOM     21  C   UNL     1      -0.765   3.072   1.264  0.00  0.00    +0.018 C 
ATOM     22  C   UNL     1      -1.496   3.566   0.013  0.00  0.00    +0.006 C 
ATOM     23  C   UNL     1      -0.756   3.076  -1.234  0.00  0.00    +0.000 C 
ATOM     24  C   UNL     1      -0.723   1.547  -1.243  0.00  0.00    +0.003 C 
ATOM     25  C   UNL     1       0.011   1.046   0.003  0.00  0.00    +0.035 C 
ATOM     26  C   UNL     1      -0.706   1.548   1.252  0.00  0.00    +0.115 C 
ATOM     27  C   UNL     1      -2.099   0.967   1.330  0.00  0.00    +0.247 C 
ATOM     28  O   UNL     1      -3.002   1.115   0.535  0.00  0.00    -0.273 OA
ATOM     29  N   UNL     1      -2.125   0.247   2.471  0.00  0.00    -0.215 N 
ATOM     30  C   UNL     1      -0.951   0.297   3.112  0.00  0.00    +0.310 C 
ATOM     31  O   UNL     1      -0.730  -0.273   4.163  0.00  0.00    -0.252 OA
ATOM     32  N   UNL     1      -0.042   1.049   2.463  0.00  0.00    -0.285 N 
ATOM     33  H   UNL     1       0.871   1.226   2.740  0.00  0.00    +0.151 HD
ENDBRANCH  19  29
ENDBRANCH   1  19
TORSDOF 4
