REMARK  Name = ZINC08290716
REMARK  6 active torsions:
REMARK  status: ('A' for Active; 'I' for Inactive)
REMARK    1  A    between atoms: C_4  and  C_7
REMARK    2  A    between atoms: C_8  and  C_9
REMARK    3  A    between atoms: N_11  and  C_12
REMARK    4  A    between atoms: C_16  and  S_18
REMARK    5  A    between atoms: S_18  and  N_21
REMARK    6  A    between atoms: N_21  and  C_22
REMARK                            x       y       z     vdW  Elec       q    Type
REMARK                         _______ _______ _______ _____ _____    ______ ____
ROOT
ATOM      1  C   UNL     1      -3.671   1.258  -4.552  0.00  0.00    +0.036 A 
ATOM      2  C   UNL     1      -3.081   2.362  -5.155  0.00  0.00    +0.023 A 
ATOM      3  C   UNL     1      -2.701   3.445  -4.387  0.00  0.00    +0.004 A 
ATOM      4  C   UNL     1      -2.914   3.434  -3.021  0.00  0.00    +0.029 A 
ATOM      5  C   UNL     1      -3.496   2.335  -2.417  0.00  0.00    +0.110 A 
ATOM      6  C   UNL     1      -3.878   1.248  -3.179  0.00  0.00    +0.052 A 
ENDROOT
BRANCH   1   9
ATOM      7  C   UNL     1      -5.167  -0.534  -5.006  0.00  0.00    +0.241 C 
ATOM      8  O   UNL     1      -5.786  -0.259  -3.995  0.00  0.00    -0.270 OA
ATOM      9  N   UNL     1      -4.057   0.160  -5.326  0.00  0.00    -0.282 N 
ATOM     10  H   UNL     1      -3.525  -0.103  -6.094  0.00  0.00    +0.155 HD
BRANCH   7  12
ATOM     11  C   UNL     1      -6.738  -2.313  -5.554  0.00  0.00    +0.013 C 
ATOM     12  C   UNL     1      -5.628  -1.619  -5.874  0.00  0.00    +0.068 C 
BRANCH  11  16
ATOM     13  C   UNL     1      -8.075  -5.456  -8.070  0.00  0.00    +0.000 A 
ATOM     14  C   UNL     1      -8.782  -5.146  -6.921  0.00  0.00    +0.001 A 
ATOM     15  C   UNL     1      -8.353  -4.126  -6.098  0.00  0.00    +0.008 A 
ATOM     16  C   UNL     1      -7.202  -3.404  -6.427  0.00  0.00    -0.025 A 
ATOM     17  C   UNL     1      -6.497  -3.719  -7.592  0.00  0.00    +0.008 A 
ATOM     18  C   UNL     1      -6.935  -4.746  -8.402  0.00  0.00    +0.001 A 
ENDBRANCH  11  16
ENDBRANCH   7  12
ENDBRANCH   1   9
BRANCH   5  19
ATOM     19  S   UNL     1      -3.759   2.324  -0.674  0.00  0.00    +0.072 S 
ATOM     20  O   UNL     1      -4.821   1.412  -0.429  0.00  0.00    -0.150 OA
ATOM     21  O   UNL     1      -3.812   3.683  -0.263  0.00  0.00    -0.150 OA
BRANCH  19  22
ATOM     22  N   UNL     1      -2.405   1.672   0.021  0.00  0.00    -0.215 N 
ATOM     23  H   UNL     1      -2.474   0.866   0.555  0.00  0.00    +0.174 HD
BRANCH  22  24
ATOM     24  C   UNL     1      -1.162   2.284  -0.163  0.00  0.00    +0.066 A 
ATOM     25  C   UNL     1      -1.070   3.668  -0.231  0.00  0.00    +0.026 A 
ATOM     26  C   UNL     1       0.159   4.270  -0.418  0.00  0.00    +0.002 A 
ATOM     27  C   UNL     1       1.299   3.496  -0.531  0.00  0.00    +0.002 A 
ATOM     28  C   UNL     1       1.214   2.118  -0.458  0.00  0.00    +0.022 A 
ATOM     29  C   UNL     1      -0.013   1.509  -0.272  0.00  0.00    +0.063 A 
ATOM     30 CL   UNL     1      -0.120  -0.221  -0.180  0.00  0.00    -0.082 Cl
ENDBRANCH  22  24
ENDBRANCH  19  22
ENDBRANCH   5  19
TORSDOF 6
