REMARK  Name = ZINC39451631
REMARK  0 active torsions:
REMARK  status: ('A' for Active; 'I' for Inactive)
REMARK                            x       y       z     vdW  Elec       q    Type
REMARK                         _______ _______ _______ _____ _____    ______ ____
ROOT
ATOM      1  C   UNL     1      -0.017   1.391   0.010  0.00  0.00    +0.037 A 
ATOM      2  C   UNL     1       1.198   2.057   0.002  0.00  0.00    +0.060 A 
ATOM      3  C   UNL     1       2.380   1.328  -0.013  0.00  0.00    +0.131 A 
ATOM      4  N   UNL     1       2.377   0.012  -0.020  0.00  0.00    -0.251 NA
ATOM      5  C   UNL     1       1.243  -0.677  -0.013  0.00  0.00    +0.099 A 
ATOM      6  C   UNL     1       0.002  -0.004   0.002  0.00  0.00    +0.069 A 
ATOM      7  C   UNL     1      -1.236  -0.796   0.008  0.00  0.00    +0.271 A 
ATOM      8  O   UNL     1      -2.317  -0.235   0.022  0.00  0.00    -0.266 OA
ATOM      9  N   UNL     1      -1.176  -2.140  -0.002  0.00  0.00    -0.237 N 
ATOM     10  C   UNL     1       0.032  -2.826  -0.018  0.00  0.00    +0.122 A 
ATOM     11  C   UNL     1       1.235  -2.146  -0.019  0.00  0.00    +0.083 A 
ATOM     12  N   UNL     1       2.424  -2.850  -0.021  0.00  0.00    -0.329 N 
ATOM     13  C   UNL     1       2.434  -4.204   0.554  0.00  0.00    +0.141 C 
ATOM     14  C   UNL     1       1.314  -5.014  -0.108  0.00  0.00    +0.114 C 
ATOM     15  C   UNL     1       0.024  -4.240  -0.030  0.00  0.00    +0.185 C 
ATOM     16  O   UNL     1      -1.033  -4.836   0.022  0.00  0.00    -0.290 OA
ATOM     17  I   UNL     1       2.092  -4.093   2.686  0.00  0.00    -0.061 I 
ATOM     18 BR   UNL     1      -2.753  -3.106   0.006  0.00  0.00    +0.058 Br
ATOM     19 CL   UNL     1       1.242   3.793   0.010  0.00  0.00    -0.082 Cl
ATOM     20  H   UNL     1       3.232  -2.462  -0.392  0.00  0.00    +0.147 HD
ENDROOT
TORSDOF 0
