REMARK  Name = ZINC63139290
REMARK  6 active torsions:
REMARK  status: ('A' for Active; 'I' for Inactive)
REMARK    1  A    between atoms: C_1  and  O_2
REMARK    2  A    between atoms: O_2  and  C_3
REMARK    3  A    between atoms: C_6  and  C_9
REMARK    4  A    between atoms: C_9  and  N_10
REMARK    5  A    between atoms: C_30  and  C_32
REMARK    6  A    between atoms: C_36  and  N_38
REMARK                            x       y       z     vdW  Elec       q    Type
REMARK                         _______ _______ _______ _____ _____    ______ ____
ROOT
ATOM      1  N   UNL     1      -5.083  -3.076  -1.438  0.00  0.00    -0.287 N 
ATOM      2  C   UNL     1      -5.936  -2.016  -1.950  0.00  0.00    +0.204 C 
ATOM      3  C   UNL     1      -6.441  -2.312  -3.323  0.00  0.00    +0.234 C 
ATOM      4  O   UNL     1      -7.166  -1.492  -3.846  0.00  0.00    -0.274 OA
ATOM      5  N   UNL     1      -6.152  -3.418  -4.019  0.00  0.00    -0.279 N 
ATOM      6  C   UNL     1      -5.277  -4.467  -3.504  0.00  0.00    +0.167 C 
ATOM      7  C   UNL     1      -4.777  -4.174  -2.128  0.00  0.00    +0.237 C 
ATOM      8  O   UNL     1      -4.050  -4.989  -1.603  0.00  0.00    -0.274 OA
ATOM      9  C   UNL     1      -4.082  -4.667  -4.453  0.00  0.00    +0.065 C 
ATOM     10  C   UNL     1      -4.646  -4.717  -5.851  0.00  0.00    -0.034 C 
ATOM     11  C   UNL     1      -4.485  -5.593  -6.835  0.00  0.00    -0.001 A 
ATOM     12  C   UNL     1      -3.613  -6.772  -6.964  0.00  0.00    +0.010 A 
ATOM     13  C   UNL     1      -3.720  -7.472  -8.124  0.00  0.00    +0.001 A 
ATOM     14  C   UNL     1      -4.596  -7.122  -9.156  0.00  0.00    +0.002 A 
ATOM     15  C   UNL     1      -5.426  -6.050  -9.127  0.00  0.00    +0.026 A 
ATOM     16  C   UNL     1      -5.399  -5.231  -7.961  0.00  0.00    +0.043 A 
ATOM     17  N   UNL     1      -6.059  -4.147  -7.678  0.00  0.00    -0.375 N 
ATOM     18  C   UNL     1      -5.607  -3.656  -6.376  0.00  0.00    +0.131 C 
ATOM     19  C   UNL     1      -6.752  -3.566  -5.364  0.00  0.00    +0.133 C 
ATOM     20  H   UNL     1      -6.737  -3.733  -8.236  0.00  0.00    +0.160 HD
ENDROOT
BRANCH  19  21
ATOM     21  C   UNL     1      -7.583  -4.822  -5.418  0.00  0.00    -0.023 A 
ATOM     22  C   UNL     1      -6.999  -6.048  -5.160  0.00  0.00    +0.005 A 
ATOM     23  C   UNL     1      -7.760  -7.201  -5.210  0.00  0.00    +0.003 A 
ATOM     24  C   UNL     1      -9.107  -7.127  -5.516  0.00  0.00    +0.033 A 
ATOM     25  C   UNL     1      -9.691  -5.901  -5.772  0.00  0.00    +0.127 A 
ATOM     26  C   UNL     1      -8.930  -4.748  -5.719  0.00  0.00    +0.038 A 
BRANCH  25  27
ATOM     27  N   UNL     1     -11.132  -5.822  -6.101  0.00  0.00    +0.056 N 
ATOM     28  O   UNL     1     -11.798  -6.830  -6.145  0.00  0.00    -0.126 OA
ATOM     29  O   UNL     1     -11.643  -4.749  -6.325  0.00  0.00    -0.126 OA
ENDBRANCH  25  27
ENDBRANCH  19  21
BRANCH   1  30
ATOM     30  C   UNL     1      -4.524  -2.926  -0.092  0.00  0.00    +0.143 C 
BRANCH  30  34
ATOM     31  C   UNL     1      -0.762  -0.913  -0.328  0.00  0.00    +0.120 A 
ATOM     32  C   UNL     1      -1.932  -0.183  -0.176  0.00  0.00    +0.046 A 
ATOM     33  C   UNL     1      -3.147  -0.836  -0.100  0.00  0.00    +0.009 A 
ATOM     34  C   UNL     1      -3.198  -2.216  -0.176  0.00  0.00    -0.030 A 
ATOM     35  C   UNL     1      -2.033  -2.945  -0.327  0.00  0.00    +0.009 A 
ATOM     36  C   UNL     1      -0.816  -2.296  -0.409  0.00  0.00    +0.046 A 
BRANCH  31  38
ATOM     37  C   UNL     1       0.414   1.153  -0.312  0.00  0.00    +0.277 C 
ATOM     38  O   UNL     1       0.434  -0.272  -0.403  0.00  0.00    -0.495 OA
ENDBRANCH  31  38
ENDBRANCH  30  34
ENDBRANCH   1  30
TORSDOF 5
