REMARK  Name = ZINC47613786
REMARK  10 active torsions:
REMARK  status: ('A' for Active; 'I' for Inactive)
REMARK    1  A    between atoms: C_1  and  C_2
REMARK    2  A    between atoms: C_2  and  N_3
REMARK    3  A    between atoms: C_7  and  C_9
REMARK    4  A    between atoms: C_9  and  N_10
REMARK    5  A    between atoms: N_10  and  C_11
REMARK    6  A    between atoms: N_10  and  C_19
REMARK    7  A    between atoms: C_11  and  C_12
REMARK    8  A    between atoms: C_19  and  C_20
REMARK    9  A    between atoms: N_25  and  C_26
REMARK   10  A    between atoms: C_26  and  C_27
REMARK                            x       y       z     vdW  Elec       q    Type
REMARK                         _______ _______ _______ _____ _____    ______ ____
ROOT
ATOM      1  N   UNL     1      -4.313  -5.377  -0.072  0.00  0.00    +0.394 N 
ATOM      2  H   UNL     1      -3.592  -5.572  -0.750  0.00  0.00    -0.080 HD
ENDROOT
BRANCH   1   3
ATOM      3  C   UNL     1      -4.666  -3.952  -0.128  0.00  0.00    +0.020 C 
BRANCH   3   8
ATOM      4  N   UNL     1      -2.478   0.316   0.193  0.00  0.00    -0.299 N 
ATOM      5  C   UNL     1      -2.395  -1.029   0.209  0.00  0.00    +0.306 C 
ATOM      6  O   UNL     1      -1.320  -1.570   0.372  0.00  0.00    -0.252 OA
ATOM      7  N   UNL     1      -3.506  -1.774   0.042  0.00  0.00    -0.242 N 
ATOM      8  C   UNL     1      -3.424  -3.119   0.058  0.00  0.00    +0.204 C 
ATOM      9  O   UNL     1      -2.351  -3.659   0.221  0.00  0.00    -0.277 OA
ATOM     10  H   UNL     1      -3.336   0.748   0.063  0.00  0.00    +0.150 HD
ATOM     11  H   UNL     1      -4.365  -1.342  -0.088  0.00  0.00    +0.159 HD
BRANCH   4  13
ATOM     12  C   UNL     1      -1.638   2.610   0.315  0.00  0.00    +0.024 C 
ATOM     13  C   UNL     1      -1.270   1.126   0.374  0.00  0.00    +0.102 C 
ENDBRANCH   4  13
ENDBRANCH   3   8
ENDBRANCH   1   3
BRANCH   1  14
ATOM     14  C   UNL     1      -3.821  -5.707   1.273  0.00  0.00    -0.039 C 
BRANCH  14  15
ATOM     15  C   UNL     1      -3.376  -7.146   1.306  0.00  0.00    -0.029 A 
ATOM     16  C   UNL     1      -4.175  -8.104   1.901  0.00  0.00    +0.004 A 
ATOM     17  C   UNL     1      -3.766  -9.424   1.931  0.00  0.00    +0.000 A 
ATOM     18  C   UNL     1      -2.558  -9.788   1.366  0.00  0.00    +0.003 A 
ATOM     19  C   UNL     1      -1.758  -8.833   0.770  0.00  0.00    +0.038 A 
ATOM     20  C   UNL     1      -2.169  -7.511   0.734  0.00  0.00    +0.125 A 
ATOM     21  F   UNL     1      -1.389  -6.576   0.147  0.00  0.00    -0.205 F 
ENDBRANCH  14  15
ENDBRANCH   1  14
BRANCH   1  22
ATOM     22  C   UNL     1      -5.500  -6.188  -0.372  0.00  0.00    +0.020 C 
BRANCH  22  23
ATOM     23  C   UNL     1      -5.902  -5.979  -1.809  0.00  0.00    +0.204 C 
ATOM     24  O   UNL     1      -5.199  -5.321  -2.545  0.00  0.00    -0.277 OA
ATOM     25  N   UNL     1      -7.043  -6.522  -2.276  0.00  0.00    -0.242 N 
ATOM     26  C   UNL     1      -7.402  -6.335  -3.561  0.00  0.00    +0.306 C 
ATOM     27  O   UNL     1      -6.697  -5.676  -4.299  0.00  0.00    -0.252 OA
ATOM     28  N   UNL     1      -8.544  -6.879  -4.028  0.00  0.00    -0.299 N 
ATOM     29  H   UNL     1      -7.606  -7.049  -1.687  0.00  0.00    +0.159 HD
ATOM     30  H   UNL     1      -9.107  -7.406  -3.439  0.00  0.00    +0.150 HD
BRANCH  28  31
ATOM     31  C   UNL     1      -8.934  -6.675  -5.426  0.00  0.00    +0.102 C 
ATOM     32  C   UNL     1     -10.258  -7.393  -5.695  0.00  0.00    +0.024 C 
ENDBRANCH  28  31
ENDBRANCH  22  23
ENDBRANCH   1  22
TORSDOF 8
