REMARK  Name = ZINC12349302
REMARK  5 active torsions:
REMARK  status: ('A' for Active; 'I' for Inactive)
REMARK    1  A    between atoms: C_3  and  C_6
REMARK    2  A    between atoms: C_11  and  C_20
REMARK    3  A    between atoms: C_23  and  O_26
REMARK    4  A    between atoms: O_26  and  C_27
REMARK    5  A    between atoms: C_27  and  C_28
REMARK                            x       y       z     vdW  Elec       q    Type
REMARK                         _______ _______ _______ _____ _____    ______ ____
ROOT
ATOM      1  C   UNL     1       3.761   1.845  -0.024  0.00  0.00    +0.039 C 
ATOM      2  C   UNL     1       4.507   1.324   1.205  0.00  0.00    +0.060 C 
ATOM      3  C   UNL     1       5.940   1.798   1.170  0.00  0.00    +0.017 C 
ATOM      4  C   UNL     1       6.585   1.986   0.000  0.00  0.00    +0.021 C 
ATOM      5  C   UNL     1       8.028   2.432  -0.095  0.00  0.00    +0.073 C 
ATOM      6  C   UNL     1       8.435   3.182   1.173  0.00  0.00    +0.153 C 
ATOM      7  C   UNL     1       7.893   2.354   2.335  0.00  0.00    +0.130 C 
ATOM      8  N   UNL     1       8.880   2.026   3.069  0.00  0.00    -0.168 NA
ATOM      9  N   UNL     1      10.099   2.473   2.559  0.00  0.00    -0.205 N 
ATOM     10  C   UNL     1       9.932   3.138   1.380  0.00  0.00    +0.243 C 
ATOM     11  O   UNL     1      10.789   3.592   0.651  0.00  0.00    -0.273 OA
ATOM     12  N   UNL     1       6.545   2.037   2.386  0.00  0.00    -0.304 N 
ATOM     13  C   UNL     1       5.920   1.771  -1.224  0.00  0.00    +0.162 C 
ATOM     14  O   UNL     1       6.524   1.944  -2.264  0.00  0.00    -0.292 OA
ATOM     15  C   UNL     1       4.484   1.335  -1.276  0.00  0.00    +0.088 C 
ATOM     16  H   UNL     1       6.058   1.986   3.224  0.00  0.00    +0.153 HD
ATOM     17  H   UNL     1      10.957   2.333   2.990  0.00  0.00    +0.177 HD
ENDROOT
BRANCH   5  18
ATOM     18  C   UNL     1       8.914   1.224  -0.262  0.00  0.00    -0.038 A 
ATOM     19  C   UNL     1       8.924   0.237   0.707  0.00  0.00    +0.008 A 
ATOM     20  C   UNL     1       9.736  -0.871   0.556  0.00  0.00    +0.046 A 
ATOM     21  C   UNL     1      10.540  -0.993  -0.568  0.00  0.00    +0.121 A 
ATOM     22  C   UNL     1      10.527  -0.002  -1.538  0.00  0.00    +0.046 A 
ATOM     23  C   UNL     1       9.710   1.102  -1.385  0.00  0.00    +0.008 A 
BRANCH  21  24
ATOM     24  O   UNL     1      11.339  -2.082  -0.717  0.00  0.00    -0.481 OA
BRANCH  24  25
ATOM     25  C   UNL     1      12.140  -2.141  -1.899  0.00  0.00    +0.353 C 
BRANCH  25  26
ATOM     26  C   UNL     1      12.953  -3.410  -1.892  0.00  0.00    +0.393 C 
ATOM     27  O   UNL     1      12.856  -4.191  -0.961  0.00  0.00    -0.243 OA
ATOM     28  O   UNL     1      13.709  -3.655  -2.817  0.00  0.00    -0.243 OA
ENDBRANCH  25  26
ENDBRANCH  24  25
ENDBRANCH  21  24
ENDBRANCH   5  18
BRANCH   1  31
ATOM     29  C   UNL     1      -0.016   1.351   0.009  0.00  0.00    +0.008 A 
ATOM     30  C   UNL     1       1.183   2.038   0.002  0.00  0.00    +0.011 A 
ATOM     31  C   UNL     1       2.343   1.336  -0.013  0.00  0.00    -0.006 A 
ATOM     32  S   UNL     1       1.754  -0.349  -0.017  0.00  0.00    -0.101 S 
ATOM     33  C   UNL     1       0.002  -0.004   0.002  0.00  0.00    +0.045 A 
ENDBRANCH   1  31
TORSDOF 5
