REMARK  Name = ZINC63789080
REMARK  6 active torsions:
REMARK  status: ('A' for Active; 'I' for Inactive)
REMARK    1  A    between atoms: C_7  and  C_10
REMARK    2  A    between atoms: C_10  and  C_11
REMARK    3  A    between atoms: C_17  and  S_19
REMARK    4  A    between atoms: S_19  and  C_20
REMARK    5  A    between atoms: C_20  and  C_21
REMARK    6  A    between atoms: C_24  and  C_27
REMARK                            x       y       z     vdW  Elec       q    Type
REMARK                         _______ _______ _______ _____ _____    ______ ____
ROOT
ATOM      1  C   UNL     1       0.460  -3.646  -1.440  0.00  0.00    +0.223 C 
ATOM      2  O   UNL     1       1.006  -3.075  -2.360  0.00  0.00    -0.275 OA
ATOM      3  N   UNL     1      -0.353  -4.693  -1.684  0.00  0.00    -0.263 N 
ATOM      4  C   UNL     1      -0.566  -5.119  -2.993  0.00  0.00    +0.189 A 
ATOM      5  N   UNL     1      -0.075  -4.653  -4.130  0.00  0.00    -0.125 NA
ATOM      6  N   UNL     1      -0.373  -5.160  -5.245  0.00  0.00    -0.133 NA
ATOM      7  C   UNL     1      -1.197  -6.193  -5.347  0.00  0.00    +0.160 A 
ATOM      8  S   UNL     1      -1.576  -6.459  -3.617  0.00  0.00    -0.024 S 
ATOM      9  H   UNL     1      -0.790  -5.150  -0.948  0.00  0.00    +0.157 HD
ENDROOT
BRANCH   1  10
ATOM     10  C   UNL     1       0.691  -3.186  -0.024  0.00  0.00    +0.129 C 
BRANCH  10  17
ATOM     11  C   UNL     1      -0.016   1.348   0.009  0.00  0.00    +0.001 A 
ATOM     12  C   UNL     1       1.166   2.101   0.002  0.00  0.00    +0.002 A 
ATOM     13  C   UNL     1       2.391   1.535  -0.013  0.00  0.00    +0.026 A 
ATOM     14  C   UNL     1       2.529   0.120  -0.022  0.00  0.00    +0.043 A 
ATOM     15  N   UNL     1       3.587  -0.654  -0.037  0.00  0.00    -0.380 N 
ATOM     16  C   UNL     1       3.143  -2.053  -0.041  0.00  0.00    +0.145 C 
ATOM     17  C   UNL     1       1.631  -2.008  -0.025  0.00  0.00    -0.033 C 
ATOM     18  C   UNL     1       1.295  -0.698  -0.014  0.00  0.00    -0.001 A 
ATOM     19  C   UNL     1       0.002  -0.004   0.002  0.00  0.00    +0.010 A 
ATOM     20  H   UNL     1       4.509  -0.353  -0.045  0.00  0.00    +0.160 HD
ENDBRANCH  10  17
ENDBRANCH   1  10
BRANCH   7  21
ATOM     21  S   UNL     1      -1.755  -7.060  -6.775  0.00  0.00    -0.092 S 
BRANCH  21  22
ATOM     22  C   UNL     1      -0.933  -6.213  -8.152  0.00  0.00    +0.111 C 
BRANCH  22  23
ATOM     23  C   UNL     1      -1.329  -6.865  -9.452  0.00  0.00    -0.037 A 
ATOM     24  C   UNL     1      -0.584  -7.918  -9.950  0.00  0.00    +0.006 A 
ATOM     25  C   UNL     1      -0.941  -8.519 -11.139  0.00  0.00    +0.019 A 
ATOM     26  C   UNL     1      -2.059  -8.062 -11.840  0.00  0.00    +0.052 A 
ATOM     27  C   UNL     1      -2.807  -6.999 -11.332  0.00  0.00    +0.019 A 
ATOM     28  C   UNL     1      -2.441  -6.410 -10.139  0.00  0.00    +0.006 A 
BRANCH  26  29
ATOM     29  C   UNL     1      -2.436  -8.681 -13.075  0.00  0.00    +0.099 C 
ATOM     30  N   UNL     1      -2.734  -9.172 -14.055  0.00  0.00    -0.191 NA
ENDBRANCH  26  29
ENDBRANCH  22  23
ENDBRANCH  21  22
ENDBRANCH   7  21
TORSDOF 6
