REMARK  Name = ZINC17106164
REMARK  10 active torsions:
REMARK  status: ('A' for Active; 'I' for Inactive)
REMARK    1  A    between atoms: C_1  and  C_2
REMARK    2  A    between atoms: C_3  and  C_14
REMARK    3  A    between atoms: C_14  and  N_15
REMARK    4  A    between atoms: N_15  and  C_16
REMARK    5  A    between atoms: C_19  and  C_22
REMARK    6  A    between atoms: N_24  and  CA_25
REMARK    7  A    between atoms: CA_25  and  CB_27
REMARK    8  A    between atoms: CA_25  and  C_32
REMARK    9  A    between atoms: CB_27  and  CG_28
REMARK   10  A    between atoms: CG_28  and  CD_29
REMARK                            x       y       z     vdW  Elec       q    Type
REMARK                         _______ _______ _______ _____ _____    ______ ____
ROOT
ATOM      1  N   UNK A   0       2.250   0.542  -2.573  0.00  0.00    -0.340 N 
ATOM      2  H   UNK A   0       2.892   0.334  -1.877  0.00  0.00    +0.146 HD
ENDROOT
BRANCH   1   3
ATOM      3  C   UNK A   0       2.645   1.276  -3.686  0.00  0.00    +0.027 A 
ATOM      4  C   UNK A   0       1.720   1.579  -4.682  0.00  0.00    +0.023 A 
ATOM      5  C   UNK A   0       2.108   2.305  -5.785  0.00  0.00    +0.015 A 
ATOM      6  C   UNK A   0       3.432   2.737  -5.905  0.00  0.00    +0.037 A 
ATOM      7  C   UNK A   0       4.358   2.430  -4.904  0.00  0.00    +0.015 A 
ATOM      8  C   UNK A   0       3.963   1.709  -3.801  0.00  0.00    +0.023 A 
BRANCH   6   9
ATOM      9  C   UNK A   0       3.851   3.514  -7.087  0.00  0.00    +0.245 C 
ATOM     10  O   UNK A   0       3.045   3.780  -7.957  0.00  0.00    -0.270 OA
ATOM     11  N   GLU A   1       5.128   3.929  -7.202  0.00  0.00    -0.298 N 
ATOM     12  H   GLU A   1       5.771   3.717  -6.508  0.00  0.00    +0.150 HD
BRANCH  11  13
ATOM     13  CA  GLU A   1       5.544   4.702  -8.375  0.00  0.00    +0.187 C 
BRANCH  13  14
ATOM     14  C   GLU A   1       5.242   6.160  -8.150  0.00  0.00    +0.376 C 
ATOM     15  O   GLU A   1       4.898   6.548  -7.046  0.00  0.00    -0.244 OA
ATOM     16  OXT GLU A   1       5.340   6.953  -9.071  0.00  0.00    -0.244 OA
ENDBRANCH  13  14
BRANCH  13  17
ATOM     17  CB  GLU A   1       7.047   4.521  -8.598  0.00  0.00    +0.045 C 
BRANCH  17  18
ATOM     18  CG  GLU A   1       7.339   3.061  -8.950  0.00  0.00    +0.127 C 
BRANCH  18  19
ATOM     19  CD  GLU A   1       8.819   2.883  -9.169  0.00  0.00    +0.356 C 
ATOM     20  OE1 GLU A   1       9.571   3.836  -9.054  0.00  0.00    -0.246 OA
ATOM     21  OE2 GLU A   1       9.265   1.786  -9.461  0.00  0.00    -0.246 OA
ENDBRANCH  18  19
ENDBRANCH  17  18
ENDBRANCH  13  17
ENDBRANCH  11  13
ENDBRANCH   6   9
ENDBRANCH   1   3
BRANCH   1  22
ATOM     22  C   UNK A   0       0.863   0.086  -2.451  0.00  0.00    +0.137 C 
BRANCH  22  25
ATOM     23  C   UNK A   0       0.543   1.507   0.018  0.00  0.00    +0.045 C 
ATOM     24  C   UNK A   0       0.545   0.000   0.010  0.00  0.00    -0.033 A 
ATOM     25  C   UNK A   0       0.698  -0.680  -1.163  0.00  0.00    -0.027 A 
ATOM     26  C   UNK A   0       0.703  -2.071  -1.187  0.00  0.00    +0.007 A 
ATOM     27  C   UNK A   0       0.555  -2.794  -0.040  0.00  0.00    +0.027 A 
ATOM     28  C   UNK A   0       0.396  -2.127   1.182  0.00  0.00    +0.052 A 
ATOM     29  C   UNK A   0       0.397  -0.711   1.205  0.00  0.00    +0.041 A 
ATOM     30  C   UNK A   0       0.240  -0.059   2.453  0.00  0.00    +0.129 A 
ATOM     31  N   UNK A   0       0.105  -0.805   3.539  0.00  0.00    -0.201 NA
ATOM     32  C   UNK A   0       0.115  -2.134   3.474  0.00  0.00    +0.192 A 
ATOM     33  N   UNK A   0       0.246  -2.792   2.338  0.00  0.00    -0.327 N 
ATOM     34  N   UNK A   0      -0.031  -2.856   4.645  0.00  0.00    -0.329 N 
ATOM     35  N   UNK A   0       0.228   1.317   2.535  0.00  0.00    -0.343 N 
ATOM     36  H   UNK A   0      -0.137  -2.392   5.490  0.00  0.00    +0.145 HD
ATOM     37  H   UNK A   0      -0.026  -3.825   4.620  0.00  0.00    +0.145 HD
ATOM     38  H   UNK A   0      -0.414   1.764   3.109  0.00  0.00    +0.144 HD
ATOM     39  H   UNK A   0       0.863   1.839   2.019  0.00  0.00    +0.144 HD
ATOM     40  H   UNK A   0       0.247  -3.761   2.340  0.00  0.00    +0.169 HD
ENDBRANCH  22  25
ENDBRANCH   1  22
TORSDOF 9
