REMARK  Name = ZINC09233487
REMARK  3 active torsions:
REMARK  status: ('A' for Active; 'I' for Inactive)
REMARK    1  A    between atoms: N_9  and  C_12
REMARK    2  A    between atoms: C_12  and  N_13
REMARK    3  A    between atoms: C_14  and  C_16
REMARK                            x       y       z     vdW  Elec       q    Type
REMARK                         _______ _______ _______ _____ _____    ______ ____
ROOT
ATOM      1  C   UNL     1       2.320   5.713   0.010  0.00  0.00    +0.224 C 
ENDROOT
BRANCH   1  10
ATOM      2  C   UNL     1       3.539   7.713   5.625  0.00  0.00    +0.001 A 
ATOM      3  C   UNL     1       2.164   7.700   5.758  0.00  0.00    +0.001 A 
ATOM      4  C   UNL     1       1.359   7.300   4.703  0.00  0.00    +0.014 A 
ATOM      5  C   UNL     1       1.939   6.910   3.507  0.00  0.00    +0.049 A 
ATOM      6  C   UNL     1       3.342   6.922   3.371  0.00  0.00    +0.049 A 
ATOM      7  C   UNL     1       4.134   7.325   4.434  0.00  0.00    +0.014 A 
ATOM      8  C   UNL     1       3.619   6.457   1.996  0.00  0.00    +0.255 C 
ATOM      9  O   UNL     1       4.720   6.331   1.498  0.00  0.00    -0.269 OA
ATOM     10  N   UNL     1       2.449   6.196   1.387  0.00  0.00    -0.218 N 
ATOM     11  C   UNL     1       1.411   6.442   2.208  0.00  0.00    +0.255 C 
ATOM     12  O   UNL     1       0.238   6.301   1.929  0.00  0.00    -0.269 OA
ENDBRANCH   1  10
BRANCH   1  13
ATOM     13  N   UNL     1       2.333   4.248   0.002  0.00  0.00    -0.295 N 
ATOM     14  C   UNL     1       1.171   3.564   0.009  0.00  0.00    +0.245 C 
ATOM     15  O   UNL     1       0.113   4.163   0.022  0.00  0.00    -0.270 OA
ATOM     16  H   UNL     1       3.177   3.771  -0.008  0.00  0.00    +0.151 HD
BRANCH  14  17
ATOM     17  C   UNL     1       1.185   2.086   0.002  0.00  0.00    +0.037 A 
ATOM     18  C   UNL     1      -0.017   1.375   0.010  0.00  0.00    +0.014 A 
ATOM     19  C   UNL     1       0.002  -0.004   0.002  0.00  0.00    +0.016 A 
ATOM     20  C   UNL     1       1.209  -0.683  -0.013  0.00  0.00    +0.018 A 
ATOM     21  C   UNL     1       2.404   0.017  -0.020  0.00  0.00    +0.016 A 
ATOM     22  C   UNL     1       2.398   1.396  -0.013  0.00  0.00    +0.014 A 
ATOM     23 BR   UNL     1       1.226  -2.574  -0.022  0.00  0.00    -0.050 Br
ENDBRANCH  14  17
ENDBRANCH   1  13
TORSDOF 3
