REMARK  Name = ZINC12250351
REMARK  12 active torsions:
REMARK  status: ('A' for Active; 'I' for Inactive)
REMARK    1  A    between atoms: C_1  and  C_2
REMARK    2  A    between atoms: C_7  and  N_8
REMARK    3  A    between atoms: C_9  and  C_11
REMARK    4  A    between atoms: C_12  and  C_38
REMARK    5  A    between atoms: C_14  and  S_25
REMARK    6  A    between atoms: C_15  and  C_23
REMARK    7  A    between atoms: C_16  and  C_18
REMARK    8  A    between atoms: S_25  and  C_26
REMARK    9  A    between atoms: C_26  and  C_27
REMARK   10  A    between atoms: N_29  and  C_30
REMARK   11  A    between atoms: C_33  and  O_36
REMARK   12  A    between atoms: O_36  and  C_37
REMARK                            x       y       z     vdW  Elec       q    Type
REMARK                         _______ _______ _______ _____ _____    ______ ____
ROOT
ATOM      1  C   UNL     1       3.227  -9.177  -0.598  0.00  0.00    +0.047 C 
ATOM      2  C   UNL     1       2.384  -8.385   0.083  0.00  0.00    +0.015 C 
ATOM      3  N   UNL     1       2.831  -7.256   0.713  0.00  0.00    -0.312 N 
ATOM      4  C   UNL     1       4.049  -6.711   0.375  0.00  0.00    +0.080 C 
ATOM      5  C   UNL     1       4.968  -7.446  -0.307  0.00  0.00    +0.072 C 
ATOM      6  C   UNL     1       4.694  -8.872  -0.694  0.00  0.00    +0.134 C 
ATOM      7  C   UNL     1       0.922  -8.745   0.155  0.00  0.00    +0.061 C 
ATOM      8  H   UNL     1       2.216  -6.781   1.492  0.00  0.00    +0.152 HD
ENDROOT
BRANCH   6   9
ATOM      9  C   UNL     1       5.155  -9.093  -2.112  0.00  0.00    +0.118 A 
ATOM     10  C   UNL     1       6.201  -9.849  -2.490  0.00  0.00    +0.045 A 
ATOM     11  C   UNL     1       6.271  -9.776  -3.900  0.00  0.00    +0.041 A 
ATOM     12  C   UNL     1       5.263  -8.979  -4.299  0.00  0.00    +0.195 A 
ATOM     13  O   UNL     1       4.587  -8.572  -3.212  0.00  0.00    -0.467 OA
ENDBRANCH   6   9
BRANCH   1  15
ATOM     14  N   UNL     1       3.566 -11.210  -1.816  0.00  0.00    -0.281 N 
ATOM     15  C   UNL     1       2.720 -10.331  -1.243  0.00  0.00    +0.247 C 
ATOM     16  O   UNL     1       1.519 -10.529  -1.281  0.00  0.00    -0.270 OA
ATOM     17  H   UNL     1       4.646 -11.001  -1.835  0.00  0.00    +0.155 HD
BRANCH  14  24
ATOM     18  C   UNL     1       5.254 -13.500  -1.845  0.00  0.00    +0.045 C 
ATOM     19  C   UNL     1       3.861 -13.529  -2.420  0.00  0.00    -0.029 A 
ATOM     20  C   UNL     1       3.370 -14.690  -2.983  0.00  0.00    +0.005 A 
ATOM     21  C   UNL     1       2.092 -14.717  -3.511  0.00  0.00    +0.000 A 
ATOM     22  C   UNL     1       1.303 -13.582  -3.478  0.00  0.00    +0.002 A 
ATOM     23  C   UNL     1       1.786 -12.420  -2.911  0.00  0.00    +0.023 A 
ATOM     24  C   UNL     1       3.071 -12.387  -2.385  0.00  0.00    +0.037 A 
ENDBRANCH  14  24
ENDBRANCH   1  15
BRANCH   5  25
ATOM     25  C   UNL     1       6.222  -6.851  -0.659  0.00  0.00    +0.098 C 
ATOM     26  N   UNL     1       7.217  -6.379  -0.938  0.00  0.00    -0.191 NA
ENDBRANCH   5  25
BRANCH   4  27
ATOM     27  S   UNL     1       4.418  -5.047   0.823  0.00  0.00    -0.100 S 
BRANCH  27  28
ATOM     28  C   UNL     1       2.880  -4.601   1.666  0.00  0.00    +0.171 C 
BRANCH  28  29
ATOM     29  C   UNL     1       2.968  -3.176   2.151  0.00  0.00    +0.227 C 
ATOM     30  O   UNL     1       3.972  -2.527   1.946  0.00  0.00    -0.275 OA
ATOM     31  N   UNL     1       1.931  -2.624   2.811  0.00  0.00    -0.285 N 
ATOM     32  H   UNL     1       1.051  -3.234   3.061  0.00  0.00    +0.155 HD
BRANCH  31  33
ATOM     33  C   UNL     1       1.975  -1.273   3.179  0.00  0.00    +0.034 A 
ATOM     34  C   UNL     1       2.616  -0.351   2.363  0.00  0.00    +0.027 A 
ATOM     35  C   UNL     1       2.659   0.981   2.726  0.00  0.00    +0.047 A 
ATOM     36  C   UNL     1       2.061   1.397   3.906  0.00  0.00    +0.120 A 
ATOM     37  C   UNL     1       1.420   0.477   4.723  0.00  0.00    +0.047 A 
ATOM     38  C   UNL     1       1.377  -0.855   4.361  0.00  0.00    +0.027 A 
BRANCH  36  39
ATOM     39  O   UNL     1       2.104   2.709   4.264  0.00  0.00    -0.495 OA
ATOM     40  C   UNL     1       1.468   3.067   5.492  0.00  0.00    +0.277 C 
ENDBRANCH  36  39
ENDBRANCH  31  33
ENDBRANCH  28  29
ENDBRANCH  27  28
ENDBRANCH   4  27
TORSDOF 9
