REMARK  Name = ZINC32997674
REMARK  7 active torsions:
REMARK  status: ('A' for Active; 'I' for Inactive)
REMARK    1  A    between atoms: C_1  and  C_2
REMARK    2  A    between atoms: C_2  and  S_3
REMARK    3  A    between atoms: S_3  and  C_4
REMARK    4  A    between atoms: C_12  and  C_32
REMARK    5  A    between atoms: C_14  and  C_31
REMARK    6  A    between atoms: C_17  and  C_20
REMARK    7  A    between atoms: C_28  and  C_30
REMARK                            x       y       z     vdW  Elec       q    Type
REMARK                         _______ _______ _______ _____ _____    ______ ____
ROOT
ATOM      1  C   UNL     1      -0.437  -3.732  -5.516  0.00  0.00    +0.212 A 
ATOM      2  N   UNL     1       0.350  -2.673  -5.349  0.00  0.00    -0.184 NA
ATOM      3  C   UNL     1       0.704  -2.317  -4.126  0.00  0.00    +0.248 A 
ATOM      4  C   UNL     1       0.226  -3.074  -3.033  0.00  0.00    +0.156 A 
ATOM      5  N   UNL     1      -0.553  -4.119  -3.268  0.00  0.00    -0.141 NA
ATOM      6  N   UNL     1      -0.871  -4.433  -4.476  0.00  0.00    -0.122 NA
ATOM      7  C   UNL     1       0.601  -2.688  -1.657  0.00  0.00    +0.029 A 
ATOM      8  C   UNL     1       1.062  -3.623  -0.738  0.00  0.00    +0.015 A 
ATOM      9  C   UNL     1       1.386  -3.224   0.543  0.00  0.00    -0.049 A 
ATOM     10  C   UNL     1       1.252  -1.898   0.919  0.00  0.00    +0.008 A 
ATOM     11  C   UNL     1       0.797  -0.956   0.014  0.00  0.00    -0.028 A 
ATOM     12  C   UNL     1       0.471  -1.340  -1.273  0.00  0.00    +0.052 A 
ATOM     13  N   UNL     1       0.044  -0.407  -2.227  0.00  0.00    -0.230 N 
ATOM     14  C   UNL     1       0.924  -0.086  -3.346  0.00  0.00    +0.307 C 
ATOM     15  O   UNL     1       1.513  -1.254  -3.906  0.00  0.00    -0.448 OA
ATOM     16  C   UNL     1      -1.163   0.183  -2.111  0.00  0.00    +0.220 C 
ATOM     17  O   UNL     1      -1.526   0.988  -2.942  0.00  0.00    -0.275 OA
ATOM     18  C   UNL     1      -2.060  -0.159  -0.950  0.00  0.00    +0.110 C 
ATOM     19  C   UNL     1       0.652   0.484   0.432  0.00  0.00    +0.046 C 
ATOM     20  C   UNL     1       1.889  -4.237   1.538  0.00  0.00    +0.044 C 
ENDROOT
BRANCH  14  21
ATOM     21  C   UNL     1       2.017   0.833  -2.864  0.00  0.00    +0.065 A 
ATOM     22  C   UNL     1       3.074   0.326  -2.129  0.00  0.00    +0.133 A 
ATOM     23  C   UNL     1       4.077   1.171  -1.687  0.00  0.00    +0.039 A 
ATOM     24  C   UNL     1       4.023   2.521  -1.980  0.00  0.00    +0.004 A 
ATOM     25  C   UNL     1       2.967   3.027  -2.713  0.00  0.00    +0.020 A 
ATOM     26  C   UNL     1       1.967   2.183  -3.161  0.00  0.00    +0.052 A 
ATOM     27 CL   UNL     1       0.645   2.819  -4.090  0.00  0.00    -0.083 Cl
ATOM     28  F   UNL     1       3.127  -0.994  -1.843  0.00  0.00    -0.205 F 
ENDBRANCH  14  21
BRANCH   1  29
ATOM     29  S   UNL     1      -0.912  -4.211  -7.144  0.00  0.00    -0.085 S 
BRANCH  29  31
ATOM     30  C   UNL     1      -2.476  -6.255  -8.060  0.00  0.00    +0.016 C 
ATOM     31  C   UNL     1      -1.937  -5.653  -6.761  0.00  0.00    +0.074 C 
ENDBRANCH  29  31
ENDBRANCH   1  29
TORSDOF 3
