REMARK  Name = ZINC03978263
REMARK  7 active torsions:
REMARK  status: ('A' for Active; 'I' for Inactive)
REMARK    1  A    between atoms: C_1  and  C_2
REMARK    2  A    between atoms: C_7  and  C_38
REMARK    3  A    between atoms: C_13  and  C_28
REMARK    4  A    between atoms: C_21  and  C_23
REMARK    5  A    between atoms: C_29  and  C_36
REMARK    6  A    between atoms: C_29  and  C_37
REMARK    7  A    between atoms: C_30  and  O_35
REMARK                            x       y       z     vdW  Elec       q    Type
REMARK                         _______ _______ _______ _____ _____    ______ ____
ROOT
ATOM      1  C   UNL     1       0.232   1.559   0.678  0.00  0.00    +0.018 C 
ATOM      2  C   UNL     1       0.320   0.039   0.848  0.00  0.00    +0.042 C 
ATOM      3  C   UNL     1       0.549  -0.599  -0.503  0.00  0.00    +0.014 C 
ATOM      4  C   UNL     1       2.022  -0.808  -0.864  0.00  0.00    +0.006 C 
ATOM      5  C   UNL     1       2.908   0.110  -0.048  0.00  0.00    +0.018 C 
ATOM      6  C   UNL     1       4.312   0.307  -0.599  0.00  0.00    +0.034 C 
ATOM      7  C   UNL     1       5.042   1.331   0.269  0.00  0.00    +0.018 C 
ATOM      8  C   UNL     1       5.142   0.846   1.714  0.00  0.00    +0.080 C 
ATOM      9  C   UNL     1       3.709   0.671   2.211  0.00  0.00    +0.143 C 
ATOM     10  O   UNL     1       3.310   1.275   3.168  0.00  0.00    -0.297 OA
ATOM     11  C   UNL     1       2.852  -0.287   1.422  0.00  0.00    +0.062 C 
ATOM     12  C   UNL     1       1.392  -0.286   1.880  0.00  0.00    +0.128 C 
ATOM     13  C   UNL     1       1.018  -0.079   3.342  0.00  0.00    +0.260 C 
ATOM     14  O   UNL     1       1.099  -1.394   2.766  0.00  0.00    -0.351 OA
ATOM     15  C   UNL     1      -0.412   0.353   3.624  0.00  0.00    +0.340 C 
ATOM     16  O   UNL     1      -0.731   0.712   4.733  0.00  0.00    -0.248 OA
ATOM     17  O   UNL     1      -1.310   0.327   2.636  0.00  0.00    -0.454 OA
ATOM     18  C   UNL     1      -1.044  -0.356   1.422  0.00  0.00    +0.218 C 
ATOM     19  C   UNL     1       3.370  -1.716   1.675  0.00  0.00    +0.022 C 
ATOM     20  C   UNL     1       6.345   1.855  -0.285  0.00  0.00    -0.004 C 
ATOM     21  C   UNL     1       6.232   2.330  -1.734  0.00  0.00    +0.128 C 
ATOM     22  C   UNL     1       5.529   1.317  -2.632  0.00  0.00    +0.106 C 
ATOM     23  C   UNL     1       4.216   0.929  -1.987  0.00  0.00    +0.142 C 
ATOM     24  O   UNL     1       3.163   1.111  -2.530  0.00  0.00    -0.297 OA
ATOM     25  C   UNL     1       6.746   3.104   0.542  0.00  0.00    +0.014 C 
ATOM     26  C   UNL     1       7.492   0.854  -0.152  0.00  0.00    +0.014 C 
ATOM     27  C   UNL     1       5.059  -1.012  -0.741  0.00  0.00    +0.020 C 
ENDROOT
BRANCH  18  28
ATOM     28  C   UNL     1      -2.109   0.003   0.418  0.00  0.00    +0.031 A 
ATOM     29  C   UNL     1      -2.749  -0.879  -0.482  0.00  0.00    +0.048 A 
ATOM     30  C   UNL     1      -3.627  -0.145  -1.190  0.00  0.00    +0.195 A 
ATOM     31  O   UNL     1      -3.552   1.128  -0.768  0.00  0.00    -0.471 OA
ATOM     32  C   UNL     1      -2.637   1.223   0.210  0.00  0.00    +0.202 A 
ENDBRANCH  18  28
BRANCH  21  33
ATOM     33  O   UNL     1       5.517   3.571  -1.767  0.00  0.00    -0.391 OA
ATOM     34  H   UNL     1       5.405   3.936  -2.656  0.00  0.00    +0.210 HD
ENDBRANCH  21  33
TORSDOF 2
