REMARK  Name = ZINC35379842
REMARK  6 active torsions:
REMARK  status: ('A' for Active; 'I' for Inactive)
REMARK    1  A    between atoms: C_1  and  O_2
REMARK    2  A    between atoms: O_2  and  C_3
REMARK    3  A    between atoms: C_4  and  C_11
REMARK    4  A    between atoms: C_11  and  C_13
REMARK    5  A    between atoms: C_11  and  N_21
REMARK    6  A    between atoms: C_16  and  N_18
REMARK                            x       y       z     vdW  Elec       q    Type
REMARK                         _______ _______ _______ _____ _____    ______ ____
ROOT
ATOM      1  C   UNL     1       2.716  -0.544  -0.515  0.00  0.00    +0.027 C 
ENDROOT
BRANCH   1   3
ATOM      2  C   UNL     1       0.984  -1.845   0.746  0.00  0.00    +0.136 A 
ATOM      3  C   UNL     1       1.869  -0.778   0.709  0.00  0.00    -0.011 A 
ATOM      4  C   UNL     1       1.975   0.069   1.795  0.00  0.00    +0.026 A 
ATOM      5  C   UNL     1       1.198  -0.146   2.920  0.00  0.00    +0.042 A 
ATOM      6  C   UNL     1       0.314  -1.210   2.960  0.00  0.00    +0.039 A 
ATOM      7  C   UNL     1       0.202  -2.057   1.873  0.00  0.00    +0.061 A 
ATOM      8 BR   UNL     1      -1.012  -3.506   1.924  0.00  0.00    -0.046 Br
ATOM      9 CL   UNL     1       1.334   0.919   4.284  0.00  0.00    -0.083 Cl
BRANCH   2  11
ATOM     10  C   UNL     1      -0.111  -2.358  -1.301  0.00  0.00    +0.277 C 
ATOM     11  O   UNL     1       0.878  -2.680  -0.322  0.00  0.00    -0.494 OA
ENDBRANCH   2  11
ENDBRANCH   1   3
BRANCH   1  12
ATOM     12  C   UNL     1       3.273   0.856  -0.480  0.00  0.00    +0.098 A 
ATOM     13  C   UNL     1       2.754   1.925  -1.110  0.00  0.00    +0.046 A 
ATOM     14  C   UNL     1       3.588   3.025  -0.807  0.00  0.00    +0.075 A 
ATOM     15  C   UNL     1       4.567   2.562  -0.009  0.00  0.00    +0.280 A 
ATOM     16  O   UNL     1       4.368   1.249   0.190  0.00  0.00    -0.440 OA
BRANCH  15  17
ATOM     17  N   UNL     1       5.674   3.366   0.558  0.00  0.00    +0.093 N 
ATOM     18  O   UNL     1       5.750   4.548   0.314  0.00  0.00    -0.123 OA
ATOM     19  O   UNL     1       6.501   2.841   1.266  0.00  0.00    -0.123 OA
ENDBRANCH  15  17
ENDBRANCH   1  12
BRANCH   1  20
ATOM     20  N   UNL     1       3.823  -1.510  -0.538  0.00  0.00    +0.387 N 
ATOM     21  H   UNL     1       4.388  -1.394   0.290  0.00  0.00    -0.089 HD
ATOM     22  H   UNL     1       3.450  -2.448  -0.561  0.00  0.00    -0.089 HD
ATOM     23  H   UNL     1       4.390  -1.353  -1.357  0.00  0.00    -0.089 HD
ENDBRANCH   1  20
TORSDOF 5
