REMARK  Name = ZINC22930467
REMARK  8 active torsions:
REMARK  status: ('A' for Active; 'I' for Inactive)
REMARK    1  A    between atoms: C_1  and  C_2
REMARK    2  A    between atoms: C_2  and  C_4
REMARK    3  A    between atoms: C_2  and  N_19
REMARK    4  A    between atoms: C_6  and  C_9
REMARK    5  A    between atoms: C_13  and  C_15
REMARK    6  A    between atoms: N_22  and  C_25
REMARK    7  A    between atoms: C_25  and  C_26
REMARK    8  A    between atoms: N_28  and  C_29
REMARK                            x       y       z     vdW  Elec       q    Type
REMARK                         _______ _______ _______ _____ _____    ______ ____
ROOT
ATOM      1  N   UNL     1      -1.381  -0.507   0.015  0.00  0.00    +0.389 N 
ATOM      2  C   UNL     1      -2.063  -0.037   1.228  0.00  0.00    -0.062 C 
ATOM      3  C   UNL     1      -3.505  -0.551   1.234  0.00  0.00    +0.066 C 
ATOM      4  N   UNL     1      -3.499  -2.020   1.191  0.00  0.00    -0.298 NA
ATOM      5  C   UNL     1      -2.797  -2.505  -0.006  0.00  0.00    +0.066 C 
ATOM      6  C   UNL     1      -1.361  -1.975  -0.001  0.00  0.00    -0.062 C 
ATOM      7  H   UNL     1      -1.872  -0.168  -0.799  0.00  0.00    -0.081 HD
ENDROOT
BRANCH   1   9
ATOM      8  C   UNL     1      -0.022   1.531   0.018  0.00  0.00    -0.003 C 
ATOM      9  C   UNL     1      -0.003   0.001   0.001  0.00  0.00    +0.019 C 
BRANCH   9  10
ATOM     10  C   UNL     1       0.697  -0.478  -1.244  0.00  0.00    +0.214 A 
ATOM     11  N   UNL     1       1.899  -0.979  -1.298  0.00  0.00    -0.193 NA
ATOM     12  C   UNL     1       2.207  -1.302  -2.566  0.00  0.00    +0.202 A 
ATOM     13  N   UNL     1       1.188  -1.004  -3.334  0.00  0.00    -0.056 NA
ATOM     14  O   UNL     1       0.186  -0.468  -2.482  0.00  0.00    -0.339 OA
BRANCH  12  15
ATOM     15  C   UNL     1       3.489  -1.897  -3.021  0.00  0.00    +0.023 A 
ATOM     16  C   UNL     1       4.497  -2.172  -2.100  0.00  0.00    +0.012 A 
ATOM     17  C   UNL     1       5.687  -2.725  -2.529  0.00  0.00    +0.001 A 
ATOM     18  C   UNL     1       5.879  -3.006  -3.869  0.00  0.00    +0.012 A 
ATOM     19  C   UNL     1       4.881  -2.735  -4.788  0.00  0.00    +0.055 A 
ATOM     20  C   UNL     1       3.685  -2.187  -4.370  0.00  0.00    +0.024 A 
BRANCH  19  21
ATOM     21  C   UNL     1       5.098  -3.043  -6.247  0.00  0.00    +0.417 C 
ATOM     22  F   UNL     1       6.372  -3.592  -6.423  0.00  0.00    -0.166 F 
ATOM     23  F   UNL     1       4.132  -3.958  -6.678  0.00  0.00    -0.166 F 
ATOM     24  F   UNL     1       4.990  -1.865  -6.994  0.00  0.00    -0.166 F 
ENDBRANCH  19  21
ENDBRANCH  12  15
ENDBRANCH   9  10
ENDBRANCH   1   9
BRANCH   4  25
ATOM     25  C   UNL     1      -4.866  -2.554   1.252  0.00  0.00    +0.180 C 
BRANCH  25  26
ATOM     26  C   UNL     1      -4.814  -4.046   1.454  0.00  0.00    +0.231 C 
ATOM     27  O   UNL     1      -3.743  -4.610   1.538  0.00  0.00    -0.274 OA
ATOM     28  N   UNL     1      -5.957  -4.755   1.540  0.00  0.00    -0.284 N 
ATOM     29  H   UNL     1      -6.812  -4.297   1.540  0.00  0.00    +0.155 HD
BRANCH  28  30
ATOM     30  C   UNL     1      -5.910  -6.152   1.630  0.00  0.00    +0.034 A 
ATOM     31  C   UNL     1      -4.883  -6.769   2.331  0.00  0.00    +0.026 A 
ATOM     32  C   UNL     1      -4.838  -8.146   2.418  0.00  0.00    +0.040 A 
ATOM     33  C   UNL     1      -5.816  -8.912   1.806  0.00  0.00    +0.124 A 
ATOM     34  C   UNL     1      -6.842  -8.298   1.107  0.00  0.00    +0.040 A 
ATOM     35  C   UNL     1      -6.893  -6.921   1.022  0.00  0.00    +0.026 A 
ATOM     36  F   UNL     1      -5.771 -10.259   1.892  0.00  0.00    -0.205 F 
ENDBRANCH  28  30
ENDBRANCH  25  26
ENDBRANCH   4  25
TORSDOF 7
