REMARK  Name = ZINC11719922
REMARK  8 active torsions:
REMARK  status: ('A' for Active; 'I' for Inactive)
REMARK    1  A    between atoms: C_1  and  C_2
REMARK    2  A    between atoms: C_2  and  C_4
REMARK    3  A    between atoms: C_2  and  N_52
REMARK    4  A    between atoms: N_6  and  C_7
REMARK    5  A    between atoms: C_12  and  C_13
REMARK    6  A    between atoms: C_20  and  N_23
REMARK    7  A    between atoms: N_23  and  S_24
REMARK    8  A    between atoms: S_24  and  C_27
REMARK                            x       y       z     vdW  Elec       q    Type
REMARK                         _______ _______ _______ _____ _____    ______ ____
ROOT
ATOM      1  C   UNL     1       0.911   1.622  -0.145  0.00  0.00    -0.004 C 
ATOM      2  C   UNL     1       2.331   1.055  -0.084  0.00  0.00    +0.016 C 
ENDROOT
BRANCH   2   8
ATOM      3  C   UNL     1       3.019   3.177   0.856  0.00  0.00    -0.076 C 
ATOM      4  C   UNL     1       3.955   4.370   0.655  0.00  0.00    +0.002 C 
ATOM      5  C   UNL     1       5.407   3.899   0.769  0.00  0.00    +0.073 C 
ATOM      6  C   UNL     1       5.662   2.801  -0.268  0.00  0.00    +0.002 C 
ATOM      7  C   UNL     1       4.676   1.653  -0.040  0.00  0.00    -0.076 C 
ATOM      8  N   UNL     1       3.298   2.167  -0.187  0.00  0.00    +0.387 N 
ATOM      9  H   UNL     1       3.203   2.607  -1.110  0.00  0.00    -0.081 HD
BRANCH   5  10
ATOM     10  N   UNL     1       6.309   5.026   0.519  0.00  0.00    -0.187 NA
ATOM     11  H   UNL     1       6.550   5.262  -0.390  0.00  0.00    +0.148 HD
BRANCH  10  12
ATOM     12  S   UNL     1       6.916   5.898   1.790  0.00  0.00    +0.065 S 
ATOM     13  O   UNL     1       7.766   6.891   1.232  0.00  0.00    -0.153 OA
ATOM     14  O   UNL     1       5.813   6.221   2.625  0.00  0.00    -0.153 OA
BRANCH  12  15
ATOM     15  C   UNL     1       7.950   4.814   2.718  0.00  0.00    +0.142 A 
ATOM     16  C   UNL     1       9.276   4.572   2.579  0.00  0.00    +0.036 A 
ATOM     17  C   UNL     1       9.886   3.671   3.431  0.00  0.00    +0.010 A 
ATOM     18  C   UNL     1       9.140   3.056   4.381  0.00  0.00    +0.047 A 
ATOM     19  S   UNL     1       7.524   3.756   4.091  0.00  0.00    -0.077 S 
ENDBRANCH  12  15
ENDBRANCH  10  12
ENDBRANCH   5  10
ENDBRANCH   2   8
BRANCH   2  20
ATOM     20  C   UNL     1       2.546   0.114  -1.242  0.00  0.00    +0.203 C 
ATOM     21  O   UNL     1       3.029   0.525  -2.276  0.00  0.00    -0.277 OA
ATOM     22  N   UNL     1       2.202  -1.184  -1.128  0.00  0.00    -0.286 N 
ATOM     23  H   UNL     1       1.886  -1.530  -0.279  0.00  0.00    +0.155 HD
BRANCH  22  24
ATOM     24  C   UNL     1       2.308  -2.035  -2.234  0.00  0.00    +0.045 A 
ATOM     25  C   UNL     1       2.341  -1.507  -3.518  0.00  0.00    +0.025 A 
ATOM     26  C   UNL     1       2.445  -2.349  -4.608  0.00  0.00    +0.022 A 
ATOM     27  C   UNL     1       2.517  -3.718  -4.421  0.00  0.00    +0.042 A 
ATOM     28  C   UNL     1       2.483  -4.247  -3.143  0.00  0.00    +0.034 A 
ATOM     29  C   UNL     1       2.385  -3.409  -2.050  0.00  0.00    +0.077 A 
ATOM     30 CL   UNL     1       2.648  -4.774  -5.793  0.00  0.00    -0.084 Cl
BRANCH  29  31
ATOM     31  C   UNL     1       2.356  -3.986  -0.658  0.00  0.00    +0.419 C 
ATOM     32  F   UNL     1       2.447  -5.380  -0.729  0.00  0.00    -0.166 F 
ATOM     33  F   UNL     1       3.436  -3.485   0.077  0.00  0.00    -0.166 F 
ATOM     34  F   UNL     1       1.159  -3.628  -0.030  0.00  0.00    -0.166 F 
ENDBRANCH  29  31
ENDBRANCH  22  24
ENDBRANCH   2  20
TORSDOF 7
