REMARK  Name = ZINC43743094
REMARK  16 active torsions:
REMARK  status: ('A' for Active; 'I' for Inactive)
REMARK    1  A    between atoms: C_1  and  C_2
REMARK    2  A    between atoms: C_13  and  C_22
REMARK    3  A    between atoms: C_15  and  O_21
REMARK    4  A    between atoms: C_17  and  O_20
REMARK    5  A    between atoms: C_23  and  O_40
REMARK    6  A    between atoms: C_26  and  C_28
REMARK    7  A    between atoms: C_28  and  C_29
REMARK    8  A    between atoms: C_28  and  C_30
REMARK    9  A    between atoms: C_28  and  O_39
REMARK   10  A    between atoms: C_30  and  C_32
REMARK   11  A    between atoms: C_30  and  O_38
REMARK   12  A    between atoms: C_32  and  C_33
REMARK   13  A    between atoms: C_33  and  C_34
REMARK   14  A    between atoms: C_34  and  C_35
REMARK   15  A    between atoms: C_34  and  C_36
REMARK   16  A    between atoms: C_34  and  O_37
REMARK                            x       y       z     vdW  Elec       q    Type
REMARK                         _______ _______ _______ _____ _____    ______ ____
ROOT
ATOM      1  C   UNL     1      -0.303   1.758  -1.115  0.00  0.00    +0.015 C 
ATOM      2  C   UNL     1      -0.010   0.269  -0.918  0.00  0.00    +0.006 C 
ATOM      3  C   UNL     1       0.931  -0.209  -2.001  0.00  0.00    +0.011 C 
ATOM      4  C   UNL     1       2.105   0.781  -2.054  0.00  0.00    +0.009 C 
ATOM      5  C   UNL     1       2.832   0.886  -0.714  0.00  0.00    +0.025 C 
ATOM      6  C   UNL     1       1.873   1.035   0.438  0.00  0.00    -0.031 C 
ATOM      7  C   UNL     1       2.029   1.915   1.421  0.00  0.00    +0.049 C 
ATOM      8  C   UNL     1       3.195   2.807   1.434  0.00  0.00    +0.160 C 
ATOM      9  O   UNL     1       3.204   3.836   2.076  0.00  0.00    -0.292 OA
ATOM     10  C   UNL     1       4.386   2.372   0.604  0.00  0.00    +0.069 C 
ATOM     11  C   UNL     1       3.849   2.012  -0.775  0.00  0.00    -0.013 C 
ATOM     12  C   UNL     1       5.025   1.619  -1.670  0.00  0.00    +0.041 C 
ATOM     13  C   UNL     1       5.991   2.801  -1.786  0.00  0.00    +0.144 C 
ATOM     14  C   UNL     1       6.506   3.179  -0.396  0.00  0.00    +0.144 C 
ATOM     15  C   UNL     1       5.375   3.534   0.495  0.00  0.00    +0.046 C 
ATOM     16  C   UNL     1       3.181   3.241  -1.394  0.00  0.00    +0.012 C 
ATOM     17  C   UNL     1       0.712   0.059   0.443  0.00  0.00    +0.093 C 
ATOM     18  C   UNL     1      -0.424   0.339   1.430  0.00  0.00    +0.040 C 
ATOM     19  C   UNL     1      -1.632  -0.390   0.778  0.00  0.00    +0.010 C 
ATOM     20  C   UNL     1      -1.317  -0.487  -0.738  0.00  0.00    +0.032 C 
ENDROOT
BRANCH  14  21
ATOM     21  O   UNL     1       7.406   4.284  -0.506  0.00  0.00    -0.389 OA
ATOM     22  H   UNL     1       8.179   4.108  -1.059  0.00  0.00    +0.210 HD
ENDBRANCH  14  21
BRANCH  13  23
ATOM     23  O   UNL     1       5.309   3.919  -2.360  0.00  0.00    -0.389 OA
ATOM     24  H   UNL     1       5.861   4.706  -2.463  0.00  0.00    +0.210 HD
ENDBRANCH  13  23
BRANCH  20  25
ATOM     25  C   UNL     1      -2.430   0.173  -1.555  0.00  0.00    +0.092 C 
ATOM     26  C   UNL     1      -2.018   0.227  -3.027  0.00  0.00    +0.044 C 
BRANCH  25  27
ATOM     27  O   UNL     1      -2.652   1.500  -1.073  0.00  0.00    -0.386 OA
ATOM     28  H   UNL     1      -2.917   1.542  -0.144  0.00  0.00    +0.210 HD
ENDBRANCH  25  27
BRANCH  25  29
ATOM     29  C   UNL     1      -3.717  -0.642  -1.415  0.00  0.00    +0.146 C 
BRANCH  29  30
ATOM     30  O   UNL     1      -4.102  -0.693  -0.040  0.00  0.00    -0.389 OA
ATOM     31  H   UNL     1      -4.270   0.175   0.354  0.00  0.00    +0.210 HD
ENDBRANCH  29  30
BRANCH  29  32
ATOM     32  C   UNL     1      -4.830   0.018  -2.233  0.00  0.00    +0.037 C 
BRANCH  32  33
ATOM     33  C   UNL     1      -6.081  -0.862  -2.195  0.00  0.00    +0.037 C 
BRANCH  33  34
ATOM     34  C   UNL     1      -7.193  -0.203  -3.012  0.00  0.00    +0.061 C 
ATOM     35  C   UNL     1      -8.480  -1.018  -2.873  0.00  0.00    +0.041 C 
ATOM     36  C   UNL     1      -7.431   1.218  -2.496  0.00  0.00    +0.041 C 
BRANCH  34  37
ATOM     37  O   UNL     1      -6.808  -0.152  -4.387  0.00  0.00    -0.389 OA
ATOM     38  H   UNL     1      -6.641  -1.019  -4.781  0.00  0.00    +0.210 HD
ENDBRANCH  34  37
ENDBRANCH  33  34
ENDBRANCH  32  33
ENDBRANCH  29  32
ENDBRANCH  25  29
ENDBRANCH  20  25
BRANCH  17  39
ATOM     39  O   UNL     1       1.186  -1.284   0.562  0.00  0.00    -0.384 OA
ATOM     40  H   UNL     1       1.644  -1.467   1.393  0.00  0.00    +0.211 HD
ENDBRANCH  17  39
TORSDOF 11
