REMARK  Name = ZINC40158222
REMARK  9 active torsions:
REMARK  status: ('A' for Active; 'I' for Inactive)
REMARK    1  A    between atoms: C_1  and  C_2
REMARK    2  A    between atoms: C_2  and  C_3
REMARK    3  A    between atoms: C_2  and  C_4
REMARK    4  A    between atoms: C_2  and  C_28
REMARK    5  A    between atoms: C_4  and  N_5
REMARK    6  A    between atoms: C_6  and  C_8
REMARK    7  A    between atoms: C_28  and  N_29
REMARK    8  A    between atoms: N_29  and  C_30
REMARK    9  A    between atoms: N_29  and  C_31
REMARK                            x       y       z     vdW  Elec       q    Type
REMARK                         _______ _______ _______ _____ _____    ______ ____
ROOT
ATOM      1  C   UNL     1      -3.037   2.593   2.116  0.00  0.00    +0.078 C 
ATOM      2  C   UNL     1      -2.024   2.396   3.247  0.00  0.00    +0.031 C 
ATOM      3  C   UNL     1      -2.207   3.504   4.289  0.00  0.00    +0.107 C 
ATOM      4  N   UNL     1      -3.609   3.513   4.729  0.00  0.00    -0.315 N 
ATOM      5  C   UNL     1      -4.667   3.607   3.714  0.00  0.00    +0.107 C 
ATOM      6  C   UNL     1      -4.457   2.498   2.679  0.00  0.00    +0.031 C 
ATOM      7  C   UNL     1      -3.926   3.434   6.073  0.00  0.00    +0.133 A 
ATOM      8  C   UNL     1      -4.181   4.615   6.825  0.00  0.00    +0.051 A 
ATOM      9  C   UNL     1      -4.161   6.010   6.369  0.00  0.00    -0.025 A 
ATOM     10  C   UNL     1      -4.438   6.952   7.292  0.00  0.00    -0.004 A 
ATOM     11  S   UNL     1      -4.747   6.058   8.793  0.00  0.00    -0.073 S 
ATOM     12  C   UNL     1      -4.495   4.413   8.182  0.00  0.00    +0.114 A 
ATOM     13  N   UNL     1      -4.544   3.204   8.706  0.00  0.00    -0.228 NA
ATOM     14  C   UNL     1      -4.298   2.145   7.959  0.00  0.00    +0.224 A 
ATOM     15  N   UNL     1      -4.002   2.259   6.677  0.00  0.00    -0.220 NA
ATOM     16  C   UNL     1      -4.468   8.438   7.107  0.00  0.00    +0.043 C 
ATOM     17  C   UNL     1      -5.308   8.777   5.869  0.00  0.00    +0.005 C 
ATOM     18  C   UNL     1      -4.386   8.795   4.653  0.00  0.00    +0.001 C 
ATOM     19  C   UNL     1      -3.272   7.765   4.828  0.00  0.00    +0.005 C 
ATOM     20  C   UNL     1      -3.852   6.359   4.916  0.00  0.00    +0.037 C 
ENDROOT
BRANCH   1  22
ATOM     21  N   UNL     1      -1.654   1.416   0.437  0.00  0.00    -0.315 N 
ATOM     22  C   UNL     1      -2.838   1.524   1.073  0.00  0.00    +0.216 C 
ATOM     23  O   UNL     1      -3.742   0.762   0.805  0.00  0.00    -0.276 OA
ATOM     24  H   UNL     1      -0.931   2.025   0.651  0.00  0.00    +0.149 HD
BRANCH  21  25
ATOM     25  C   UNL     1      -1.461   0.377  -0.578  0.00  0.00    +0.108 C 
BRANCH  25  27
ATOM     26  C   UNL     1       0.166   1.849  -1.774  0.00  0.00    +0.010 C 
ATOM     27  C   UNL     1      -0.041   0.472  -1.141  0.00  0.00    -0.034 C 
ATOM     28  C   UNL     1       0.970   0.274  -0.009  0.00  0.00    +0.010 C 
BRANCH  27  29
ATOM     29  C   UNL     1       0.161  -0.613  -2.200  0.00  0.00    -0.072 C 
BRANCH  29  30
ATOM     30  N   UNL     1       1.552  -0.583  -2.672  0.00  0.00    +0.376 N 
ATOM     31  C   UNL     1       2.386  -1.411  -1.790  0.00  0.00    -0.097 C 
ATOM     32  C   UNL     1       1.616  -1.110  -4.042  0.00  0.00    -0.097 C 
ATOM     33  H   UNL     1       1.891   0.367  -2.661  0.00  0.00    -0.083 HD
ENDBRANCH  29  30
ENDBRANCH  27  29
ENDBRANCH  25  27
ENDBRANCH  21  25
ENDBRANCH   1  22
TORSDOF 5
