REMARK  Name = ZINC44465408
REMARK  13 active torsions:
REMARK  status: ('A' for Active; 'I' for Inactive)
REMARK    1  A    between atoms: C_1  and  C_2
REMARK    2  A    between atoms: C_2  and  O_3
REMARK    3  A    between atoms: O_3  and  C_4
REMARK    4  A    between atoms: C_4  and  C_6
REMARK    5  A    between atoms: C_7  and  S_21
REMARK    6  A    between atoms: C_12  and  C_20
REMARK    7  A    between atoms: C_13  and  C_14
REMARK    8  A    between atoms: C_14  and  CA_15
REMARK    9  A    between atoms: CA_15  and  C_17
REMARK   10  A    between atoms: CA_15  and  N_19
REMARK   11  A    between atoms: C_17  and  O_18
REMARK   12  A    between atoms: S_21  and  C_22
REMARK   13  A    between atoms: C_22  and  C_23
REMARK                            x       y       z     vdW  Elec       q    Type
REMARK                         _______ _______ _______ _____ _____    ______ ____
ROOT
ATOM      1  C   UNL     1      -2.790  -2.395   0.016  0.00  0.00    +0.170 A 
ATOM      2  C   UNL     1      -2.963  -3.768   0.016  0.00  0.00    +0.080 A 
ATOM      3  S   UNL     1      -4.742  -3.913   0.029  0.00  0.00    -0.060 S 
ATOM      4  C   UNL     1      -5.133  -2.181   0.034  0.00  0.00    +0.109 A 
ATOM      5  N   UNL     1      -3.913  -1.570   0.031  0.00  0.00    -0.217 N 
ATOM      6  N   UNL     1      -4.187  -0.178   0.042  0.00  0.00    -0.170 NA
ATOM      7  C   UNL     1      -5.482   0.004   0.055  0.00  0.00    +0.065 A 
ATOM      8  C   UNL     1      -6.105  -1.243   0.042  0.00  0.00    +0.006 A 
ATOM      9  C   UNL     1      -6.183   1.339   0.070  0.00  0.00    +0.068 C 
ENDROOT
BRANCH   1  10
ATOM     10  C   UNL     1      -1.497  -1.840   0.006  0.00  0.00    +0.359 C 
ATOM     11  O   UNL     1      -0.521  -2.569  -0.007  0.00  0.00    -0.243 OA
BRANCH  10  12
ATOM     12  O   UNL     1      -1.339  -0.499   0.012  0.00  0.00    -0.460 OA
BRANCH  12  14
ATOM     13  C   UNL     1      -0.019   1.526   0.010  0.00  0.00    +0.048 C 
ATOM     14  C   UNL     1       0.002  -0.004   0.002  0.00  0.00    +0.229 C 
ENDBRANCH  12  14
ENDBRANCH  10  12
ENDBRANCH   1  10
BRANCH   8  15
ATOM     15  C   UNL     1      -7.590  -1.498   0.052  0.00  0.00    +0.025 C 
BRANCH  15  16
ATOM     16  CA  UNL     1      -8.083  -1.586   1.498  0.00  0.00    -0.045 C 
BRANCH  16  17
ATOM     17  N   UNL     1      -7.483  -2.758   2.149  0.00  0.00    +0.382 N 
ATOM     18  H1  UNL     1      -6.478  -2.670   2.141  0.00  0.00    -0.090 HD
ATOM     19  H2  UNL     1      -7.807  -2.817   3.103  0.00  0.00    -0.090 HD
ATOM     20  H3  UNL     1      -7.751  -3.594   1.651  0.00  0.00    -0.090 HD
ENDBRANCH  16  17
BRANCH  16  21
ATOM     21  C   UNL     1      -9.607  -1.720   1.511  0.00  0.00    +0.140 C 
BRANCH  21  22
ATOM     22  O   UNL     1     -10.077  -1.685   2.860  0.00  0.00    -0.397 OA
ATOM     23  H   UNL     1     -11.037  -1.766   2.944  0.00  0.00    +0.209 HD
ENDBRANCH  21  22
ENDBRANCH  16  21
ENDBRANCH  15  16
ENDBRANCH   8  15
BRANCH   2  24
ATOM     24  S   UNL     1      -1.744  -5.041   0.004  0.00  0.00    -0.111 S 
BRANCH  24  25
ATOM     25  C   UNL     1      -2.713  -6.575   0.011  0.00  0.00    +0.110 C 
BRANCH  25  26
ATOM     26  C   UNL     1      -1.779  -7.758   0.002  0.00  0.00    -0.037 A 
ATOM     27  C   UNL     1      -1.357  -8.296  -1.199  0.00  0.00    +0.004 A 
ATOM     28  C   UNL     1      -0.500  -9.381  -1.207  0.00  0.00    +0.000 A 
ATOM     29  C   UNL     1      -0.067  -9.928  -0.014  0.00  0.00    +0.000 A 
ATOM     30  C   UNL     1      -0.489  -9.390   1.187  0.00  0.00    +0.000 A 
ATOM     31  C   UNL     1      -1.341  -8.302   1.195  0.00  0.00    +0.004 A 
ENDBRANCH  25  26
ENDBRANCH  24  25
ENDBRANCH   2  24
TORSDOF 11
