REMARK  Name = ZINC02431967
REMARK  9 active torsions:
REMARK  status: ('A' for Active; 'I' for Inactive)
REMARK    1  A    between atoms: C_1  and  C_2
REMARK    2  A    between atoms: C_2  and  O_3
REMARK    3  A    between atoms: O_3  and  C_4
REMARK    4  A    between atoms: C_10  and  C_29
REMARK    5  A    between atoms: N_17  and  C_18
REMARK    6  A    between atoms: C_18  and  N_20
REMARK    7  A    between atoms: N_20  and  C_21
REMARK    8  A    between atoms: C_24  and  C_28
REMARK    9  A    between atoms: C_25  and  C_27
REMARK                            x       y       z     vdW  Elec       q    Type
REMARK                         _______ _______ _______ _____ _____    ______ ____
ROOT
ATOM      1  C   UNL     1      -1.980   2.256   0.647  0.00  0.00    +0.121 A 
ATOM      2  C   UNL     1      -1.730   3.604   0.376  0.00  0.00    +0.048 A 
ATOM      3  C   UNL     1      -0.464   4.104   0.411  0.00  0.00    +0.032 A 
ATOM      4  C   UNL     1       0.609   3.256   0.727  0.00  0.00    +0.077 A 
ATOM      5  C   UNL     1       0.355   1.888   1.006  0.00  0.00    +0.025 A 
ATOM      6  C   UNL     1      -0.959   1.404   0.963  0.00  0.00    +0.057 A 
ATOM      7  C   UNL     1       1.447   1.057   1.319  0.00  0.00    +0.051 A 
ATOM      8  N   UNL     1       2.653   1.585   1.340  0.00  0.00    -0.217 NA
ATOM      9  C   UNL     1       2.854   2.874   1.073  0.00  0.00    +0.231 A 
ATOM     10  N   UNL     1       1.871   3.700   0.773  0.00  0.00    -0.212 NA
ATOM     11  N   UNL     1       4.150   3.368   1.112  0.00  0.00    -0.298 N 
ATOM     12  C   UNL     1       4.389   4.697   0.840  0.00  0.00    +0.172 C 
ATOM     13  H   UNL     1       3.474   6.412   0.236  0.00  0.00    +0.158 HD
ATOM     14  N   UNL     1       5.678   5.188   0.878  0.00  0.00    -0.269 N 
ATOM     15  C   UNL     1       1.240  -0.404   1.625  0.00  0.00    +0.066 C 
ATOM     16  H   UNL     1       4.887   2.777   1.330  0.00  0.00    +0.171 HD
ATOM     17  H   UNL     1       6.425   4.609   0.661  0.00  0.00    +0.157 HD
ATOM     18  N   UNL     1       3.340   5.453   0.557  0.00  0.00    -0.373 N 
ATOM     19  H   UNL     1       2.391   5.074   0.662  0.00  0.00    +0.158 HD
ENDROOT
BRANCH  14  20
ATOM     20  C   UNL     1       5.900   6.474   1.218  0.00  0.00    +0.141 C 
ATOM     21  S   UNL     1       4.602   7.453   1.755  0.00  0.00    -0.018 S 
BRANCH  20  22
ATOM     22  N   UNL     1       7.143   6.988   1.135  0.00  0.00    -0.297 N 
ATOM     23  H   UNL     1       7.888   6.418   0.889  0.00  0.00    +0.154 HD
BRANCH  22  24
ATOM     24  C   UNL     1       7.358   8.344   1.402  0.00  0.00    +0.033 A 
ATOM     25  C   UNL     1       8.163   9.101   0.560  0.00  0.00    +0.023 A 
ATOM     26  C   UNL     1       8.367  10.441   0.823  0.00  0.00    +0.005 A 
ATOM     27  C   UNL     1       7.782  11.027   1.931  0.00  0.00    -0.047 A 
ATOM     28  C   UNL     1       6.986  10.275   2.774  0.00  0.00    -0.046 A 
ATOM     29  C   UNL     1       6.771   8.936   2.513  0.00  0.00    +0.027 A 
ATOM     30  C   UNL     1       6.350  10.918   3.980  0.00  0.00    +0.044 C 
ATOM     31  C   UNL     1       8.014  12.488   2.218  0.00  0.00    +0.044 C 
ENDBRANCH  22  24
ENDBRANCH  20  22
ENDBRANCH  14  20
BRANCH   1  32
ATOM     32  O   UNL     1      -3.255   1.787   0.599  0.00  0.00    -0.492 OA
BRANCH  32  34
ATOM     33  C   UNL     1      -5.636   2.020   0.259  0.00  0.00    +0.048 C 
ATOM     34  C   UNL     1      -4.279   2.726   0.263  0.00  0.00    +0.225 C 
ENDBRANCH  32  34
ENDBRANCH   1  32
TORSDOF 5
