REMARK  Name = ZINC03445627
REMARK  10 active torsions:
REMARK  status: ('A' for Active; 'I' for Inactive)
REMARK    1  A    between atoms: C_1  and  N_49
REMARK    2  A    between atoms: C_2  and  C_3
REMARK    3  A    between atoms: C_2  and  N_49
REMARK    4  A    between atoms: N_5  and  C_6
REMARK    5  A    between atoms: C_9  and  S_12
REMARK    6  A    between atoms: S_12  and  N_15
REMARK    7  A    between atoms: C_16  and  C_17
REMARK    8  A    between atoms: C_16  and  N_49
REMARK    9  A    between atoms: N_19  and  C_20
REMARK   10  A    between atoms: C_24  and  C_26
REMARK                            x       y       z     vdW  Elec       q    Type
REMARK                         _______ _______ _______ _____ _____    ______ ____
ROOT
ATOM      1  C   UNL     1       3.430   2.975  -1.657  0.00  0.00    -0.095 C 
ATOM      2  N   UNL     1       3.495   2.497  -0.260  0.00  0.00    +0.389 N 
ATOM      3  H   UNL     1       3.260   3.274   0.369  0.00  0.00    -0.081 HD
ENDROOT
BRANCH   2   4
ATOM      4  C   UNL     1       2.524   1.402  -0.055  0.00  0.00    +0.019 C 
BRANCH   4   5
ATOM      5  C   UNL     1       1.129   1.963  -0.161  0.00  0.00    +0.201 C 
ATOM      6  O   UNL     1       0.966   3.141  -0.399  0.00  0.00    -0.278 OA
ATOM      7  N   UNL     1       0.063   1.156   0.008  0.00  0.00    -0.287 N 
ATOM      8  H   UNL     1       0.191   0.202   0.124  0.00  0.00    +0.155 HD
BRANCH   7   9
ATOM      9  C   UNL     1      -1.229   1.694   0.010  0.00  0.00    +0.033 A 
ATOM     10  C   UNL     1      -2.289   0.960  -0.504  0.00  0.00    +0.025 A 
ATOM     11  C   UNL     1      -3.564   1.491  -0.494  0.00  0.00    +0.030 A 
ATOM     12  C   UNL     1      -3.783   2.758   0.016  0.00  0.00    +0.105 A 
ATOM     13  C   UNL     1      -2.728   3.494   0.523  0.00  0.00    +0.030 A 
ATOM     14  C   UNL     1      -1.452   2.966   0.522  0.00  0.00    +0.025 A 
BRANCH  12  15
ATOM     15  S   UNL     1      -5.409   3.435   0.020  0.00  0.00    +0.056 S 
ATOM     16  O   UNL     1      -6.308   2.335  -0.009  0.00  0.00    -0.153 OA
ATOM     17  O   UNL     1      -5.439   4.416   1.048  0.00  0.00    -0.153 OA
BRANCH  15  18
ATOM     18  N   UNL     1      -5.606   4.245  -1.412  0.00  0.00    -0.204 NA
ATOM     19  H   UNL     1      -4.883   4.271  -2.058  0.00  0.00    +0.144 HD
ATOM     20  H   UNL     1      -6.445   4.692  -1.604  0.00  0.00    +0.144 HD
ENDBRANCH  15  18
ENDBRANCH  12  15
ENDBRANCH   7   9
ENDBRANCH   4   5
ENDBRANCH   2   4
BRANCH   2  21
ATOM     21  C   UNL     1       4.861   2.025   0.050  0.00  0.00    +0.019 C 
BRANCH  21  22
ATOM     22  C   UNL     1       5.796   3.207   0.048  0.00  0.00    +0.201 C 
ATOM     23  O   UNL     1       5.372   4.316  -0.202  0.00  0.00    -0.278 OA
ATOM     24  N   UNL     1       7.104   3.033   0.323  0.00  0.00    -0.287 N 
ATOM     25  H   UNL     1       7.456   2.139   0.457  0.00  0.00    +0.155 HD
BRANCH  24  26
ATOM     26  C   UNL     1       7.953   4.141   0.417  0.00  0.00    +0.034 A 
ATOM     27  C   UNL     1       7.761   5.237  -0.414  0.00  0.00    +0.025 A 
ATOM     28  C   UNL     1       8.598   6.331  -0.316  0.00  0.00    +0.022 A 
ATOM     29  C   UNL     1       9.633   6.332   0.602  0.00  0.00    +0.053 A 
ATOM     30  C   UNL     1       9.830   5.239   1.428  0.00  0.00    +0.075 A 
ATOM     31  C   UNL     1       8.992   4.144   1.338  0.00  0.00    +0.037 A 
ATOM     32 CL   UNL     1      10.687   7.707   0.719  0.00  0.00    -0.083 Cl
BRANCH  30  33
ATOM     33  C   UNL     1      10.958   5.244   2.428  0.00  0.00    +0.419 C 
ATOM     34  F   UNL     1      10.953   4.041   3.142  0.00  0.00    -0.166 F 
ATOM     35  F   UNL     1      12.176   5.383   1.755  0.00  0.00    -0.166 F 
ATOM     36  F   UNL     1      10.791   6.314   3.314  0.00  0.00    -0.166 F 
ENDBRANCH  30  33
ENDBRANCH  24  26
ENDBRANCH  21  22
ENDBRANCH   2  21
TORSDOF 9
