REMARK  Name = ZINC09331070
REMARK  1 active torsions:
REMARK  status: ('A' for Active; 'I' for Inactive)
REMARK    1  A    between atoms: N_20  and  C_23
REMARK                            x       y       z     vdW  Elec       q    Type
REMARK                         _______ _______ _______ _____ _____    ______ ____
ROOT
ATOM      1  C   UNL     1      -7.200   1.220   1.358  0.00  0.00    +0.022 A 
ATOM      2  C   UNL     1      -6.537   0.155   0.782  0.00  0.00    +0.025 A 
ATOM      3  C   UNL     1      -5.151   0.061   0.872  0.00  0.00    +0.036 A 
ATOM      4  C   UNL     1      -4.451   1.054   1.551  0.00  0.00    -0.026 A 
ATOM      5  C   UNL     1      -5.115   2.116   2.123  0.00  0.00    +0.024 A 
ATOM      6  C   UNL     1      -6.494   2.203   2.028  0.00  0.00    +0.041 A 
ATOM      7 CL   UNL     1      -7.334   3.540   2.748  0.00  0.00    -0.084 Cl
ATOM      8  C   UNL     1      -3.000   0.664   1.472  0.00  0.00    +0.053 C 
ATOM      9  C   UNL     1      -2.305   0.609   2.763  0.00  0.00    +0.089 C 
ATOM     10  C   UNL     1      -0.789   0.528   2.308  0.00  0.00    +0.074 C 
ATOM     11  C   UNL     1      -0.797   1.615   1.232  0.00  0.00    -0.054 C 
ATOM     12  C   UNL     1      -2.275   1.575  -0.682  0.00  0.00    -0.076 C 
ATOM     13  C   UNL     1      -0.821   1.628  -1.195  0.00  0.00    -0.020 C 
ATOM     14  C   UNL     1      -0.013   1.086   0.008  0.00  0.00    -0.016 C 
ATOM     15  C   UNL     1      -0.227   0.850   3.671  0.00  0.00    +0.228 C 
ATOM     16  O   UNL     1       0.725   1.552   3.936  0.00  0.00    -0.275 OA
ATOM     17  N   UNL     1      -1.038   0.170   4.544  0.00  0.00    -0.209 N 
ATOM     18  C   UNL     1      -2.240  -0.166   3.981  0.00  0.00    +0.229 C 
ATOM     19  O   UNL     1      -3.066  -0.942   4.412  0.00  0.00    -0.275 OA
ATOM     20  C   UNL     1      -2.985  -0.613   0.680  0.00  0.00    +0.212 C 
ATOM     21  O   UNL     1      -2.007  -1.261   0.371  0.00  0.00    -0.277 OA
ATOM     22  N   UNL     1      -4.266  -0.901   0.379  0.00  0.00    -0.286 N 
ATOM     23  H   UNL     1      -4.543  -1.684  -0.123  0.00  0.00    +0.155 HD
ATOM     24  N   UNL     1      -2.200   1.731   0.799  0.00  0.00    +0.395 N 
ATOM     25  H   UNL     1      -2.568   2.653   1.063  0.00  0.00    -0.079 HD
ENDROOT
BRANCH  17  26
ATOM     26  C   UNL     1      -0.670  -0.156   5.857  0.00  0.00    +0.064 A 
ATOM     27  C   UNL     1      -0.939   0.726   6.894  0.00  0.00    +0.045 A 
ATOM     28  C   UNL     1      -0.580   0.399   8.189  0.00  0.00    +0.043 A 
ATOM     29  C   UNL     1       0.058  -0.801   8.449  0.00  0.00    +0.021 A 
ATOM     30  C   UNL     1       0.332  -1.679   7.418  0.00  0.00    +0.023 A 
ATOM     31  C   UNL     1      -0.030  -1.360   6.122  0.00  0.00    +0.063 A 
ATOM     32 CL   UNL     1       0.316  -2.463   4.827  0.00  0.00    -0.082 Cl
ATOM     33 CL   UNL     1      -0.923   1.499   9.488  0.00  0.00    -0.083 Cl
ENDBRANCH  17  26
TORSDOF 1
