REMARK  Name = ZINC44812493
REMARK  7 active torsions:
REMARK  status: ('A' for Active; 'I' for Inactive)
REMARK    1  A    between atoms: C_1  and  C_2
REMARK    2  A    between atoms: C_5  and  C_8
REMARK    3  A    between atoms: C_10  and  C_13
REMARK    4  A    between atoms: C_13  and  N_14
REMARK    5  A    between atoms: C_18  and  C_21
REMARK    6  A    between atoms: N_23  and  C_24
REMARK    7  A    between atoms: C_29  and  C_30
REMARK                            x       y       z     vdW  Elec       q    Type
REMARK                         _______ _______ _______ _____ _____    ______ ____
ROOT
ATOM      1  N   UNL     1      -1.279  -7.903   1.925  0.00  0.00    +0.386 N 
ATOM      2  C   UNL     1      -1.930  -8.386   0.701  0.00  0.00    -0.078 C 
ATOM      3  C   UNL     1      -3.391  -8.729   0.997  0.00  0.00    -0.018 C 
ATOM      4  C   UNL     1      -3.446  -9.820   2.070  0.00  0.00    +0.009 C 
ATOM      5  C   UNL     1      -2.700  -9.335   3.317  0.00  0.00    +0.059 C 
ATOM      6  C   UNL     1      -1.264  -8.969   2.935  0.00  0.00    -0.065 C 
ATOM      7  H   UNL     1      -1.788  -7.109   2.284  0.00  0.00    -0.081 HD
ENDROOT
BRANCH   5   8
ATOM      8  C   UNL     1      -2.683 -10.431   4.351  0.00  0.00    +0.219 C 
ATOM      9  O   UNL     1      -1.625 -10.873   4.748  0.00  0.00    -0.275 OA
ATOM     10  N   UNL     1      -3.842 -10.918   4.836  0.00  0.00    -0.285 N 
ATOM     11  H   UNL     1      -4.684 -10.511   4.580  0.00  0.00    +0.155 HD
BRANCH  10  12
ATOM     12  C   UNL     1      -3.830 -12.012   5.709  0.00  0.00    +0.036 A 
ATOM     13  C   UNL     1      -2.768 -12.907   5.689  0.00  0.00    +0.024 A 
ATOM     14  C   UNL     1      -2.759 -13.985   6.551  0.00  0.00    +0.016 A 
ATOM     15  C   UNL     1      -3.807 -14.175   7.435  0.00  0.00    +0.014 A 
ATOM     16  C   UNL     1      -4.866 -13.286   7.457  0.00  0.00    +0.019 A 
ATOM     17  C   UNL     1      -4.878 -12.202   6.600  0.00  0.00    -0.028 A 
ATOM     18  C   UNL     1      -6.029 -11.230   6.629  0.00  0.00    +0.046 C 
ATOM     19  I   UNL     1      -3.789 -15.812   8.742  0.00  0.00    -0.044 I 
ENDBRANCH  10  12
ENDBRANCH   5   8
BRANCH   1  20
ATOM     20  C   UNL     1       0.100  -7.501   1.619  0.00  0.00    +0.022 C 
BRANCH  20  23
ATOM     21  C   UNL     1       0.055  -4.289  -0.069  0.00  0.00    +0.202 A 
ATOM     22  N   UNL     1       0.065  -5.071   1.025  0.00  0.00    -0.193 NA
ATOM     23  C   UNL     1       0.083  -6.325   0.676  0.00  0.00    +0.211 A 
ATOM     24  O   UNL     1       0.085  -6.395  -0.661  0.00  0.00    -0.340 OA
ATOM     25  N   UNL     1       0.061  -5.056  -1.132  0.00  0.00    -0.056 NA
BRANCH  21  30
ATOM     26  C   UNL     1      -0.032   1.470  -0.083  0.00  0.00    +0.044 C 
ATOM     27  C   UNL     1      -0.009  -0.037  -0.080  0.00  0.00    -0.050 A 
ATOM     28  C   UNL     1      -0.003  -0.729  -1.277  0.00  0.00    +0.004 A 
ATOM     29  C   UNL     1       0.018  -2.109  -1.280  0.00  0.00    +0.012 A 
ATOM     30  C   UNL     1       0.033  -2.805  -0.073  0.00  0.00    +0.022 A 
ATOM     31  C   UNL     1       0.026  -2.103   1.130  0.00  0.00    +0.012 A 
ATOM     32  C   UNL     1       0.011  -0.723   1.121  0.00  0.00    +0.004 A 
ENDBRANCH  21  30
ENDBRANCH  20  23
ENDBRANCH   1  20
TORSDOF 5
