REMARK  Name = ZINC15882455
REMARK  8 active torsions:
REMARK  status: ('A' for Active; 'I' for Inactive)
REMARK    1  A    between atoms: C_1  and  O_2
REMARK    2  A    between atoms: O_2  and  C_3
REMARK    3  A    between atoms: C_3  and  C_4
REMARK    4  A    between atoms: C_4  and  N_5
REMARK    5  A    between atoms: C_15  and  O_16
REMARK    6  A    between atoms: O_16  and  C_17
REMARK    7  A    between atoms: C_17  and  C_18
REMARK    8  A    between atoms: N_20  and  C_21
REMARK                            x       y       z     vdW  Elec       q    Type
REMARK                         _______ _______ _______ _____ _____    ______ ____
ROOT
ATOM      1  N   UNL     1       7.003  -0.889  -0.069  0.00  0.00    -0.312 N 
ATOM      2  C   UNL     1       5.752  -1.437  -0.068  0.00  0.00    +0.090 A 
ATOM      3  C   UNL     1       4.638  -0.688  -0.050  0.00  0.00    +0.030 A 
ATOM      4  C   UNL     1       4.753   0.771  -0.032  0.00  0.00    +0.030 A 
ATOM      5  C   UNL     1       6.046   1.343  -0.034  0.00  0.00    +0.050 A 
ATOM      6  C   UNL     1       7.205   0.444  -0.053  0.00  0.00    +0.259 A 
ATOM      7  O   UNL     1       8.335   0.896  -0.054  0.00  0.00    -0.267 OA
ATOM      8  C   UNL     1       6.189   2.731  -0.018  0.00  0.00    +0.014 A 
ATOM      9  C   UNL     1       5.068   3.531  -0.000  0.00  0.00    +0.004 A 
ATOM     10  C   UNL     1       3.797   2.975  -0.004  0.00  0.00    +0.046 A 
ATOM     11  C   UNL     1       3.627   1.603  -0.014  0.00  0.00    +0.129 A 
ENDROOT
BRANCH   1  12
ATOM     12  C   UNL     1       8.166  -1.780  -0.089  0.00  0.00    +0.153 C 
BRANCH  12  13
ATOM     13  C   UNL     1       8.561  -2.071  -1.538  0.00  0.00    +0.181 C 
BRANCH  13  15
ATOM     14  C   UNL     1       9.394  -1.027  -3.528  0.00  0.00    +0.194 C 
ATOM     15  O   UNL     1       9.000  -0.864  -2.164  0.00  0.00    -0.381 OA
ENDBRANCH  13  15
ENDBRANCH  12  13
ENDBRANCH   1  12
BRANCH  11  16
ATOM     16  O   UNL     1       2.379   1.067  -0.012  0.00  0.00    -0.482 OA
BRANCH  16  17
ATOM     17  C   UNL     1       1.280   1.980   0.007  0.00  0.00    +0.324 C 
BRANCH  17  18
ATOM     18  C   UNL     1      -0.014   1.209   0.007  0.00  0.00    +0.255 C 
ATOM     19  O   UNL     1       0.002  -0.004  -0.008  0.00  0.00    -0.272 OA
ATOM     20  N   UNL     1      -1.191   1.867   0.018  0.00  0.00    -0.283 N 
ATOM     21  H   UNL     1      -1.205   2.833   0.098  0.00  0.00    +0.155 HD
BRANCH  20  22
ATOM     22  C   UNL     1      -2.391   1.155  -0.086  0.00  0.00    +0.034 A 
ATOM     23  C   UNL     1      -3.468   1.704  -0.769  0.00  0.00    +0.024 A 
ATOM     24  C   UNL     1      -4.651   0.998  -0.874  0.00  0.00    +0.017 A 
ATOM     25  C   UNL     1      -4.766  -0.252  -0.290  0.00  0.00    +0.018 A 
ATOM     26  C   UNL     1      -3.696  -0.799   0.396  0.00  0.00    +0.017 A 
ATOM     27  C   UNL     1      -2.510  -0.099   0.499  0.00  0.00    +0.024 A 
ATOM     28 BR   UNL     1      -6.388  -1.213  -0.431  0.00  0.00    -0.050 Br
ENDBRANCH  20  22
ENDBRANCH  17  18
ENDBRANCH  16  17
ENDBRANCH  11  16
TORSDOF 7
