REMARK  Name = ZINC05835429
REMARK  12 active torsions:
REMARK  status: ('A' for Active; 'I' for Inactive)
REMARK    1  A    between atoms: C_1  and  O_2
REMARK    2  A    between atoms: O_2  and  C_3
REMARK    3  A    between atoms: C_7  and  O_11
REMARK    4  A    between atoms: C_8  and  O_9
REMARK    5  A    between atoms: O_9  and  C_10
REMARK    6  A    between atoms: O_11  and  C_12
REMARK    7  A    between atoms: C_16  and  S_34
REMARK    8  A    between atoms: C_21  and  N_62
REMARK    9  A    between atoms: C_25  and  C_26
REMARK   10  A    between atoms: C_25  and  N_62
REMARK   11  A    between atoms: C_29  and  C_32
REMARK   12  A    between atoms: S_34  and  C_35
REMARK                            x       y       z     vdW  Elec       q    Type
REMARK                         _______ _______ _______ _____ _____    ______ ____
ROOT
ATOM      1  C   UNL     1      -4.355  -0.944  -0.226  0.00  0.00    +0.165 A 
ATOM      2  C   UNL     1      -4.378  -0.005   0.798  0.00  0.00    +0.054 A 
ATOM      3  C   UNL     1      -3.242   0.715   1.101  0.00  0.00    -0.033 A 
ATOM      4  C   UNL     1      -2.073   0.506   0.376  0.00  0.00    +0.031 A 
ATOM      5  C   UNL     1      -2.041  -0.441  -0.653  0.00  0.00    +0.173 A 
ATOM      6  C   UNL     1      -3.188  -1.165  -0.950  0.00  0.00    +0.204 A 
ATOM      7  C   UNL     1      -0.846   1.304   0.678  0.00  0.00    -0.012 A 
ATOM      8  C   UNL     1       0.322   0.603   0.842  0.00  0.00    +0.010 A 
ATOM      9  C   UNL     1       1.571   0.975   1.168  0.00  0.00    +0.019 A 
ATOM     10  C   UNL     1       2.039   2.220   1.472  0.00  0.00    +0.054 A 
ATOM     11  C   UNL     1       1.276   3.386   1.492  0.00  0.00    +0.192 A 
ATOM     12  O   UNL     1       1.861   4.398   1.853  0.00  0.00    -0.287 OA
ATOM     13  C   UNL     1      -0.038   3.547   1.161  0.00  0.00    +0.054 A 
ATOM     14  C   UNL     1      -1.003   2.684   0.794  0.00  0.00    -0.050 A 
ATOM     15  C   UNL     1      -2.356   3.287   0.475  0.00  0.00    -0.039 C 
ATOM     16  C   UNL     1      -3.322   3.136   1.633  0.00  0.00    -0.007 C 
ATOM     17  C   UNL     1      -3.262   1.727   2.218  0.00  0.00    +0.035 C 
ENDROOT
BRANCH  15  18
ATOM     18  N   UNL     1      -2.178   4.721   0.180  0.00  0.00    +0.386 N 
ATOM     19  H   UNL     1      -1.330   4.848  -0.384  0.00  0.00    -0.085 HD
ATOM     20  H   UNL     1      -2.083   5.239   1.062  0.00  0.00    -0.085 HD
BRANCH  18  21
ATOM     21  C   UNL     1      -3.341   5.238  -0.565  0.00  0.00    -0.046 C 
BRANCH  21  22
ATOM     22  C   UNL     1      -3.131   6.703  -0.852  0.00  0.00    -0.064 A 
ATOM     23  C   UNL     1      -3.580   7.652   0.049  0.00  0.00    +0.003 A 
ATOM     24  C   UNL     1      -3.387   8.994  -0.205  0.00  0.00    +0.019 A 
ATOM     25  C   UNL     1      -2.747   9.394  -1.380  0.00  0.00    +0.052 A 
ATOM     26  C   UNL     1      -2.302   8.431  -2.288  0.00  0.00    +0.019 A 
ATOM     27  C   UNL     1      -2.496   7.092  -2.018  0.00  0.00    +0.003 A 
BRANCH  25  28
ATOM     28  C   UNL     1      -2.549  10.786  -1.653  0.00  0.00    +0.099 C 
ATOM     29  N   UNL     1      -2.393  11.890  -1.870  0.00  0.00    -0.191 NA
ENDBRANCH  25  28
ENDBRANCH  21  22
ENDBRANCH  18  21
ENDBRANCH  15  18
BRANCH   1  31
ATOM     30  C   UNL     1      -6.642  -1.375   0.261  0.00  0.00    +0.277 C 
ATOM     31  O   UNL     1      -5.478  -1.651  -0.521  0.00  0.00    -0.491 OA
ENDBRANCH   1  31
BRANCH   6  32
ATOM     32  O   UNL     1      -3.171  -2.089  -1.948  0.00  0.00    -0.488 OA
ATOM     33  C   UNL     1      -2.804  -3.423  -1.591  0.00  0.00    +0.277 C 
ENDBRANCH   6  32
BRANCH   5  34
ATOM     34  O   UNL     1      -0.897  -0.650  -1.356  0.00  0.00    -0.491 OA
ATOM     35  C   UNL     1      -0.747   0.070  -2.581  0.00  0.00    +0.277 C 
ENDBRANCH   5  34
BRANCH  10  36
ATOM     36  S   UNL     1       3.749   2.366   1.872  0.00  0.00    -0.125 S 
ATOM     37  C   UNL     1       4.259   0.637   1.706  0.00  0.00    +0.090 C 
ENDBRANCH  10  36
TORSDOF 8
