REMARK  Name = ZINC09849110
REMARK  8 active torsions:
REMARK  status: ('A' for Active; 'I' for Inactive)
REMARK    1  A    between atoms: C_1  and  O_2
REMARK    2  A    between atoms: O_2  and  C_3
REMARK    3  A    between atoms: C_8  and  N_9
REMARK    4  A    between atoms: C_14  and  C_15
REMARK    5  A    between atoms: C_14  and  N_59
REMARK    6  A    between atoms: N_17  and  C_18
REMARK    7  A    between atoms: C_23  and  C_24
REMARK    8  A    between atoms: C_24  and  C_26
REMARK                            x       y       z     vdW  Elec       q    Type
REMARK                         _______ _______ _______ _____ _____    ______ ____
ROOT
ATOM      1  C   UNL     1      -4.177  -4.870   1.150  0.00  0.00    +0.201 C 
ATOM      2  O   UNL     1      -3.323  -4.673   1.988  0.00  0.00    -0.278 OA
ATOM      3  N   UNL     1      -5.267  -5.600   1.458  0.00  0.00    -0.286 N 
ATOM      4  H   UNL     1      -5.922  -5.806   0.773  0.00  0.00    +0.155 HD
ENDROOT
BRANCH   3   5
ATOM      5  C   UNL     1      -5.454  -6.058   2.760  0.00  0.00    +0.044 A 
ATOM      6  C   UNL     1      -4.359  -6.405   3.541  0.00  0.00    +0.025 A 
ATOM      7  C   UNL     1      -4.545  -6.854   4.832  0.00  0.00    +0.022 A 
ATOM      8  C   UNL     1      -5.823  -6.973   5.357  0.00  0.00    +0.042 A 
ATOM      9  C   UNL     1      -6.922  -6.639   4.596  0.00  0.00    +0.033 A 
ATOM     10  C   UNL     1      -6.749  -6.178   3.287  0.00  0.00    +0.045 A 
ATOM     11 CL   UNL     1      -6.040  -7.546   6.982  0.00  0.00    -0.084 Cl
BRANCH  10  12
ATOM     12  C   UNL     1      -7.920  -5.818   2.467  0.00  0.00    +0.195 C 
ATOM     13  O   UNL     1      -8.614  -6.691   1.982  0.00  0.00    -0.287 OA
BRANCH  12  14
ATOM     14  C   UNL     1      -8.249  -4.397   2.233  0.00  0.00    +0.022 A 
ATOM     15  C   UNL     1      -7.408  -3.393   2.717  0.00  0.00    +0.012 A 
ATOM     16  C   UNL     1      -7.719  -2.068   2.490  0.00  0.00    +0.001 A 
ATOM     17  C   UNL     1      -8.868  -1.733   1.794  0.00  0.00    +0.000 A 
ATOM     18  C   UNL     1      -9.709  -2.723   1.317  0.00  0.00    +0.001 A 
ATOM     19  C   UNL     1      -9.407  -4.051   1.531  0.00  0.00    +0.012 A 
ENDBRANCH  12  14
ENDBRANCH  10  12
ENDBRANCH   3   5
BRANCH   1  20
ATOM     20  C   UNL     1      -4.020  -4.298  -0.235  0.00  0.00    +0.019 C 
BRANCH  20  26
ATOM     21  N   UNL     1      -0.165  -3.238  -1.601  0.00  0.00    -0.331 N 
ATOM     22  C   UNL     1      -1.221  -2.218  -1.660  0.00  0.00    +0.086 C 
ATOM     23  C   UNL     1      -2.590  -2.901  -1.602  0.00  0.00    -0.059 C 
ATOM     24  C   UNL     1      -1.634  -4.707  -0.305  0.00  0.00    -0.059 C 
ATOM     25  C   UNL     1      -0.265  -4.025  -0.363  0.00  0.00    +0.086 C 
ATOM     26  N   UNL     1      -2.686  -3.670  -0.343  0.00  0.00    +0.387 N 
ATOM     27  H   UNL     1      -2.553  -3.030   0.449  0.00  0.00    -0.081 HD
BRANCH  21  33
ATOM     28  C   UNL     1       1.907  -2.962  -2.819  0.00  0.00    +0.141 A 
ATOM     29  C   UNL     1       3.160  -2.384  -2.936  0.00  0.00    +0.047 A 
ATOM     30  C   UNL     1       3.610  -1.505  -1.967  0.00  0.00    +0.004 A 
ATOM     31  C   UNL     1       2.811  -1.201  -0.880  0.00  0.00    +0.002 A 
ATOM     32  C   UNL     1       1.559  -1.774  -0.757  0.00  0.00    +0.027 A 
ATOM     33  C   UNL     1       1.102  -2.656  -1.724  0.00  0.00    +0.072 A 
BRANCH  28  35
ATOM     34  C   UNL     1       2.346  -4.098  -4.862  0.00  0.00    +0.277 C 
ATOM     35  O   UNL     1       1.467  -3.832  -3.768  0.00  0.00    -0.493 OA
ENDBRANCH  28  35
ENDBRANCH  21  33
ENDBRANCH  20  26
ENDBRANCH   1  20
TORSDOF 7
