REMARK  Name = ZINC22296699
REMARK  5 active torsions:
REMARK  status: ('A' for Active; 'I' for Inactive)
REMARK    1  A    between atoms: C_1  and  C_2
REMARK    2  A    between atoms: C_5  and  C_30
REMARK    3  A    between atoms: N_8  and  C_10
REMARK    4  A    between atoms: C_10  and  C_11
REMARK    5  A    between atoms: C_17  and  C_19
REMARK                            x       y       z     vdW  Elec       q    Type
REMARK                         _______ _______ _______ _____ _____    ______ ____
ROOT
ATOM      1  C   UNL     1      -0.016   1.351   0.009  0.00  0.00    +0.034 A 
ATOM      2  C   UNL     1       0.002  -0.004   0.002  0.00  0.00    +0.070 A 
ATOM      3  S   UNL     1       1.762  -0.312  -0.016  0.00  0.00    -0.060 S 
ATOM      4  C   UNL     1       2.281   1.345  -0.013  0.00  0.00    +0.165 A 
ATOM      5  N   UNL     1       1.134   1.996   0.002  0.00  0.00    -0.231 NA
ATOM      6  N   UNL     1       3.574   1.854  -0.021  0.00  0.00    -0.261 N 
ATOM      7  C   UNL     1       4.629   1.016  -0.035  0.00  0.00    +0.250 C 
ATOM      8  O   UNL     1       4.449  -0.187  -0.040  0.00  0.00    -0.270 OA
ATOM      9  H   UNL     1       3.736   2.942  -0.017  0.00  0.00    +0.157 HD
ENDROOT
BRANCH   7  10
ATOM     10  C   UNL     1       6.001   1.557  -0.045  0.00  0.00    +0.041 A 
ATOM     11  C   UNL     1       6.208   2.939  -0.045  0.00  0.00    +0.015 A 
ATOM     12  C   UNL     1       7.490   3.445  -0.048  0.00  0.00    +0.028 A 
ATOM     13  C   UNL     1       8.577   2.582  -0.062  0.00  0.00    +0.076 A 
ATOM     14  C   UNL     1       8.377   1.200  -0.068  0.00  0.00    +0.143 A 
ATOM     15  C   UNL     1       7.096   0.688  -0.059  0.00  0.00    +0.060 A 
ATOM     16  O   UNL     1       9.454   0.368  -0.084  0.00  0.00    -0.481 OA
ATOM     17  C   UNL     1      10.612   0.831  -0.784  0.00  0.00    +0.325 C 
ATOM     18  C   UNL     1      10.900   2.259  -0.397  0.00  0.00    +0.255 C 
ATOM     19  O   UNL     1      12.042   2.666  -0.381  0.00  0.00    -0.272 OA
ATOM     20  N   UNL     1       9.882   3.083  -0.069  0.00  0.00    -0.280 N 
ATOM     21  H   UNL     1      10.068   4.136   0.190  0.00  0.00    +0.155 HD
ENDBRANCH   7  10
BRANCH   1  22
ATOM     22  C   UNL     1      -1.321   2.104   0.020  0.00  0.00    -0.022 C 
BRANCH  22  28
ATOM     23  C   UNL     1      -0.923   2.284   4.207  0.00  0.00    +0.005 C 
ATOM     24  C   UNL     1      -2.185   1.619   3.653  0.00  0.00    -0.031 C 
ATOM     25  C   UNL     1      -3.361   2.597   3.746  0.00  0.00    +0.003 C 
ATOM     26  C   UNL     1      -3.063   3.825   2.881  0.00  0.00    -0.031 C 
ATOM     27  C   UNL     1      -2.812   3.379   1.439  0.00  0.00    -0.075 C 
ATOM     28  N   UNL     1      -1.679   2.446   1.403  0.00  0.00    +0.384 N 
ATOM     29  C   UNL     1      -1.961   1.238   2.188  0.00  0.00    -0.075 C 
ATOM     30  C   UNL     1      -4.258   4.779   2.921  0.00  0.00    +0.005 C 
ATOM     31  H   UNL     1      -0.816   2.950   1.862  0.00  0.00    -0.081 HD
ENDBRANCH  22  28
ENDBRANCH   1  22
TORSDOF 3
