REMARK  Name = ZINC65489383
REMARK  2 active torsions:
REMARK  status: ('A' for Active; 'I' for Inactive)
REMARK    1  A    between atoms: C_4  and  C_7
REMARK    2  A    between atoms: C_16  and  C_18
REMARK                            x       y       z     vdW  Elec       q    Type
REMARK                         _______ _______ _______ _____ _____    ______ ____
ROOT
ATOM      1  C   UNL     1       3.953  -0.611   0.163  0.00  0.00    +0.115 C 
ATOM      2  C   UNL     1       4.686  -1.067  -1.103  0.00  0.00    +0.123 C 
ATOM      3  C   UNL     1       6.167  -0.937  -0.912  0.00  0.00    +0.215 C 
ATOM      4  O   UNL     1       6.800  -0.331  -1.750  0.00  0.00    -0.276 OA
ATOM      5  N   UNL     1       6.825  -1.447   0.121  0.00  0.00    -0.314 N 
ATOM      6  C   UNL     1       6.266  -2.051   1.320  0.00  0.00    +0.123 C 
ATOM      7  C   UNL     1       4.945  -2.765   1.020  0.00  0.00    +0.127 C 
ATOM      8  N   UNL     1       3.860  -1.765   1.059  0.00  0.00    -0.289 N 
ATOM      9  C   UNL     1       2.812  -1.910   1.895  0.00  0.00    +0.247 C 
ATOM     10  O   UNL     1       1.988  -1.022   1.996  0.00  0.00    -0.270 OA
ATOM     11  H   UNL     1       7.794  -1.413   0.070  0.00  0.00    +0.149 HD
ENDROOT
BRANCH   9  12
ATOM     12  C   UNL     1       2.665  -3.148   2.686  0.00  0.00    +0.042 A 
ATOM     13  C   UNL     1       2.270  -3.080   4.024  0.00  0.00    +0.062 A 
ATOM     14  C   UNL     1       2.134  -4.240   4.762  0.00  0.00    +0.168 A 
ATOM     15  C   UNL     1       2.391  -5.477   4.170  0.00  0.00    +0.184 A 
ATOM     16  C   UNL     1       2.784  -5.544   2.840  0.00  0.00    +0.087 A 
ATOM     17  C   UNL     1       2.916  -4.389   2.097  0.00  0.00    +0.037 A 
ATOM     18 CL   UNL     1       3.102  -7.085   2.107  0.00  0.00    -0.080 Cl
ATOM     19  O   UNL     1       2.186  -6.455   5.099  0.00  0.00    -0.451 OA
ATOM     20  C   UNL     1       2.200  -5.784   6.373  0.00  0.00    +0.466 C 
ATOM     21  O   UNL     1       1.769  -4.447   6.061  0.00  0.00    -0.453 OA
ENDBRANCH   9  12
BRANCH   1  25
ATOM     22  C   UNL     1       0.036   0.764  -0.846  0.00  0.00    +0.000 A 
ATOM     23  C   UNL     1       1.050   1.675  -0.612  0.00  0.00    +0.000 A 
ATOM     24  C   UNL     1       2.317   1.230  -0.285  0.00  0.00    +0.005 A 
ATOM     25  C   UNL     1       2.571  -0.126  -0.192  0.00  0.00    -0.027 A 
ATOM     26  C   UNL     1       1.558  -1.036  -0.426  0.00  0.00    +0.005 A 
ATOM     27  C   UNL     1       0.291  -0.592  -0.754  0.00  0.00    +0.000 A 
ENDBRANCH   1  25
TORSDOF 2
