REMARK  Name = ZINC06300195
REMARK  6 active torsions:
REMARK  status: ('A' for Active; 'I' for Inactive)
REMARK    1  A    between atoms: C_1  and  C_2
REMARK    2  A    between atoms: C_9  and  N_31
REMARK    3  A    between atoms: C_10  and  C_29
REMARK    4  A    between atoms: C_11  and  C_13
REMARK    5  A    between atoms: C_16  and  C_18
REMARK    6  A    between atoms: C_22  and  C_24
REMARK                            x       y       z     vdW  Elec       q    Type
REMARK                         _______ _______ _______ _____ _____    ______ ____
ROOT
ATOM      1  C   UNL     1      -4.261   4.736  -3.025  0.00  0.00    +0.068 C 
ATOM      2  C   UNL     1      -3.267   5.740  -2.500  0.00  0.00    +0.068 A 
ATOM      3  C   UNL     1      -2.891   5.897  -1.173  0.00  0.00    +0.052 A 
ATOM      4  C   UNL     1      -1.973   6.908  -1.110  0.00  0.00    +0.223 A 
ATOM      5  N   UNL     1      -1.784   7.363  -2.359  0.00  0.00    -0.246 N 
ATOM      6  H   UNL     1      -1.167   8.102  -2.629  0.00  0.00    +0.192 HD
ATOM      7  N   UNL     1      -2.606   6.617  -3.217  0.00  0.00    -0.176 NA
ATOM      8  O   UNL     1      -1.408   7.313   0.055  0.00  0.00    -0.423 OA
ATOM      9  C   UNL     1      -1.969   6.883   1.204  0.00  0.00    +0.201 C 
ATOM     10  C   UNL     1      -2.878   5.885   1.270  0.00  0.00    +0.101 C 
ATOM     11  C   UNL     1      -3.353   5.142   0.046  0.00  0.00    +0.137 C 
ENDROOT
BRANCH  11  12
ATOM     12  C   UNL     1      -2.769   3.753   0.036  0.00  0.00    +0.119 A 
ATOM     13  C   UNL     1      -3.473   2.604   0.033  0.00  0.00    +0.046 A 
ATOM     14  C   UNL     1      -2.540   1.548   0.022  0.00  0.00    +0.050 A 
ATOM     15  C   UNL     1      -1.305   2.116   0.020  0.00  0.00    +0.135 A 
ATOM     16  O   UNL     1      -1.459   3.454   0.034  0.00  0.00    -0.459 OA
BRANCH  15  17
ATOM     17  C   UNL     1      -0.017   1.392   0.010  0.00  0.00    +0.018 A 
ATOM     18  C   UNL     1       0.002  -0.004   0.002  0.00  0.00    +0.013 A 
ATOM     19  C   UNL     1       1.207  -0.674  -0.013  0.00  0.00    +0.021 A 
ATOM     20  C   UNL     1       2.397   0.034  -0.021  0.00  0.00    +0.053 A 
ATOM     21  C   UNL     1       2.385   1.419  -0.014  0.00  0.00    +0.074 A 
ATOM     22  C   UNL     1       1.186   2.101   0.002  0.00  0.00    +0.025 A 
ATOM     23 CL   UNL     1       3.910  -0.817  -0.040  0.00  0.00    -0.083 Cl
BRANCH  21  24
ATOM     24  C   UNL     1       3.684   2.182  -0.023  0.00  0.00    +0.419 C 
ATOM     25  F   UNL     1       3.418   3.556  -0.013  0.00  0.00    -0.166 F 
ATOM     26  F   UNL     1       4.432   1.844   1.110  0.00  0.00    -0.166 F 
ATOM     27  F   UNL     1       4.408   1.856  -1.174  0.00  0.00    -0.166 F 
ENDBRANCH  21  24
ENDBRANCH  15  17
ENDBRANCH  11  12
BRANCH   9  28
ATOM     28  N   UNL     1      -1.595   7.496   2.374  0.00  0.00    -0.328 N 
ATOM     29  H   UNL     1      -0.946   8.216   2.359  0.00  0.00    +0.145 HD
ATOM     30  H   UNL     1      -1.982   7.209   3.216  0.00  0.00    +0.145 HD
ENDBRANCH   9  28
BRANCH  10  31
ATOM     31  C   UNL     1      -3.409   5.518   2.549  0.00  0.00    +0.101 C 
ATOM     32  N   UNL     1      -3.830   5.227   3.563  0.00  0.00    -0.191 NA
ENDBRANCH  10  31
TORSDOF 5
