REMARK  Name = ZINC55428481
REMARK  5 active torsions:
REMARK  status: ('A' for Active; 'I' for Inactive)
REMARK    1  A    between atoms: C_1  and  C_2
REMARK    2  A    between atoms: C_3  and  C_28
REMARK    3  A    between atoms: C_7  and  C_12
REMARK    4  A    between atoms: C_20  and  N_24
REMARK    5  A    between atoms: C_25  and  C_27
REMARK                            x       y       z     vdW  Elec       q    Type
REMARK                         _______ _______ _______ _____ _____    ______ ____
ROOT
ATOM      1  C   UNL     1       0.058  -6.255   1.125  0.00  0.00    +0.250 C 
ATOM      2  O   UNL     1       0.066  -6.862   0.072  0.00  0.00    -0.270 OA
ATOM      3  N   UNL     1       0.074  -6.930   2.292  0.00  0.00    -0.261 N 
ATOM      4  C   UNL     1       0.099  -8.315   2.291  0.00  0.00    +0.166 A 
ATOM      5  N   UNL     1       0.118  -9.137   1.268  0.00  0.00    -0.225 NA
ATOM      6  C   UNL     1       0.142 -10.480   1.415  0.00  0.00    +0.080 A 
ATOM      7  C   UNL     1       0.163 -11.468   0.404  0.00  0.00    +0.031 A 
ATOM      8  C   UNL     1       0.186 -12.791   0.719  0.00  0.00    +0.025 A 
ATOM      9  C   UNL     1       0.190 -13.225   2.043  0.00  0.00    +0.035 A 
ATOM     10  C   UNL     1       0.171 -12.284   3.064  0.00  0.00    +0.040 A 
ATOM     11  C   UNL     1       0.147 -10.948   2.749  0.00  0.00    +0.043 A 
ATOM     12  S   UNL     1       0.124  -9.437   3.682  0.00  0.00    -0.052 S 
ATOM     13  H   UNL     1       0.067  -6.446   3.132  0.00  0.00    +0.157 HD
ENDROOT
BRANCH   1  20
ATOM     14  C   UNL     1      -0.089   1.508   0.057  0.00  0.00    +0.067 C 
ATOM     15  C   UNL     1      -0.061   0.002   0.044  0.00  0.00    +0.060 A 
ATOM     16  C   UNL     1      -0.052  -0.679  -1.176  0.00  0.00    +0.060 A 
ATOM     17  N   UNL     1      -0.029  -1.992  -1.211  0.00  0.00    -0.249 NA
ATOM     18  C   UNL     1      -0.013  -2.686  -0.067  0.00  0.00    +0.090 A 
ATOM     19  C   UNL     1       0.014  -4.090  -0.075  0.00  0.00    +0.043 A 
ATOM     20  C   UNL     1       0.030  -4.778   1.127  0.00  0.00    +0.039 A 
ATOM     21  C   UNL     1       0.020  -4.081   2.348  0.00  0.00    +0.015 A 
ATOM     22  C   UNL     1      -0.006  -2.724   2.375  0.00  0.00    +0.030 A 
ATOM     23  C   UNL     1      -0.022  -1.995   1.171  0.00  0.00    +0.090 A 
ATOM     24  N   UNL     1      -0.041  -0.657   1.180  0.00  0.00    -0.249 NA
ATOM     25  C   UNL     1      -0.071   0.100  -2.466  0.00  0.00    +0.067 C 
ENDBRANCH   1  20
BRANCH   9  26
ATOM     26  N   UNL     1       0.213 -14.594   2.340  0.00  0.00    -0.286 N 
ATOM     27  C   UNL     1       0.887 -15.038   3.419  0.00  0.00    +0.214 C 
ATOM     28  O   UNL     1       1.403 -14.246   4.180  0.00  0.00    -0.276 OA
ATOM     29  C   UNL     1       1.000 -16.518   3.681  0.00  0.00    +0.109 C 
ATOM     30  H   UNL     1      -0.257 -15.222   1.769  0.00  0.00    +0.155 HD
ENDBRANCH   9  26
TORSDOF 2
