REMARK  Name = ZINC30471799
REMARK  8 active torsions:
REMARK  status: ('A' for Active; 'I' for Inactive)
REMARK    1  A    between atoms: C_3  and  C_6
REMARK    2  A    between atoms: C_6  and  N_7
REMARK    3  A    between atoms: N_7  and  C_8
REMARK    4  A    between atoms: C_8  and  C_9
REMARK    5  A    between atoms: C_14  and  C_16
REMARK    6  A    between atoms: C_16  and  C_17
REMARK    7  A    between atoms: C_17  and  N_18
REMARK    8  A    between atoms: C_19  and  C_21
REMARK                            x       y       z     vdW  Elec       q    Type
REMARK                         _______ _______ _______ _____ _____    ______ ____
ROOT
ATOM      1  N   UNL     1       6.044   2.150  -0.044  0.00  0.00    -0.287 N 
ATOM      2  C   UNL     1       4.886   1.460  -0.037  0.00  0.00    +0.218 C 
ATOM      3  O   UNL     1       4.903   0.248  -0.043  0.00  0.00    -0.276 OA
ENDROOT
BRANCH   1   4
ATOM      4  C   UNL     1       7.323   1.435  -0.060  0.00  0.00    +0.182 C 
BRANCH   4   7
ATOM      5  C   UNL     1       8.655   1.414  -3.496  0.00  0.00    +0.041 A 
ATOM      6  C   UNL     1       8.502   2.026  -2.231  0.00  0.00    +0.046 A 
ATOM      7  C   UNL     1       7.748   1.197  -1.486  0.00  0.00    +0.122 A 
ATOM      8  O   UNL     1       7.442   0.120  -2.228  0.00  0.00    -0.466 OA
ATOM      9  C   UNL     1       7.985   0.249  -3.450  0.00  0.00    +0.195 A 
ENDBRANCH   4   7
ENDBRANCH   1   4
BRANCH   1  10
ATOM     10  C   UNL     1       6.024   3.615  -0.036  0.00  0.00    +0.182 C 
BRANCH  10  11
ATOM     11  C   UNL     1       6.031   4.109   1.387  0.00  0.00    +0.122 A 
ATOM     12  C   UNL     1       7.126   4.383   2.120  0.00  0.00    +0.046 A 
ATOM     13  C   UNL     1       6.673   4.815   3.388  0.00  0.00    +0.041 A 
ATOM     14  C   UNL     1       5.328   4.781   3.354  0.00  0.00    +0.195 A 
ATOM     15  O   UNL     1       4.945   4.358   2.138  0.00  0.00    -0.466 OA
ENDBRANCH  10  11
ENDBRANCH   1  10
BRANCH   2  16
ATOM     16  C   UNL     1       3.571   2.196  -0.020  0.00  0.00    +0.114 C 
BRANCH  16  17
ATOM     17  C   UNL     1       2.422   1.186  -0.015  0.00  0.00    +0.113 C 
BRANCH  17  18
ATOM     18  N   UNL     1       1.143   1.901   0.001  0.00  0.00    -0.311 N 
ATOM     19  C   UNL     1      -0.014   1.211   0.009  0.00  0.00    +0.244 C 
ATOM     20  O   UNL     1       0.002  -0.004   0.002  0.00  0.00    -0.270 OA
ATOM     21  H   UNL     1       1.129   3.001   0.007  0.00  0.00    +0.149 HD
BRANCH  19  22
ATOM     22  C   UNL     1      -1.304   1.933   0.019  0.00  0.00    +0.037 A 
ATOM     23  C   UNL     1      -1.327   3.329   0.032  0.00  0.00    +0.014 A 
ATOM     24  C   UNL     1      -2.533   3.996   0.037  0.00  0.00    +0.016 A 
ATOM     25  C   UNL     1      -3.721   3.285   0.038  0.00  0.00    +0.018 A 
ATOM     26  C   UNL     1      -3.706   1.900   0.030  0.00  0.00    +0.016 A 
ATOM     27  C   UNL     1      -2.505   1.221   0.021  0.00  0.00    +0.014 A 
ATOM     28 BR   UNL     1      -5.372   4.208   0.051  0.00  0.00    -0.050 Br
ENDBRANCH  19  22
ENDBRANCH  17  18
ENDBRANCH  16  17
ENDBRANCH   2  16
TORSDOF 8
