REMARK  Name = ZINC13037288
REMARK  10 active torsions:
REMARK  status: ('A' for Active; 'I' for Inactive)
REMARK    1  A    between atoms: C_1  and  C_2
REMARK    2  A    between atoms: C_2  and  C_3
REMARK    3  A    between atoms: C_3  and  C_5
REMARK    4  A    between atoms: C_3  and  N_12
REMARK    5  A    between atoms: N_12  and  C_13
REMARK    6  A    between atoms: C_16  and  C_22
REMARK    7  A    between atoms: C_18  and  N_19
REMARK    8  A    between atoms: N_24  and  CA_25
REMARK    9  A    between atoms: CA_25  and  CB_27
REMARK   10  A    between atoms: CA_25  and  C_28
REMARK                            x       y       z     vdW  Elec       q    Type
REMARK                         _______ _______ _______ _____ _____    ______ ____
ROOT
ATOM      1  C   UNK A   0       7.438   6.168   0.179  0.00  0.00    +0.058 A 
ATOM      2  C   UNK A   0       7.074   4.930  -0.343  0.00  0.00    +0.026 A 
ATOM      3  C   UNK A   0       5.747   4.569  -0.401  0.00  0.00    +0.015 A 
ATOM      4  C   UNK A   0       4.763   5.452   0.056  0.00  0.00    +0.039 A 
ATOM      5  C   UNK A   0       5.132   6.694   0.580  0.00  0.00    +0.047 A 
ATOM      6  C   UNK A   0       6.461   7.047   0.640  0.00  0.00    +0.148 A 
ENDROOT
BRANCH   4   7
ATOM      7  C   UNK A   0       3.340   5.070  -0.010  0.00  0.00    +0.245 C 
ATOM      8  O   UNK A   0       2.486   5.837   0.392  0.00  0.00    -0.270 OA
ATOM      9  N   ALA A   1       2.986   3.872  -0.516  0.00  0.00    -0.298 N 
ATOM     10  H   ALA A   1       3.667   3.261  -0.838  0.00  0.00    +0.150 HD
BRANCH   9  11
ATOM     11  CA  ALA A   1       1.572   3.494  -0.582  0.00  0.00    +0.183 C 
ATOM     12  CB  ALA A   1       0.953   4.054  -1.864  0.00  0.00    +0.040 C 
BRANCH  11  13
ATOM     13  C   ALA A   1       1.454   1.991  -0.582  0.00  0.00    +0.376 C 
ATOM     14  O   ALA A   1       2.449   1.307  -0.532  0.00  0.00    -0.244 OA
ATOM     15  OXT ALA A   1       0.244   1.413  -0.637  0.00  0.00    -0.244 OA
ENDBRANCH  11  13
ENDBRANCH   9  11
ENDBRANCH   4   7
BRANCH   6  16
ATOM     16  N   UNK A   0       6.852   8.361   1.196  0.00  0.00    +0.058 N 
ATOM     17  O   UNK A   0       5.997   9.174   1.499  0.00  0.00    -0.126 OA
ATOM     18  O   UNK A   0       8.030   8.631   1.352  0.00  0.00    -0.126 OA
ENDBRANCH   6  16
BRANCH   1  19
ATOM     19  N   UNK A   0       8.779   6.528   0.241  0.00  0.00    -0.335 N 
ATOM     20  H   UNK A   0       9.040   7.353   0.679  0.00  0.00    +0.147 HD
BRANCH  19  21
ATOM     21  C   UNK A   0       9.798   5.660  -0.355  0.00  0.00    +0.100 C 
BRANCH  21  22
ATOM     22  C   UNK A   0       9.963   6.007  -1.812  0.00  0.00    -0.027 A 
ATOM     23  C   UNK A   0       9.935   7.329  -2.215  0.00  0.00    +0.006 A 
ATOM     24  C   UNK A   0      10.091   7.647  -3.551  0.00  0.00    +0.015 A 
ATOM     25  C   UNK A   0      10.264   6.643  -4.486  0.00  0.00    +0.018 A 
ATOM     26  C   UNK A   0      10.287   5.320  -4.083  0.00  0.00    +0.015 A 
ATOM     27  C   UNK A   0      10.136   5.002  -2.746  0.00  0.00    +0.006 A 
ATOM     28 BR   UNK A   0      10.471   7.077  -6.315  0.00  0.00    -0.050 Br
ENDBRANCH  21  22
BRANCH  21  30
ATOM     29  C   UNK A   0      11.002   5.376   1.816  0.00  0.00    +0.006 C 
ATOM     30  C   UNK A   0      11.130   5.864   0.372  0.00  0.00    +0.023 C 
ENDBRANCH  21  30
ENDBRANCH  19  21
ENDBRANCH   1  19
TORSDOF 8
