REMARK  Name = ZINC12917635
REMARK  3 active torsions:
REMARK  status: ('A' for Active; 'I' for Inactive)
REMARK    1  A    between atoms: N_7  and  S_15
REMARK    2  A    between atoms: C_9  and  C_12
REMARK    3  A    between atoms: S_15  and  C_18
REMARK                            x       y       z     vdW  Elec       q    Type
REMARK                         _______ _______ _______ _____ _____    ______ ____
ROOT
ATOM      1  C   UNL     1       0.004  -0.005  -0.009  0.00  0.00    +0.002 A 
ATOM      2  C   UNL     1       1.210  -0.680  -0.024  0.00  0.00    +0.004 A 
ATOM      3  C   UNL     1       2.402   0.021  -0.027  0.00  0.00    +0.047 A 
ATOM      4  C   UNL     1       2.392   1.407  -0.015  0.00  0.00    +0.144 A 
ATOM      5  C   UNL     1       1.176   2.085  -0.002  0.00  0.00    +0.093 A 
ATOM      6  C   UNL     1      -0.015   1.378   0.002  0.00  0.00    +0.028 A 
ATOM      7  N   UNL     1       1.161   3.489   0.002  0.00  0.00    -0.195 N 
ATOM      8  C   UNL     1       2.423   4.186   0.306  0.00  0.00    +0.185 C 
ATOM      9  C   UNL     1       3.549   3.453  -0.437  0.00  0.00    +0.277 C 
ATOM     10  O   UNL     1       3.569   2.088  -0.013  0.00  0.00    -0.476 OA
ENDROOT
BRANCH   9  11
ATOM     11  C   UNL     1       4.872   4.101  -0.120  0.00  0.00    +0.253 C 
ATOM     12  O   UNL     1       5.715   3.486   0.498  0.00  0.00    -0.272 OA
ATOM     13  N   UNL     1       5.119   5.363  -0.523  0.00  0.00    -0.326 N 
ATOM     14  H   UNL     1       4.444   5.854  -1.017  0.00  0.00    +0.145 HD
ATOM     15  H   UNL     1       5.971   5.779  -0.319  0.00  0.00    +0.145 HD
ENDBRANCH   9  11
BRANCH   7  16
ATOM     16  S   UNL     1      -0.227   4.332  -0.323  0.00  0.00    +0.075 S 
ATOM     17  O   UNL     1       0.172   5.649  -0.678  0.00  0.00    -0.150 OA
ATOM     18  O   UNL     1      -1.006   3.514  -1.185  0.00  0.00    -0.150 OA
BRANCH  16  19
ATOM     19  C   UNL     1      -1.121   4.466   1.189  0.00  0.00    +0.111 A 
ATOM     20  C   UNL     1      -2.042   3.495   1.536  0.00  0.00    +0.049 A 
ATOM     21  C   UNL     1      -2.740   3.598   2.726  0.00  0.00    +0.044 A 
ATOM     22  C   UNL     1      -2.525   4.678   3.563  0.00  0.00    +0.040 A 
ATOM     23  C   UNL     1      -1.608   5.652   3.213  0.00  0.00    +0.044 A 
ATOM     24  C   UNL     1      -0.905   5.545   2.026  0.00  0.00    +0.049 A 
ATOM     25 CL   UNL     1      -1.337   7.007   4.263  0.00  0.00    -0.083 Cl
ATOM     26 CL   UNL     1      -3.892   2.375   3.164  0.00  0.00    -0.083 Cl
ENDBRANCH  16  19
ENDBRANCH   7  16
TORSDOF 3
