REMARK  Name = ZINC35457502
REMARK  27 active torsions:
REMARK  status: ('A' for Active; 'I' for Inactive)
REMARK    1  A    between atoms: C_1  and  C_2
REMARK    2  A    between atoms: C_2  and  C_36
REMARK    3  A    between atoms: C_3  and  C_4
REMARK    4  A    between atoms: C_4  and  C_5
REMARK    5  A    between atoms: C_5  and  C_6
REMARK    6  A    between atoms: C_6  and  C_7
REMARK    7  A    between atoms: C_6  and  C_8
REMARK    8  A    between atoms: C_6  and  O_35
REMARK    9  A    between atoms: C_8  and  C_10
REMARK   10  A    between atoms: C_8  and  O_34
REMARK   11  A    between atoms: C_10  and  C_11
REMARK   12  A    between atoms: C_11  and  C_13
REMARK   13  A    between atoms: C_11  and  O_33
REMARK   14  A    between atoms: C_13  and  C_32
REMARK   15  A    between atoms: C_14  and  C_15
REMARK   16  A    between atoms: C_15  and  O_16
REMARK   17  A    between atoms: O_16  and  C_17
REMARK   18  A    between atoms: C_17  and  C_18
REMARK   19  A    between atoms: C_18  and  C_20
REMARK   20  A    between atoms: C_18  and  O_31
REMARK   21  A    between atoms: C_20  and  C_22
REMARK   22  A    between atoms: C_20  and  O_30
REMARK   23  A    between atoms: C_22  and  C_24
REMARK   24  A    between atoms: C_22  and  O_29
REMARK   25  A    between atoms: C_24  and  C_26
REMARK   26  A    between atoms: C_24  and  O_28
REMARK   27  A    between atoms: C_26  and  O_27
REMARK                            x       y       z     vdW  Elec       q    Type
REMARK                         _______ _______ _______ _____ _____    ______ ____
ROOT
ATOM      1  C   UNL     1      -2.864   0.391   9.279  0.00  0.00    -0.046 C 
ATOM      2  C   UNL     1      -2.364  -0.170  10.352  0.00  0.00    +0.002 C 
ATOM      3  C   UNL     1      -3.430   1.786   9.352  0.00  0.00    +0.041 C 
ENDROOT
BRANCH   2   4
ATOM      4  C   UNL     1      -2.354   0.579  11.659  0.00  0.00    +0.187 C 
BRANCH   4   5
ATOM      5  O   UNL     1      -2.792  -0.287  12.708  0.00  0.00    -0.373 OA
BRANCH   5   6
ATOM      6  C   UNL     1      -2.820   0.328  13.998  0.00  0.00    +0.194 C 
BRANCH   6   7
ATOM      7  C   UNL     1      -3.300  -0.686  15.037  0.00  0.00    +0.171 C 
BRANCH   7   8
ATOM      8  O   UNL     1      -4.655  -1.046  14.761  0.00  0.00    -0.387 OA
ATOM      9  H   UNL     1      -5.272  -0.301  14.782  0.00  0.00    +0.210 HD
ENDBRANCH   7   8
BRANCH   7  10
ATOM     10  C   UNL     1      -3.212  -0.067  16.433  0.00  0.00    +0.176 C 
BRANCH  10  11
ATOM     11  O   UNL     1      -1.856   0.293  16.710  0.00  0.00    -0.386 OA
ATOM     12  H   UNL     1      -1.240  -0.451  16.688  0.00  0.00    +0.210 HD
ENDBRANCH  10  11
BRANCH  10  13
ATOM     13  C   UNL     1      -3.692  -1.081  17.473  0.00  0.00    +0.176 C 
BRANCH  13  14
ATOM     14  O   UNL     1      -5.047  -1.441  17.196  0.00  0.00    -0.386 OA
ATOM     15  H   UNL     1      -5.664  -0.697  17.218  0.00  0.00    +0.210 HD
ENDBRANCH  13  14
BRANCH  13  16
ATOM     16  C   UNL     1      -3.603  -0.462  18.869  0.00  0.00    +0.171 C 
BRANCH  16  17
ATOM     17  O   UNL     1      -2.248  -0.102  19.145  0.00  0.00    -0.387 OA
ATOM     18  H   UNL     1      -1.632  -0.847  19.124  0.00  0.00    +0.210 HD
ENDBRANCH  16  17
BRANCH  16  19
ATOM     19  C   UNL     1      -4.084  -1.476  19.908  0.00  0.00    +0.189 C 
BRANCH  19  20
ATOM     20  O   UNL     1      -4.112  -0.861  21.198  0.00  0.00    -0.392 OA
ATOM     21  H   UNL     1      -4.408  -1.447  21.907  0.00  0.00    +0.210 HD
ENDBRANCH  19  20
ENDBRANCH  16  19
ENDBRANCH  13  16
ENDBRANCH  10  13
ENDBRANCH   7  10
ENDBRANCH   6   7
ENDBRANCH   5   6
ENDBRANCH   4   5
ENDBRANCH   2   4
BRANCH   1  22
ATOM     22  C   UNL     1      -2.874  -0.358   7.972  0.00  0.00    +0.143 C 
BRANCH  22  23
ATOM     23  O   UNL     1      -4.207  -0.406   7.460  0.00  0.00    -0.387 OA
ATOM     24  H   UNL     1      -4.596   0.463   7.293  0.00  0.00    +0.210 HD
ENDBRANCH  22  23
BRANCH  22  25
ATOM     25  C   UNL     1      -1.968   0.357   6.967  0.00  0.00    +0.070 C 
BRANCH  25  26
ATOM     26  C   UNL     1      -1.879  -0.469   5.683  0.00  0.00    +0.149 C 
BRANCH  26  27
ATOM     27  O   UNL     1      -3.164  -0.522   5.061  0.00  0.00    -0.389 OA
ATOM     28  H   UNL     1      -3.521   0.344   4.819  0.00  0.00    +0.210 HD
ENDBRANCH  26  27
BRANCH  26  29
ATOM     29  C   UNL     1      -0.876   0.182   4.727  0.00  0.00    +0.089 C 
ATOM     30  C   UNL     1      -1.272   1.640   4.488  0.00  0.00    +0.044 C 
BRANCH  29  31
ATOM     31  O   UNL     1       0.431   0.130   5.301  0.00  0.00    -0.386 OA
ATOM     32  H   UNL     1       0.747  -0.766   5.479  0.00  0.00    +0.210 HD
ENDBRANCH  29  31
BRANCH  29  33
ATOM     33  C   UNL     1      -0.879  -0.572   3.395  0.00  0.00    +0.041 C 
BRANCH  33  34
ATOM     34  C   UNL     1       0.123   0.078   2.439  0.00  0.00    +0.030 C 
BRANCH  34  37
ATOM     35  C   UNL     1      -0.201   1.487   0.018  0.00  0.00    +0.038 C 
ATOM     36  C   UNL     1      -0.087  -0.015   0.009  0.00  0.00    -0.080 C 
ATOM     37  C   UNL     1       0.121  -0.664   1.128  0.00  0.00    -0.028 C 
ATOM     38  C   UNL     1      -0.213  -0.772  -1.289  0.00  0.00    +0.038 C 
ENDBRANCH  34  37
ENDBRANCH  33  34
ENDBRANCH  29  33
ENDBRANCH  26  29
ENDBRANCH  25  26
ENDBRANCH  22  25
ENDBRANCH   1  22
TORSDOF 23
