REMARK  Name = ZINC16492075
REMARK  3 active torsions:
REMARK  status: ('A' for Active; 'I' for Inactive)
REMARK    1  A    between atoms: C_6  and  S_7
REMARK    2  A    between atoms: S_7  and  N_10
REMARK    3  A    between atoms: C_16  and  C_18
REMARK                            x       y       z     vdW  Elec       q    Type
REMARK                         _______ _______ _______ _____ _____    ______ ____
ROOT
ATOM      1  N   UNL     1      -2.738  -2.066  -1.758  0.00  0.00    -0.174 NA
ATOM      2  C   UNL     1      -3.578  -1.064  -2.428  0.00  0.00    +0.128 C 
ATOM      3  C   UNL     1      -2.700  -0.252  -3.388  0.00  0.00    +0.125 C 
ATOM      4  N   UNL     1      -1.918  -1.184  -4.211  0.00  0.00    -0.299 N 
ATOM      5  C   UNL     1      -1.077  -2.187  -3.541  0.00  0.00    +0.125 C 
ATOM      6  C   UNL     1      -1.951  -2.995  -2.580  0.00  0.00    +0.128 C 
ATOM      7  C   UNL     1      -1.970  -1.122  -5.557  0.00  0.00    +0.222 C 
ATOM      8  O   UNL     1      -1.251  -1.834  -6.225  0.00  0.00    -0.275 OA
ENDROOT
BRANCH   7   9
ATOM      9  C   UNL     1      -2.921  -0.167  -6.230  0.00  0.00    +0.117 C 
ATOM     10  C   UNL     1      -3.246  -0.671  -7.639  0.00  0.00    +0.055 C 
ATOM     11  C   UNL     1      -3.950   0.413  -8.416  0.00  0.00    -0.004 A 
ATOM     12  C   UNL     1      -4.658   0.065  -9.554  0.00  0.00    +0.027 A 
ATOM     13  C   UNL     1      -5.311   1.033 -10.293  0.00  0.00    +0.041 A 
ATOM     14  C   UNL     1      -5.259   2.358  -9.895  0.00  0.00    +0.023 A 
ATOM     15  C   UNL     1      -4.556   2.709  -8.761  0.00  0.00    +0.047 A 
ATOM     16  C   UNL     1      -3.899   1.737  -8.014  0.00  0.00    +0.124 A 
ATOM     17  O   UNL     1      -3.227   2.121  -6.898  0.00  0.00    -0.491 OA
ATOM     18  C   UNL     1      -2.268   1.215  -6.351  0.00  0.00    +0.242 C 
ATOM     19 CL   UNL     1      -6.198   0.588 -11.717  0.00  0.00    -0.084 Cl
ENDBRANCH   7   9
BRANCH   1  20
ATOM     20  S   UNL     1      -2.674  -2.142  -0.104  0.00  0.00    +0.061 S 
ATOM     21  O   UNL     1      -2.275  -3.466   0.226  0.00  0.00    -0.153 OA
ATOM     22  O   UNL     1      -3.882  -1.569   0.376  0.00  0.00    -0.153 OA
BRANCH  20  28
ATOM     23  C   UNL     1      -1.630   0.250   0.692  0.00  0.00    +0.031 A 
ATOM     24  C   UNL     1      -0.608   1.086   1.101  0.00  0.00    +0.042 A 
ATOM     25  C   UNL     1       0.678   0.592   1.234  0.00  0.00    +0.142 A 
ATOM     26  C   UNL     1       0.940  -0.740   0.956  0.00  0.00    +0.078 A 
ATOM     27  C   UNL     1      -0.085  -1.574   0.548  0.00  0.00    +0.051 A 
ATOM     28  C   UNL     1      -1.369  -1.079   0.416  0.00  0.00    +0.107 A 
ATOM     29 CL   UNL     1       2.552  -1.362   1.121  0.00  0.00    -0.081 Cl
ATOM     30  F   UNL     1       1.678   1.408   1.632  0.00  0.00    -0.204 F 
ENDBRANCH  20  28
ENDBRANCH   1  20
TORSDOF 3
