REMARK  Name = ZINC12972291
REMARK  8 active torsions:
REMARK  status: ('A' for Active; 'I' for Inactive)
REMARK    1  A    between atoms: C_1  and  C_2
REMARK    2  A    between atoms: C_4  and  C_15
REMARK    3  A    between atoms: C_6  and  S_9
REMARK    4  A    between atoms: C_7  and  C_8
REMARK    5  A    between atoms: S_9  and  N_12
REMARK    6  A    between atoms: N_12  and  C_13
REMARK    7  A    between atoms: N_12  and  C_14
REMARK    8  A    between atoms: C_20  and  C_23
REMARK                            x       y       z     vdW  Elec       q    Type
REMARK                         _______ _______ _______ _____ _____    ______ ____
ROOT
ATOM      1  C   UNL     1      -1.297   2.111   0.186  0.00  0.00    +0.250 C 
ATOM      2  O   UNL     1      -1.311   3.323   0.278  0.00  0.00    -0.270 OA
ATOM      3  N   UNL     1      -2.456   1.423   0.175  0.00  0.00    -0.261 N 
ATOM      4  C   UNL     1      -3.666   2.098   0.267  0.00  0.00    +0.165 A 
ATOM      5  N   UNL     1      -4.894   1.615   0.274  0.00  0.00    -0.225 NA
ATOM      6  C   UNL     1      -5.947   2.413   0.370  0.00  0.00    +0.080 A 
ATOM      7  C   UNL     1      -5.758   3.763   0.465  0.00  0.00    +0.076 A 
ATOM      8  S   UNL     1      -3.973   3.853   0.417  0.00  0.00    -0.060 S 
ATOM      9  H   UNL     1      -2.445   0.456   0.102  0.00  0.00    +0.157 HD
ENDROOT
BRANCH   6  10
ATOM     10  C   UNL     1      -7.317   1.846   0.374  0.00  0.00    +0.001 A 
ATOM     11  C   UNL     1      -8.427   2.691   0.370  0.00  0.00    +0.013 A 
ATOM     12  C   UNL     1      -9.699   2.164   0.377  0.00  0.00    +0.046 A 
ATOM     13  C   UNL     1      -9.891   0.784   0.388  0.00  0.00    +0.124 A 
ATOM     14  C   UNL     1      -8.781  -0.053   0.386  0.00  0.00    -0.002 A 
ATOM     15  C   UNL     1      -7.507   0.464   0.377  0.00  0.00    +0.017 A 
ATOM     16  C   UNL     1      -9.299  -1.478   0.385  0.00  0.00    +0.080 C 
ATOM     17  C   UNL     1     -10.780  -1.280  -0.015  0.00  0.00    +0.234 C 
ATOM     18  O   UNL     1     -11.048   0.066   0.413  0.00  0.00    -0.491 OA
ENDBRANCH   6  10
BRANCH   1  22
ATOM     19  C   UNL     1       1.239  -2.166  -0.228  0.00  0.00    +0.044 C 
ATOM     20  C   UNL     1       1.215  -0.664  -0.115  0.00  0.00    -0.045 A 
ATOM     21  C   UNL     1       0.010   0.001  -0.017  0.00  0.00    +0.016 A 
ATOM     22  C   UNL     1      -0.010   1.393   0.088  0.00  0.00    +0.039 A 
ATOM     23  C   UNL     1       1.192   2.103   0.094  0.00  0.00    +0.042 A 
ATOM     24  C   UNL     1       2.390   1.426  -0.004  0.00  0.00    +0.109 A 
ATOM     25  C   UNL     1       2.403   0.046  -0.109  0.00  0.00    -0.021 A 
ATOM     26  C   UNL     1       3.715  -0.686  -0.216  0.00  0.00    +0.046 C 
BRANCH  24  27
ATOM     27  S   UNL     1       3.908   2.321   0.003  0.00  0.00    +0.061 S 
ATOM     28  O   UNL     1       4.424   2.235   1.325  0.00  0.00    -0.153 OA
ATOM     29  O   UNL     1       4.644   1.883  -1.131  0.00  0.00    -0.153 OA
BRANCH  27  30
ATOM     30  N   UNL     1       3.539   3.914  -0.258  0.00  0.00    -0.183 NA
ATOM     31  C   UNL     1       3.372   4.823   0.879  0.00  0.00    +0.131 C 
ATOM     32  C   UNL     1       3.379   4.414  -1.625  0.00  0.00    +0.131 C 
ENDBRANCH  27  30
ENDBRANCH  24  27
ENDBRANCH   1  22
TORSDOF 4
