REMARK  Name = ZINC01230544
REMARK  3 active torsions:
REMARK  status: ('A' for Active; 'I' for Inactive)
REMARK    1  A    between atoms: C_5  and  N_7
REMARK    2  A    between atoms: C_8  and  C_9
REMARK    3  A    between atoms: C_14  and  O_15
REMARK                            x       y       z     vdW  Elec       q    Type
REMARK                         _______ _______ _______ _____ _____    ______ ____
ROOT
ATOM      1  N   UNL     1       1.200  -2.065  -0.021  0.00  0.00    -0.253 NA
ATOM      2  C   UNL     1       0.076  -2.721   0.085  0.00  0.00    +0.123 C 
ENDROOT
BRANCH   1   7
ATOM      3  C   UNL     1       0.478   1.375   0.992  0.00  0.00    +0.004 A 
ATOM      4  C   UNL     1       1.148   2.124   0.084  0.00  0.00    +0.031 A 
ATOM      5  C   UNL     1       1.904   1.517  -0.954  0.00  0.00    +0.102 A 
ATOM      6  C   UNL     1       1.946   0.061  -1.023  0.00  0.00    +0.125 A 
ATOM      7  C   UNL     1       1.196  -0.702  -0.005  0.00  0.00    +0.092 A 
ATOM      8  C   UNL     1       0.490  -0.014   0.964  0.00  0.00    +0.030 A 
ATOM      9  N   UNL     1       2.681  -0.397  -2.032  0.00  0.00    -0.189 NA
ATOM     10  S   UNL     1       3.242   0.908  -2.788  0.00  0.00    +0.117 S 
ATOM     11  N   UNL     1       2.613   2.106  -1.918  0.00  0.00    -0.191 NA
ENDBRANCH   1   7
BRANCH   2  12
ATOM     12  C   UNL     1       0.089  -4.187   0.188  0.00  0.00    +0.037 A 
ATOM     13  C   UNL     1      -1.113  -4.896   0.296  0.00  0.00    +0.028 A 
ATOM     14  C   UNL     1      -1.093  -6.271   0.391  0.00  0.00    +0.020 A 
ATOM     15  C   UNL     1       0.112  -6.956   0.381  0.00  0.00    +0.034 A 
ATOM     16  C   UNL     1       1.306  -6.268   0.275  0.00  0.00    +0.061 A 
ATOM     17  C   UNL     1       1.306  -4.886   0.171  0.00  0.00    +0.139 A 
ATOM     18 BR   UNL     1       2.943  -7.216   0.263  0.00  0.00    -0.046 Br
ATOM     19 BR   UNL     1      -2.718  -7.227   0.537  0.00  0.00    -0.050 Br
BRANCH  17  20
ATOM     20  O   UNL     1       2.478  -4.210   0.061  0.00  0.00    -0.505 OA
ATOM     21  H   UNL     1       2.865  -3.953   0.909  0.00  0.00    +0.292 HD
ENDBRANCH  17  20
ENDBRANCH   2  12
TORSDOF 3
