REMARK  Name = ZINC16492344
REMARK  3 active torsions:
REMARK  status: ('A' for Active; 'I' for Inactive)
REMARK    1  A    between atoms: C_1  and  C_2
REMARK    2  A    between atoms: C_7  and  C_8
REMARK    3  A    between atoms: N_22  and  C_23
REMARK                            x       y       z     vdW  Elec       q    Type
REMARK                         _______ _______ _______ _____ _____    ______ ____
ROOT
ATOM      1  C   UNL     1      -0.968   3.038  -0.736  0.00  0.00    +0.248 C 
ATOM      2  O   UNL     1      -2.069   2.608  -0.454  0.00  0.00    -0.270 OA
ATOM      3  N   UNL     1       0.122   2.264  -0.561  0.00  0.00    -0.282 N 
ATOM      4  C   UNL     1       1.435   2.643  -1.085  0.00  0.00    +0.120 C 
ATOM      5  C   UNL     1       2.574   2.098  -0.172  0.00  0.00    +0.090 C 
ATOM      6  S   UNL     1       1.823   0.460   0.248  0.00  0.00    -0.133 S 
ATOM      7  C   UNL     1       0.065   0.987   0.160  0.00  0.00    +0.087 C 
ATOM      8  C   UNL     1      -0.740  -0.046  -0.616  0.00  0.00    +0.056 C 
ATOM      9  C   UNL     1      -2.202   0.406  -0.704  0.00  0.00    +0.112 C 
ATOM     10  N   UNL     1      -2.691   0.689   0.652  0.00  0.00    -0.285 N 
ATOM     11  C   UNL     1      -1.943   1.635   1.492  0.00  0.00    +0.112 C 
ATOM     12  C   UNL     1      -0.482   1.176   1.568  0.00  0.00    +0.056 C 
ATOM     13  C   UNL     1      -3.805   0.092   1.118  0.00  0.00    +0.306 C 
ATOM     14  O   UNL     1      -4.261   0.414   2.199  0.00  0.00    -0.252 OA
ATOM     15  N   UNL     1      -4.414  -0.862   0.387  0.00  0.00    -0.268 N 
ATOM     16  H   UNL     1      -4.003  -1.183  -0.431  0.00  0.00    +0.156 HD
ENDROOT
BRANCH   1  23
ATOM     17  C   UNL     1      -2.328   5.232   0.571  0.00  0.00    +0.044 C 
ATOM     18  C   UNL     1      -1.475   5.475  -0.648  0.00  0.00    -0.038 A 
ATOM     19  C   UNL     1      -1.336   6.752  -1.151  0.00  0.00    +0.004 A 
ATOM     20  C   UNL     1      -0.553   6.977  -2.268  0.00  0.00    +0.000 A 
ATOM     21  C   UNL     1       0.096   5.925  -2.890  0.00  0.00    +0.001 A 
ATOM     22  C   UNL     1      -0.031   4.644  -2.394  0.00  0.00    +0.013 A 
ATOM     23  C   UNL     1      -0.824   4.409  -1.270  0.00  0.00    +0.040 A 
ENDBRANCH   1  23
BRANCH  15  24
ATOM     24  C   UNL     1      -5.641  -1.390   0.807  0.00  0.00    +0.049 A 
ATOM     25  C   UNL     1      -5.953  -1.433   2.160  0.00  0.00    +0.024 A 
ATOM     26  C   UNL     1      -7.166  -1.950   2.571  0.00  0.00    +0.002 A 
ATOM     27  C   UNL     1      -8.065  -2.434   1.639  0.00  0.00    +0.001 A 
ATOM     28  C   UNL     1      -7.756  -2.398   0.292  0.00  0.00    +0.017 A 
ATOM     29  C   UNL     1      -6.546  -1.877  -0.127  0.00  0.00    +0.039 A 
ATOM     30 BR   UNL     1      -6.123  -1.829  -1.970  0.00  0.00    -0.048 Br
ENDBRANCH  15  24
TORSDOF 2
