REMARK  Name = ZINC04331389
REMARK  8 active torsions:
REMARK  status: ('A' for Active; 'I' for Inactive)
REMARK    1  A    between atoms: C_1  and  C_2
REMARK    2  A    between atoms: C_2  and  C_30
REMARK    3  A    between atoms: C_6  and  C_18
REMARK    4  A    between atoms: C_11  and  S_15
REMARK    5  A    between atoms: S_15  and  C_16
REMARK    6  A    between atoms: C_21  and  N_24
REMARK    7  A    between atoms: N_24  and  C_25
REMARK    8  A    between atoms: N_24  and  C_26
REMARK                            x       y       z     vdW  Elec       q    Type
REMARK                         _______ _______ _______ _____ _____    ______ ____
ROOT
ATOM      1  C   UNL     1       0.345  10.130   4.837  0.00  0.00    +0.011 C 
ATOM      2  C   UNL     1       0.707   8.824   5.548  0.00  0.00    -0.023 C 
ATOM      3  C   UNL     1      -0.567   8.036   5.859  0.00  0.00    +0.058 C 
ATOM      4  C   UNL     1      -1.277   7.691   4.572  0.00  0.00    +0.017 C 
ATOM      5  C   UNL     1      -0.586   7.483   3.431  0.00  0.00    +0.024 C 
ATOM      6  C   UNL     1      -1.285   7.121   2.145  0.00  0.00    +0.090 C 
ATOM      7  C   UNL     1      -2.745   7.457   2.206  0.00  0.00    +0.044 A 
ATOM      8  C   UNL     1      -3.501   7.549   1.039  0.00  0.00    +0.126 A 
ATOM      9  N   UNL     1      -4.795   7.847   1.134  0.00  0.00    -0.207 NA
ATOM     10  C   UNL     1      -5.360   8.053   2.315  0.00  0.00    +0.191 A 
ATOM     11  N   UNL     1      -4.669   7.974   3.443  0.00  0.00    -0.206 NA
ATOM     12  C   UNL     1      -3.372   7.681   3.422  0.00  0.00    +0.133 A 
ATOM     13  N   UNL     1      -2.642   7.598   4.595  0.00  0.00    -0.302 N 
ATOM     14  N   UNL     1      -2.916   7.334  -0.199  0.00  0.00    -0.343 N 
ATOM     15  C   UNL     1       0.815   7.599   3.404  0.00  0.00    +0.162 C 
ATOM     16  O   UNL     1       1.409   7.395   2.363  0.00  0.00    -0.292 OA
ATOM     17  C   UNL     1       1.594   7.970   4.636  0.00  0.00    +0.086 C 
ATOM     18  C   UNL     1       1.451   9.135   6.848  0.00  0.00    +0.011 C 
ATOM     19  H   UNL     1      -3.102   7.473   5.441  0.00  0.00    +0.153 HD
ATOM     20  H   UNL     1      -3.451   7.400  -1.006  0.00  0.00    +0.144 HD
ATOM     21  H   UNL     1      -1.973   7.117  -0.259  0.00  0.00    +0.144 HD
ENDROOT
BRANCH   6  22
ATOM     22  C   UNL     1      -1.129   5.643   1.898  0.00  0.00    -0.035 A 
ATOM     23  C   UNL     1      -0.481   5.199   0.760  0.00  0.00    +0.006 A 
ATOM     24  C   UNL     1      -0.336   3.845   0.530  0.00  0.00    +0.023 A 
ATOM     25  C   UNL     1      -0.843   2.928   1.443  0.00  0.00    +0.029 A 
ATOM     26  C   UNL     1      -1.498   3.378   2.583  0.00  0.00    +0.023 A 
ATOM     27  C   UNL     1      -1.634   4.734   2.809  0.00  0.00    +0.006 A 
BRANCH  25  28
ATOM     28  N   UNL     1      -0.698   1.558   1.213  0.00  0.00    -0.336 N 
ATOM     29  C   UNL     1      -0.013   1.086   0.008  0.00  0.00    +0.129 C 
ATOM     30  C   UNL     1      -1.233   0.594   2.178  0.00  0.00    +0.129 C 
ENDBRANCH  25  28
ENDBRANCH   6  22
BRANCH  10  31
ATOM     31  S   UNL     1      -7.077   8.443   2.387  0.00  0.00    -0.089 S 
ATOM     32  C   UNL     1      -7.480   8.415   0.623  0.00  0.00    +0.093 C 
ENDBRANCH  10  31
TORSDOF 3
