REMARK  Name = ZINC20144547
REMARK  8 active torsions:
REMARK  status: ('A' for Active; 'I' for Inactive)
REMARK    1  A    between atoms: C_1  and  C_2
REMARK    2  A    between atoms: C_7  and  O_8
REMARK    3  A    between atoms: O_8  and  C_9
REMARK    4  A    between atoms: C_9  and  C_10
REMARK    5  A    between atoms: N_12  and  C_13
REMARK    6  A    between atoms: C_16  and  C_19
REMARK    7  A    between atoms: C_22  and  C_24
REMARK    8  A    between atoms: C_24  and  O_25
REMARK                            x       y       z     vdW  Elec       q    Type
REMARK                         _______ _______ _______ _____ _____    ______ ____
ROOT
ATOM      1  C   UNL     1      -1.194   0.512   4.562  0.00  0.00    +0.255 C 
ATOM      2  O   UNL     1      -0.207   0.301   5.235  0.00  0.00    -0.272 OA
ATOM      3  N   UNL     1      -2.115   1.404   4.977  0.00  0.00    -0.283 N 
ATOM      4  H   UNL     1      -2.869   1.623   4.408  0.00  0.00    +0.155 HD
ENDROOT
BRANCH   3   5
ATOM      5  C   UNL     1      -1.983   2.014   6.229  0.00  0.00    +0.034 A 
ATOM      6  C   UNL     1      -0.720   2.330   6.716  0.00  0.00    +0.024 A 
ATOM      7  C   UNL     1      -0.586   2.931   7.949  0.00  0.00    +0.013 A 
ATOM      8  C   UNL     1      -1.721   3.224   8.708  0.00  0.00    +0.017 A 
ATOM      9  C   UNL     1      -2.988   2.906   8.214  0.00  0.00    +0.013 A 
ATOM     10  C   UNL     1      -3.115   2.309   6.979  0.00  0.00    +0.024 A 
BRANCH   8  11
ATOM     11  C   UNL     1      -1.582   3.869  10.030  0.00  0.00    +0.135 A 
ATOM     12  C   UNL     1      -2.600   4.201  10.868  0.00  0.00    +0.050 A 
ATOM     13  C   UNL     1      -2.014   4.788  12.007  0.00  0.00    +0.047 A 
ATOM     14  C   UNL     1      -0.682   4.785  11.811  0.00  0.00    +0.131 A 
ATOM     15  O   UNL     1      -0.423   4.224  10.618  0.00  0.00    -0.457 OA
BRANCH  14  16
ATOM     16  C   UNL     1       0.349   5.318  12.773  0.00  0.00    +0.230 C 
BRANCH  16  17
ATOM     17  O   UNL     1       0.758   4.274  13.659  0.00  0.00    -0.387 OA
ATOM     18  H   UNL     1       1.422   4.546  14.307  0.00  0.00    +0.210 HD
ENDBRANCH  16  17
ENDBRANCH  14  16
ENDBRANCH   8  11
ENDBRANCH   3   5
BRANCH   1  19
ATOM     19  C   UNL     1      -1.389  -0.223   3.261  0.00  0.00    +0.325 C 
BRANCH  19  20
ATOM     20  O   UNL     1      -0.287  -1.105   3.042  0.00  0.00    -0.481 OA
BRANCH  20  27
ATOM     21  C   UNL     1       0.911   0.006   0.739  0.00  0.00    +0.047 C 
ATOM     22  C   UNL     1       0.265  -1.355   0.741  0.00  0.00    -0.006 A 
ATOM     23  C   UNL     1       0.247  -2.114  -0.413  0.00  0.00    +0.027 A 
ATOM     24  C   UNL     1      -0.346  -3.364  -0.412  0.00  0.00    +0.043 A 
ATOM     25  C   UNL     1      -0.924  -3.856   0.745  0.00  0.00    +0.043 A 
ATOM     26  C   UNL     1      -0.909  -3.100   1.902  0.00  0.00    +0.084 A 
ATOM     27  C   UNL     1      -0.308  -1.849   1.904  0.00  0.00    +0.142 A 
ATOM     28 CL   UNL     1      -1.635  -3.718   3.353  0.00  0.00    -0.080 Cl
ATOM     29 CL   UNL     1      -0.367  -4.314  -1.864  0.00  0.00    -0.083 Cl
ENDBRANCH  20  27
ENDBRANCH  19  20
ENDBRANCH   1  19
TORSDOF 7
