REMARK  Name = ZINC09950387
REMARK  8 active torsions:
REMARK  status: ('A' for Active; 'I' for Inactive)
REMARK    1  A    between atoms: C_1  and  O_2
REMARK    2  A    between atoms: O_2  and  C_3
REMARK    3  A    between atoms: C_6  and  C_9
REMARK    4  A    between atoms: C_12  and  C_30
REMARK    5  A    between atoms: C_15  and  C_17
REMARK    6  A    between atoms: C_17  and  N_65
REMARK    7  A    between atoms: N_20  and  C_23
REMARK    8  A    between atoms: C_28  and  O_29
REMARK                            x       y       z     vdW  Elec       q    Type
REMARK                         _______ _______ _______ _____ _____    ______ ____
ROOT
ATOM      1  C   UNL     1       4.281   5.942   0.733  0.00  0.00    +0.137 C 
ATOM      2  C   UNL     1       3.974   7.453   0.708  0.00  0.00    +0.087 C 
ATOM      3  C   UNL     1       2.508   7.521   0.346  0.00  0.00    +0.069 C 
ATOM      4  N   UNL     1       2.048   6.328   0.187  0.00  0.00    -0.181 NA
ATOM      5  N   UNL     1       2.990   5.322   0.392  0.00  0.00    -0.187 N 
ATOM      6  C   UNL     1       2.759   3.999   0.289  0.00  0.00    +0.219 C 
ATOM      7  O   UNL     1       3.659   3.209   0.485  0.00  0.00    -0.276 OA
ENDROOT
BRANCH   1  11
ATOM      8  C   UNL     1       5.549   4.730   4.630  0.00  0.00    +0.120 A 
ATOM      9  C   UNL     1       6.477   4.865   3.608  0.00  0.00    +0.046 A 
ATOM     10  C   UNL     1       6.065   5.257   2.349  0.00  0.00    +0.009 A 
ATOM     11  C   UNL     1       4.728   5.514   2.107  0.00  0.00    -0.024 A 
ATOM     12  C   UNL     1       3.801   5.386   3.125  0.00  0.00    +0.009 A 
ATOM     13  C   UNL     1       4.208   4.988   4.384  0.00  0.00    +0.046 A 
BRANCH   8  15
ATOM     14  C   UNL     1       4.942   4.226   6.872  0.00  0.00    +0.277 C 
ATOM     15  O   UNL     1       5.952   4.345   5.869  0.00  0.00    -0.495 OA
ENDBRANCH   8  15
ENDBRANCH   1  11
BRANCH   3  16
ATOM     16  C   UNL     1       1.725   8.762   0.194  0.00  0.00    -0.002 A 
ATOM     17  C   UNL     1       2.334  10.003   0.392  0.00  0.00    +0.010 A 
ATOM     18  C   UNL     1       1.597  11.160   0.243  0.00  0.00    +0.001 A 
ATOM     19  C   UNL     1       0.256  11.092  -0.092  0.00  0.00    +0.000 A 
ATOM     20  C   UNL     1      -0.354   9.865  -0.284  0.00  0.00    +0.001 A 
ATOM     21  C   UNL     1       0.371   8.701  -0.144  0.00  0.00    +0.010 A 
ENDBRANCH   3  16
BRANCH   6  22
ATOM     22  C   UNL     1       1.383   3.500  -0.069  0.00  0.00    +0.021 C 
BRANCH  22  28
ATOM     23  C   UNL     1       2.234   1.692  -1.438  0.00  0.00    -0.059 C 
ATOM     24  C   UNL     1       2.318   0.169  -1.558  0.00  0.00    +0.086 C 
ATOM     25  N   UNL     1       0.963  -0.387  -1.670  0.00  0.00    -0.331 N 
ATOM     26  C   UNL     1       0.153  -0.035  -0.495  0.00  0.00    +0.086 C 
ATOM     27  C   UNL     1       0.069   1.488  -0.374  0.00  0.00    -0.059 C 
ATOM     28  N   UNL     1       1.437   2.032  -0.240  0.00  0.00    +0.387 N 
ATOM     29  H   UNL     1       1.882   1.616   0.586  0.00  0.00    -0.081 HD
BRANCH  25  30
ATOM     30  C   UNL     1       1.002  -1.774  -1.855  0.00  0.00    +0.072 A 
ATOM     31  C   UNL     1       1.599  -2.585  -0.901  0.00  0.00    +0.027 A 
ATOM     32  C   UNL     1       1.632  -3.955  -1.083  0.00  0.00    +0.002 A 
ATOM     33  C   UNL     1       1.082  -4.519  -2.219  0.00  0.00    +0.004 A 
ATOM     34  C   UNL     1       0.491  -3.715  -3.177  0.00  0.00    +0.047 A 
ATOM     35  C   UNL     1       0.449  -2.342  -3.000  0.00  0.00    +0.138 A 
BRANCH  35  36
ATOM     36  O   UNL     1      -0.132  -1.551  -3.941  0.00  0.00    -0.505 OA
ATOM     37  H   UNL     1       0.476  -1.244  -4.627  0.00  0.00    +0.292 HD
ENDBRANCH  35  36
ENDBRANCH  25  30
ENDBRANCH  22  28
ENDBRANCH   6  22
TORSDOF 7
