REMARK  Name = ZINC34719201
REMARK  3 active torsions:
REMARK  status: ('A' for Active; 'I' for Inactive)
REMARK    1  A    between atoms: C_1  and  C_2
REMARK    2  A    between atoms: C_4  and  N_34
REMARK    3  A    between atoms: C_7  and  N_8
REMARK                            x       y       z     vdW  Elec       q    Type
REMARK                         _______ _______ _______ _____ _____    ______ ____
ROOT
ATOM      1  N   UNL     1       0.026  -0.013   2.419  0.00  0.00    -0.210 N 
ATOM      2  C   UNL     1      -1.110   0.340   3.090  0.00  0.00    +0.232 C 
ATOM      3  O   UNL     1      -2.227  -0.100   2.922  0.00  0.00    -0.274 OA
ATOM      4  C   UNL     1      -0.687   1.391   4.084  0.00  0.00    +0.107 C 
ATOM      5  C   UNL     1      -1.246   1.347   5.504  0.00  0.00    +0.071 C 
ATOM      6  C   UNL     1      -1.573  -0.097   5.928  0.00  0.00    +0.021 C 
ATOM      7  C   UNL     1      -1.315  -0.043   7.458  0.00  0.00    +0.017 C 
ATOM      8  C   UNL     1      -0.112   0.917   7.575  0.00  0.00    +0.086 C 
ATOM      9  N   UNL     1      -0.087   1.767   6.357  0.00  0.00    -0.281 NA
ATOM     10  C   UNL     1       1.162   1.497   5.586  0.00  0.00    +0.138 C 
ATOM     11  C   UNL     1       0.729   0.754   4.391  0.00  0.00    +0.123 C 
ATOM     12  C   UNL     1       1.170   0.378   3.069  0.00  0.00    +0.233 C 
ATOM     13  O   UNL     1       2.300   0.404   2.630  0.00  0.00    -0.274 OA
ATOM     14  C   UNL     1       1.840   2.804   5.258  0.00  0.00    +0.005 A 
ATOM     15  C   UNL     1       1.466   3.898   4.511  0.00  0.00    +0.023 A 
ATOM     16  C   UNL     1       2.323   4.978   4.387  0.00  0.00    +0.018 A 
ATOM     17  C   UNL     1       3.555   4.953   5.016  0.00  0.00    +0.017 A 
ATOM     18  C   UNL     1       3.933   3.859   5.767  0.00  0.00    +0.025 A 
ATOM     19  C   UNL     1       3.075   2.769   5.896  0.00  0.00    +0.039 A 
ATOM     20  N   UNL     1       3.226   1.567   6.591  0.00  0.00    -0.283 N 
ATOM     21  C   UNL     1       2.151   0.768   6.462  0.00  0.00    +0.243 C 
ATOM     22  O   UNL     1       2.005  -0.330   6.957  0.00  0.00    -0.273 OA
ATOM     23 BR   UNL     1       1.812   6.481   3.360  0.00  0.00    -0.050 Br
ATOM     24  H   UNL     1       4.014   1.335   7.106  0.00  0.00    +0.155 HD
ENDROOT
BRANCH   1  31
ATOM     25  C   UNL     1      -0.018   1.503   0.010  0.00  0.00    +0.046 C 
ATOM     26  C   UNL     1       0.002  -0.004   0.002  0.00  0.00    -0.026 A 
ATOM     27  C   UNL     1       0.006  -0.689  -1.198  0.00  0.00    +0.038 A 
ATOM     28  C   UNL     1       0.024  -2.071  -1.206  0.00  0.00    +0.127 A 
ATOM     29  C   UNL     1       0.040  -2.773  -0.014  0.00  0.00    +0.034 A 
ATOM     30  C   UNL     1       0.035  -2.094   1.188  0.00  0.00    +0.026 A 
ATOM     31  C   UNL     1       0.023  -0.705   1.200  0.00  0.00    +0.047 A 
BRANCH  28  32
ATOM     32  N   UNL     1       0.028  -2.802  -2.493  0.00  0.00    +0.056 N 
ATOM     33  O   UNL     1       0.014  -2.190  -3.536  0.00  0.00    -0.126 OA
ATOM     34  O   UNL     1       0.044  -4.011  -2.502  0.00  0.00    -0.126 OA
ENDBRANCH  28  32
ENDBRANCH   1  31
TORSDOF 2
