REMARK  Name = ZINC01432020
REMARK  6 active torsions:
REMARK  status: ('A' for Active; 'I' for Inactive)
REMARK    1  A    between atoms: C_1  and  C_2
REMARK    2  A    between atoms: C_2  and  C_37
REMARK    3  A    between atoms: C_6  and  C_25
REMARK    4  A    between atoms: C_8  and  C_23
REMARK    5  A    between atoms: C_9  and  N_18
REMARK    6  A    between atoms: N_10  and  C_11
REMARK                            x       y       z     vdW  Elec       q    Type
REMARK                         _______ _______ _______ _____ _____    ______ ____
ROOT
ATOM      1  C   UNL     1       0.842   2.400   3.365  0.00  0.00    +0.011 C 
ATOM      2  C   UNL     1      -0.243   2.652   2.317  0.00  0.00    -0.023 C 
ATOM      3  C   UNL     1       0.271   3.648   1.274  0.00  0.00    +0.058 C 
ATOM      4  C   UNL     1       1.475   3.070   0.572  0.00  0.00    +0.025 C 
ATOM      5  C   UNL     1       1.608   1.738   0.401  0.00  0.00    +0.025 C 
ATOM      6  C   UNL     1       2.812   1.164  -0.304  0.00  0.00    +0.098 C 
ATOM      7  C   UNL     1       3.522   2.215  -1.105  0.00  0.00    +0.080 C 
ATOM      8  C   UNL     1       3.314   3.532  -0.873  0.00  0.00    +0.128 C 
ATOM      9  N   UNL     1       2.432   3.932   0.105  0.00  0.00    -0.258 N 
ATOM     10  C   UNL     1       0.631   0.845   0.875  0.00  0.00    +0.162 C 
ATOM     11  O   UNL     1       0.774  -0.348   0.692  0.00  0.00    -0.292 OA
ATOM     12  C   UNL     1      -0.590   1.339   1.601  0.00  0.00    +0.086 C 
ATOM     13  C   UNL     1      -1.492   3.217   2.995  0.00  0.00    +0.011 C 
ENDROOT
BRANCH   6  14
ATOM     14  C   UNL     1       3.761   0.598   0.721  0.00  0.00    -0.031 A 
ATOM     15  C   UNL     1       4.301   1.422   1.690  0.00  0.00    +0.008 A 
ATOM     16  C   UNL     1       5.169   0.906   2.635  0.00  0.00    +0.050 A 
ATOM     17  C   UNL     1       5.507  -0.437   2.606  0.00  0.00    +0.166 A 
ATOM     18  C   UNL     1       4.966  -1.266   1.626  0.00  0.00    +0.167 A 
ATOM     19  C   UNL     1       4.093  -0.744   0.686  0.00  0.00    +0.054 A 
ATOM     20  O   UNL     1       5.449  -2.530   1.810  0.00  0.00    -0.453 OA
ATOM     21  C   UNL     1       5.967  -2.553   3.153  0.00  0.00    +0.466 C 
ATOM     22  O   UNL     1       6.328  -1.181   3.403  0.00  0.00    -0.453 OA
ENDBRANCH   6  14
BRANCH   9  23
ATOM     23  C   UNL     1       2.513   5.229   0.626  0.00  0.00    +0.040 A 
ATOM     24  C   UNL     1       1.683   6.229   0.135  0.00  0.00    +0.026 A 
ATOM     25  C   UNL     1       1.760   7.506   0.655  0.00  0.00    +0.040 A 
ATOM     26  C   UNL     1       2.673   7.793   1.656  0.00  0.00    +0.124 A 
ATOM     27  C   UNL     1       3.505   6.799   2.143  0.00  0.00    +0.040 A 
ATOM     28  C   UNL     1       3.427   5.519   1.630  0.00  0.00    +0.026 A 
ATOM     29  F   UNL     1       2.751   9.044   2.160  0.00  0.00    -0.205 F 
ENDBRANCH   9  23
BRANCH   8  30
ATOM     30  N   UNL     1       3.991   4.481  -1.623  0.00  0.00    -0.310 N 
ATOM     31  C   UNL     1       3.421   5.551  -2.259  0.00  0.00    +0.092 A 
ATOM     32  C   UNL     1       4.399   6.242  -2.877  0.00  0.00    +0.019 A 
ATOM     33  C   UNL     1       5.616   5.574  -2.624  0.00  0.00    +0.019 A 
ATOM     34  C   UNL     1       5.339   4.502  -1.856  0.00  0.00    +0.092 A 
ENDBRANCH   8  30
BRANCH   7  35
ATOM     35  C   UNL     1       4.437   1.817  -2.132  0.00  0.00    +0.099 C 
ATOM     36  N   UNL     1       5.162   1.502  -2.948  0.00  0.00    -0.191 NA
ENDBRANCH   7  35
TORSDOF 4
