REMARK  Name = ZINC06819950
REMARK  5 active torsions:
REMARK  status: ('A' for Active; 'I' for Inactive)
REMARK    1  A    between atoms: C_2  and  C_3
REMARK    2  A    between atoms: C_3  and  O_4
REMARK    3  A    between atoms: O_4  and  C_5
REMARK    4  A    between atoms: C_8  and  C_12
REMARK    5  A    between atoms: N_13  and  N_14
REMARK                            x       y       z     vdW  Elec       q    Type
REMARK                         _______ _______ _______ _____ _____    ______ ____
ROOT
ATOM      1  C   UNL     1      -2.318  -2.629  -1.069  0.00  0.00    +0.149 A 
ATOM      2  C   UNL     1      -2.434  -3.769  -0.282  0.00  0.00    +0.061 A 
ATOM      3  C   UNL     1      -3.543  -4.580  -0.401  0.00  0.00    +0.028 A 
ATOM      4  C   UNL     1      -4.550  -4.255  -1.313  0.00  0.00    -0.003 A 
ATOM      5  C   UNL     1      -4.429  -3.108  -2.102  0.00  0.00    +0.028 A 
ATOM      6  C   UNL     1      -3.319  -2.299  -1.973  0.00  0.00    +0.061 A 
ATOM      7 BR   UNL     1      -3.157  -0.743  -3.035  0.00  0.00    -0.046 Br
ATOM      8 BR   UNL     1      -1.071  -4.207   0.952  0.00  0.00    -0.046 Br
ENDROOT
BRANCH   4   9
ATOM      9  C   UNL     1      -5.737  -5.120  -1.444  0.00  0.00    +0.140 C 
ATOM     10  N   UNL     1      -6.671  -4.817  -2.292  0.00  0.00    -0.179 NA
BRANCH  10  11
ATOM     11  N   UNL     1      -7.798  -5.639  -2.416  0.00  0.00    -0.249 N 
ATOM     12  C   UNL     1      -8.784  -5.318  -3.311  0.00  0.00    +0.187 C 
ATOM     13  N   UNL     1      -9.857  -6.100  -3.429  0.00  0.00    -0.370 N 
ATOM     14  N   UNL     1      -8.671  -4.225  -4.064  0.00  0.00    -0.370 N 
ATOM     15  H   UNL     1      -7.881  -6.435  -1.868  0.00  0.00    +0.192 HD
ATOM     16  H   UNL     1      -9.939  -6.896  -2.881  0.00  0.00    +0.159 HD
ATOM     17  H   UNL     1      -7.890  -3.656  -3.978  0.00  0.00    +0.159 HD
ATOM     18  H   UNL     1      -9.369  -3.998  -4.697  0.00  0.00    +0.159 HD
ATOM     19  H   UNL     1     -10.555  -5.873  -4.063  0.00  0.00    +0.159 HD
ENDBRANCH  10  11
ENDBRANCH   4   9
BRANCH   1  20
ATOM     20  O   UNL     1      -1.224  -1.832  -0.949  0.00  0.00    -0.486 OA
BRANCH  20  21
ATOM     21  C   UNL     1      -1.293  -0.775   0.010  0.00  0.00    +0.256 C 
BRANCH  21  23
ATOM     22  C   UNL     1      -0.016   1.306   0.009  0.00  0.00    +0.007 C 
ATOM     23  C   UNL     1       0.002  -0.004   0.002  0.00  0.00    +0.006 C 
ENDBRANCH  21  23
ENDBRANCH  20  21
ENDBRANCH   1  20
TORSDOF 5
