REMARK  Name = ZINC18175320
REMARK  3 active torsions:
REMARK  status: ('A' for Active; 'I' for Inactive)
REMARK    1  A    between atoms: C_4  and  C_7
REMARK    2  A    between atoms: C_22  and  N_26
REMARK    3  A    between atoms: C_23  and  C_24
REMARK                            x       y       z     vdW  Elec       q    Type
REMARK                         _______ _______ _______ _____ _____    ______ ____
ROOT
ATOM      1  C   UNL     1       3.705  -0.693   0.223  0.00  0.00    +0.022 A 
ATOM      2  C   UNL     1       3.919  -2.028   0.134  0.00  0.00    +0.029 A 
ATOM      3  C   UNL     1       5.279  -2.515   0.021  0.00  0.00    +0.048 A 
ATOM      4  C   UNL     1       5.760  -3.851  -0.084  0.00  0.00    +0.133 A 
ATOM      5  N   UNL     1       7.063  -4.061  -0.178  0.00  0.00    -0.220 NA
ATOM      6  C   UNL     1       7.938  -3.071  -0.178  0.00  0.00    +0.224 A 
ATOM      7  N   UNL     1       7.553  -1.813  -0.083  0.00  0.00    -0.228 NA
ATOM      8  C   UNL     1       6.274  -1.511   0.014  0.00  0.00    +0.114 A 
ATOM      9  S   UNL     1       5.348  -0.005   0.150  0.00  0.00    -0.069 S 
ATOM     10  N   UNL     1       4.877  -4.915  -0.088  0.00  0.00    -0.309 N 
ATOM     11  C   UNL     1       4.301  -5.423  -1.342  0.00  0.00    +0.111 C 
ATOM     12  C   UNL     1       4.778  -6.858  -1.581  0.00  0.00    +0.056 C 
ATOM     13  C   UNL     1       4.607  -7.660  -0.300  0.00  0.00    -0.015 A 
ATOM     14  C   UNL     1       4.481  -7.057   0.902  0.00  0.00    +0.013 A 
ATOM     15  S   UNL     1       4.315  -8.384   2.059  0.00  0.00    -0.076 S 
ATOM     16  C   UNL     1       4.404  -9.692   1.009  0.00  0.00    +0.081 A 
ATOM     17  C   UNL     1       4.564  -9.112  -0.240  0.00  0.00    +0.083 A 
ATOM     18  C   UNL     1       4.483  -5.586   1.167  0.00  0.00    +0.149 C 
ENDROOT
BRANCH   1  22
ATOM     19  C   UNL     1       0.003   1.361   0.571  0.00  0.00    +0.000 A 
ATOM     20  C   UNL     1       1.187   2.076   0.531  0.00  0.00    +0.001 A 
ATOM     21  C   UNL     1       2.393   1.415   0.418  0.00  0.00    +0.009 A 
ATOM     22  C   UNL     1       2.416   0.022   0.344  0.00  0.00    -0.011 A 
ATOM     23  C   UNL     1       1.219  -0.694   0.386  0.00  0.00    +0.009 A 
ATOM     24  C   UNL     1       0.020  -0.021   0.499  0.00  0.00    +0.001 A 
ENDBRANCH   1  22
BRANCH  16  25
ATOM     25  N   UNL     1       4.335 -11.039   1.319  0.00  0.00    -0.352 N 
ATOM     26  H   UNL     1       4.221 -11.319   2.241  0.00  0.00    +0.143 HD
ATOM     27  H   UNL     1       4.401 -11.703   0.615  0.00  0.00    +0.143 HD
ENDBRANCH  16  25
BRANCH  17  28
ATOM     28  C   UNL     1       4.680  -9.910  -1.424  0.00  0.00    +0.102 C 
ATOM     29  N   UNL     1       4.772 -10.544  -2.362  0.00  0.00    -0.191 NA
ENDBRANCH  17  28
TORSDOF 3
