REMARK  Name = ZINC26104877
REMARK  6 active torsions:
REMARK  status: ('A' for Active; 'I' for Inactive)
REMARK    1  A    between atoms: C_1  and  C_2
REMARK    2  A    between atoms: C_2  and  C_4
REMARK    3  A    between atoms: C_2  and  S_16
REMARK    4  A    between atoms: N_6  and  C_7
REMARK    5  A    between atoms: S_16  and  C_17
REMARK    6  A    between atoms: N_26  and  C_27
REMARK                            x       y       z     vdW  Elec       q    Type
REMARK                         _______ _______ _______ _____ _____    ______ ____
ROOT
ATOM      1  C   UNL     1      -0.759   1.577  -1.211  0.00  0.00    +0.029 C 
ATOM      2  C   UNL     1      -0.008   1.075   0.024  0.00  0.00    +0.137 C 
ENDROOT
BRANCH   2   3
ATOM      3  C   UNL     1       1.403   1.603   0.003  0.00  0.00    +0.230 C 
ATOM      4  O   UNL     1       1.700   2.567   0.678  0.00  0.00    -0.274 OA
ATOM      5  N   UNL     1       2.336   1.006  -0.765  0.00  0.00    -0.282 N 
ATOM      6  H   UNL     1       2.086   0.089  -1.320  0.00  0.00    +0.155 HD
BRANCH   5   7
ATOM      7  C   UNL     1       3.623   1.552  -0.857  0.00  0.00    +0.072 A 
ATOM      8  C   UNL     1       4.194   2.175   0.244  0.00  0.00    +0.029 A 
ATOM      9  C   UNL     1       5.463   2.712   0.153  0.00  0.00    +0.043 A 
ATOM     10  C   UNL     1       6.168   2.632  -1.036  0.00  0.00    +0.161 A 
ATOM     11  C   UNL     1       5.602   2.011  -2.138  0.00  0.00    +0.195 A 
ATOM     12  C   UNL     1       4.332   1.466  -2.050  0.00  0.00    +0.182 A 
ATOM     13  F   UNL     1       3.780   0.857  -3.122  0.00  0.00    -0.200 F 
ATOM     14  F   UNL     1       6.291   1.934  -3.298  0.00  0.00    -0.199 F 
ATOM     15  F   UNL     1       7.409   3.159  -1.121  0.00  0.00    -0.202 F 
ENDBRANCH   5   7
ENDBRANCH   2   3
BRANCH   2  16
ATOM     16  S   UNL     1      -0.848   1.655   1.518  0.00  0.00    -0.075 S 
BRANCH  16  17
ATOM     17  C   UNL     1      -2.376   0.791   1.365  0.00  0.00    +0.173 A 
ATOM     18  N   UNL     1      -2.554   0.017   0.329  0.00  0.00    -0.222 NA
ATOM     19  C   UNL     1      -3.709  -0.689   0.145  0.00  0.00    +0.086 A 
ATOM     20  C   UNL     1      -4.042  -1.557  -0.906  0.00  0.00    +0.036 A 
ATOM     21  C   UNL     1      -5.245  -2.169  -0.926  0.00  0.00    +0.048 A 
ATOM     22  S   UNL     1      -6.021  -1.562   0.562  0.00  0.00    -0.090 S 
ATOM     23  C   UNL     1      -4.700  -0.524   1.129  0.00  0.00    +0.102 A 
ATOM     24  C   UNL     1      -4.504   0.308   2.229  0.00  0.00    +0.269 A 
ATOM     25  O   UNL     1      -5.372   0.442   3.075  0.00  0.00    -0.266 OA
ATOM     26  N   UNL     1      -3.324   0.966   2.333  0.00  0.00    -0.290 N 
ATOM     27  C   UNL     1      -3.068   1.854   3.470  0.00  0.00    +0.154 C 
ENDBRANCH  16  17
ENDBRANCH   2  16
TORSDOF 4
