REMARK  Name = ZINC44901332
REMARK  13 active torsions:
REMARK  status: ('A' for Active; 'I' for Inactive)
REMARK    1  A    between atoms: C_1  and  C_2
REMARK    2  A    between atoms: C_2  and  C_3
REMARK    3  A    between atoms: C_3  and  C_5
REMARK    4  A    between atoms: C_3  and  O_21
REMARK    5  A    between atoms: N_7  and  C_8
REMARK    6  A    between atoms: C_13  and  C_14
REMARK    7  A    between atoms: N_16  and  C_17
REMARK    8  A    between atoms: C_17  and  C_18
REMARK    9  A    between atoms: C_17  and  C_19
REMARK   10  A    between atoms: C_17  and  C_20
REMARK   11  A    between atoms: O_21  and  C_22
REMARK   12  A    between atoms: C_26  and  C_29
REMARK   13  A    between atoms: C_27  and  C_28
REMARK                            x       y       z     vdW  Elec       q    Type
REMARK                         _______ _______ _______ _____ _____    ______ ____
ROOT
ATOM      1  C   UNL     1       0.384  -1.360   1.627  0.00  0.00    +0.258 C 
ATOM      2  O   UNL     1       1.579  -1.539   1.731  0.00  0.00    -0.271 OA
ATOM      3  N   UNL     1      -0.467  -2.394   1.771  0.00  0.00    -0.282 N 
ATOM      4  H   UNL     1      -1.417  -2.265   1.623  0.00  0.00    +0.155 HD
ENDROOT
BRANCH   3   5
ATOM      5  C   UNL     1       0.017  -3.649   2.134  0.00  0.00    +0.046 A 
ATOM      6  C   UNL     1       1.296  -4.038   1.761  0.00  0.00    +0.024 A 
ATOM      7  C   UNL     1       1.773  -5.282   2.121  0.00  0.00    +0.002 A 
ATOM      8  C   UNL     1       0.983  -6.151   2.856  0.00  0.00    +0.001 A 
ATOM      9  C   UNL     1      -0.290  -5.782   3.235  0.00  0.00    +0.015 A 
ATOM     10  C   UNL     1      -0.784  -4.524   2.883  0.00  0.00    +0.058 A 
BRANCH  10  11
ATOM     11  C   UNL     1      -2.143  -4.120   3.291  0.00  0.00    +0.246 C 
ATOM     12  O   UNL     1      -2.533  -2.989   3.072  0.00  0.00    -0.270 OA
ATOM     13  N   UNL     1      -2.953  -5.005   3.906  0.00  0.00    -0.307 N 
ATOM     14  H   UNL     1      -2.642  -5.907   4.081  0.00  0.00    +0.150 HD
BRANCH  13  15
ATOM     15  C   UNL     1      -4.302  -4.604   4.312  0.00  0.00    +0.026 C 
ATOM     16  C   UNL     1      -5.098  -4.170   3.079  0.00  0.00    +0.031 C 
ATOM     17  C   UNL     1      -5.005  -5.785   4.983  0.00  0.00    +0.031 C 
ATOM     18  C   UNL     1      -4.213  -3.437   5.297  0.00  0.00    +0.031 C 
ENDBRANCH  13  15
ENDBRANCH  10  11
ENDBRANCH   3   5
BRANCH   1  19
ATOM     19  C   UNL     1      -0.148   0.019   1.335  0.00  0.00    +0.259 C 
BRANCH  19  21
ATOM     20  C   UNL     1      -1.471   1.390  -0.282  0.00  0.00    +0.008 C 
ATOM     21  C   UNL     1      -0.822   0.026  -0.039  0.00  0.00    +0.051 C 
ENDBRANCH  19  21
BRANCH  19  22
ATOM     22  O   UNL     1       0.930   0.958   1.341  0.00  0.00    -0.479 OA
BRANCH  22  23
ATOM     23  C   UNL     1       0.661   2.204   1.812  0.00  0.00    +0.125 A 
ATOM     24  C   UNL     1      -0.596   2.497   2.322  0.00  0.00    +0.046 A 
ATOM     25  C   UNL     1      -0.867   3.764   2.800  0.00  0.00    +0.004 A 
ATOM     26  C   UNL     1       0.113   4.740   2.771  0.00  0.00    +0.004 A 
ATOM     27  C   UNL     1       1.365   4.450   2.263  0.00  0.00    -0.044 A 
ATOM     28  C   UNL     1       1.643   3.182   1.789  0.00  0.00    -0.006 A 
ATOM     29  C   UNL     1       3.011   2.865   1.240  0.00  0.00    +0.048 C 
ATOM     30  C   UNL     1       2.430   5.516   2.232  0.00  0.00    +0.044 C 
ENDBRANCH  22  23
ENDBRANCH  19  22
ENDBRANCH   1  19
TORSDOF 7
