REMARK  Name = ZINC13977207
REMARK  8 active torsions:
REMARK  status: ('A' for Active; 'I' for Inactive)
REMARK    1  A    between atoms: C_1  and  O_2
REMARK    2  A    between atoms: O_2  and  C_3
REMARK    3  A    between atoms: C_6  and  C_10
REMARK    4  A    between atoms: N_12  and  N_13
REMARK    5  A    between atoms: N_13  and  C_14
REMARK    6  A    between atoms: C_14  and  N_16
REMARK    7  A    between atoms: C_17  and  C_19
REMARK    8  A    between atoms: C_20  and  C_21
REMARK                            x       y       z     vdW  Elec       q    Type
REMARK                         _______ _______ _______ _____ _____    ______ ____
ROOT
ATOM      1  N   UNL     1       3.478   1.934  -0.021  0.00  0.00    -0.245 N 
ATOM      2  H   UNL     1       4.324   1.461  -0.031  0.00  0.00    +0.172 HD
ENDROOT
BRANCH   1   5
ATOM      3  C   UNL     1       4.616   4.025  -0.020  0.00  0.00    +0.260 C 
ATOM      4  O   UNL     1       5.678   3.431  -0.034  0.00  0.00    -0.269 OA
ATOM      5  N   UNL     1       3.458   3.335  -0.013  0.00  0.00    -0.231 N 
ATOM      6  H   UNL     1       2.612   3.808  -0.002  0.00  0.00    +0.173 HD
BRANCH   3  10
ATOM      7  C   UNL     1       4.558   8.271   0.003  0.00  0.00    +0.133 A 
ATOM      8  C   UNL     1       3.363   7.561   0.011  0.00  0.00    +0.047 A 
ATOM      9  C   UNL     1       3.378   6.185  -0.003  0.00  0.00    +0.017 A 
ATOM     10  C   UNL     1       4.596   5.501  -0.012  0.00  0.00    +0.039 A 
ATOM     11  C   UNL     1       5.796   6.217  -0.020  0.00  0.00    +0.031 A 
ATOM     12  C   UNL     1       5.773   7.595  -0.012  0.00  0.00    +0.056 A 
ATOM     13  I   UNL     1       7.570   8.671  -0.023  0.00  0.00    -0.040 I 
BRANCH   7  15
ATOM     14  C   UNL     1       3.257  10.259   0.027  0.00  0.00    +0.277 C 
ATOM     15  O   UNL     1       4.539   9.628   0.011  0.00  0.00    -0.494 OA
ENDBRANCH   7  15
ENDBRANCH   3  10
ENDBRANCH   1   5
BRANCH   1  16
ATOM     16  C   UNL     1       2.320   1.244  -0.013  0.00  0.00    +0.153 C 
ATOM     17  S   UNL     1       2.343  -0.467  -0.023  0.00  0.00    -0.017 S 
BRANCH  16  18
ATOM     18  N   UNL     1       1.143   1.902   0.001  0.00  0.00    -0.263 N 
ATOM     19  C   UNL     1      -0.014   1.213   0.009  0.00  0.00    +0.242 C 
ATOM     20  O   UNL     1       0.002  -0.004   0.002  0.00  0.00    -0.270 OA
ATOM     21  H   UNL     1       1.130   2.872   0.007  0.00  0.00    +0.157 HD
BRANCH  19  22
ATOM     22  C   UNL     1      -1.290   1.927   0.019  0.00  0.00    +0.068 C 
ATOM     23  C   UNL     1      -2.450   1.236   0.020  0.00  0.00    +0.013 C 
BRANCH  23  24
ATOM     24  C   UNL     1      -3.734   1.954   0.030  0.00  0.00    -0.025 A 
ATOM     25  C   UNL     1      -3.756   3.353   0.044  0.00  0.00    +0.011 A 
ATOM     26  C   UNL     1      -4.962   4.019   0.049  0.00  0.00    +0.039 A 
ATOM     27  C   UNL     1      -6.152   3.306   0.051  0.00  0.00    +0.123 A 
ATOM     28  C   UNL     1      -6.137   1.920   0.042  0.00  0.00    +0.039 A 
ATOM     29  C   UNL     1      -4.938   1.241   0.032  0.00  0.00    +0.011 A 
ATOM     30  F   UNL     1      -7.331   3.966   0.061  0.00  0.00    -0.205 F 
ENDBRANCH  23  24
ENDBRANCH  19  22
ENDBRANCH  16  18
ENDBRANCH   1  16
TORSDOF 7
