REMARK  Name = ZINC00744162
REMARK  15 active torsions:
REMARK  status: ('A' for Active; 'I' for Inactive)
REMARK    1  A    between atoms: C_1  and  C_2
REMARK    2  A    between atoms: C_2  and  O_3
REMARK    3  A    between atoms: O_3  and  C_4
REMARK    4  A    between atoms: C_7  and  N_10
REMARK    5  A    between atoms: N_16  and  C_19
REMARK    6  A    between atoms: C_19  and  C_20
REMARK    7  A    between atoms: C_20  and  N_21
REMARK    8  A    between atoms: N_21  and  C_22
REMARK    9  A    between atoms: C_22  and  C_23
REMARK   10  A    between atoms: C_31  and  C_32
REMARK   11  A    between atoms: C_31  and  C_33
REMARK   12  A    between atoms: N_36  and  C_37
REMARK   13  A    between atoms: C_37  and  C_38
REMARK   14  A    between atoms: C_37  and  C_39
REMARK   15  A    between atoms: C_37  and  C_40
REMARK                            x       y       z     vdW  Elec       q    Type
REMARK                         _______ _______ _______ _____ _____    ______ ____
ROOT
ATOM      1  C   UNL     1      -3.720 -11.671  -1.502  0.00  0.00    -0.059 C 
ENDROOT
BRANCH   1   8
ATOM      2  N   UNL     1      -1.991  -5.992  -0.047  0.00  0.00    -0.269 N 
ATOM      3  C   UNL     1      -3.222  -6.523   0.094  0.00  0.00    +0.306 C 
ATOM      4  O   UNL     1      -4.196  -5.797   0.136  0.00  0.00    -0.252 OA
ATOM      5  N   UNL     1      -3.373  -7.859   0.190  0.00  0.00    -0.289 N 
ATOM      6  C   UNL     1      -2.204  -8.747   0.297  0.00  0.00    +0.091 C 
ATOM      7  C   UNL     1      -2.342  -9.859  -0.748  0.00  0.00    -0.059 C 
ATOM      8  N   UNL     1      -3.634 -10.535  -0.574  0.00  0.00    +0.383 N 
ATOM      9  C   UNL     1      -4.730  -9.597  -0.849  0.00  0.00    -0.059 C 
ATOM     10  C   UNL     1      -4.711  -8.471   0.196  0.00  0.00    +0.091 C 
ATOM     11  H   UNL     1      -1.231  -6.570  -0.218  0.00  0.00    +0.156 HD
ATOM     12  H   UNL     1      -3.712 -10.872   0.374  0.00  0.00    -0.082 HD
BRANCH   2  16
ATOM     13  C   UNL     1      -1.452  -1.868   0.251  0.00  0.00    +0.121 A 
ATOM     14  C   UNL     1      -0.406  -2.728   0.554  0.00  0.00    +0.047 A 
ATOM     15  C   UNL     1      -0.584  -4.094   0.456  0.00  0.00    +0.027 A 
ATOM     16  C   UNL     1      -1.810  -4.606   0.054  0.00  0.00    +0.035 A 
ATOM     17  C   UNL     1      -2.857  -3.746  -0.249  0.00  0.00    +0.027 A 
ATOM     18  C   UNL     1      -2.679  -2.380  -0.145  0.00  0.00    +0.047 A 
BRANCH  13  19
ATOM     19  O   UNL     1      -1.276  -0.523   0.348  0.00  0.00    -0.492 OA
BRANCH  19  21
ATOM     20  C   UNL     1       0.019   1.463   0.813  0.00  0.00    +0.048 C 
ATOM     21  C   UNL     1       0.013  -0.066   0.763  0.00  0.00    +0.225 C 
ENDBRANCH  19  21
ENDBRANCH  13  19
ENDBRANCH   2  16
ENDBRANCH   1   8
BRANCH   1  22
ATOM     22  C   UNL     1      -5.010 -12.450  -1.237  0.00  0.00    +0.091 C 
BRANCH  22  23
ATOM     23  N   UNL     1      -5.095 -13.582  -2.163  0.00  0.00    -0.283 N 
ATOM     24  C   UNL     1      -5.698 -13.431  -3.359  0.00  0.00    +0.303 C 
ATOM     25  O   UNL     1      -5.768 -14.371  -4.127  0.00  0.00    -0.253 OA
ATOM     26  N   UNL     1      -6.222 -12.239  -3.703  0.00  0.00    -0.294 N 
ATOM     27  H   UNL     1      -6.166 -11.489  -3.090  0.00  0.00    +0.151 HD
BRANCH  26  28
ATOM     28  C   UNL     1      -6.878 -12.075  -5.003  0.00  0.00    +0.028 C 
ATOM     29  C   UNL     1      -8.059 -13.041  -5.104  0.00  0.00    +0.031 C 
ATOM     30  C   UNL     1      -7.382 -10.637  -5.142  0.00  0.00    +0.031 C 
ATOM     31  C   UNL     1      -5.877 -12.375  -6.120  0.00  0.00    +0.031 C 
ENDBRANCH  26  28
BRANCH  23  32
ATOM     32  C   UNL     1      -4.524 -14.879  -1.788  0.00  0.00    +0.140 C 
BRANCH  32  33
ATOM     33  C   UNL     1      -5.570 -15.702  -1.082  0.00  0.00    -0.053 C 
ATOM     34  C   UNL     1      -6.302 -16.578  -1.731  0.00  0.00    -0.025 C 
ATOM     35  C   UNL     1      -7.345 -17.377  -0.988  0.00  0.00    +0.031 C 
ATOM     36  C   UNL     1      -7.290 -17.034   0.507  0.00  0.00    -0.000 C 
ATOM     37  C   UNL     1      -5.854 -16.987   1.057  0.00  0.00    +0.012 C 
ATOM     38  C   UNL     1      -5.815 -15.555   0.410  0.00  0.00    +0.022 C 
ATOM     39  C   UNL     1      -7.327 -15.507   0.721  0.00  0.00    -0.025 C 
ATOM     40  C   UNL     1      -7.649 -15.091   2.158  0.00  0.00    +0.012 C 
ATOM     41  C   UNL     1      -8.154 -14.755  -0.323  0.00  0.00    +0.012 C 
ENDBRANCH  32  33
ENDBRANCH  23  32
ENDBRANCH  22  23
ENDBRANCH   1  22
TORSDOF 9
