REMARK  Name = ZINC13092592
REMARK  11 active torsions:
REMARK  status: ('A' for Active; 'I' for Inactive)
REMARK    1  A    between atoms: C_1  and  C_2
REMARK    2  A    between atoms: C_2  and  C_3
REMARK    3  A    between atoms: C_2  and  C_4
REMARK    4  A    between atoms: C_2  and  C_5
REMARK    5  A    between atoms: C_8  and  N_11
REMARK    6  A    between atoms: C_12  and  C_14
REMARK    7  A    between atoms: C_14  and  S_15
REMARK    8  A    between atoms: S_15  and  C_16
REMARK    9  A    between atoms: C_20  and  C_23
REMARK   10  A    between atoms: C_23  and  C_24
REMARK   11  A    between atoms: C_24  and  C_25
REMARK                            x       y       z     vdW  Elec       q    Type
REMARK                         _______ _______ _______ _____ _____    ______ ____
ROOT
ATOM      1  N   UNL     1       2.657  -1.834  -4.665  0.00  0.00    -0.285 N 
ATOM      2  C   UNL     1       3.908  -1.413  -4.938  0.00  0.00    +0.227 C 
ATOM      3  O   UNL     1       4.500  -0.715  -4.142  0.00  0.00    -0.275 OA
ATOM      4  H   UNL     1       2.213  -2.453  -5.265  0.00  0.00    +0.155 HD
ENDROOT
BRANCH   1   8
ATOM      5  C   UNL     1       0.700  -0.475  -1.248  0.00  0.00    -0.042 A 
ATOM      6  C   UNL     1       1.582   0.356  -1.914  0.00  0.00    +0.006 A 
ATOM      7  C   UNL     1       2.232  -0.091  -3.047  0.00  0.00    +0.023 A 
ATOM      8  C   UNL     1       2.000  -1.377  -3.518  0.00  0.00    +0.033 A 
ATOM      9  C   UNL     1       1.114  -2.210  -2.846  0.00  0.00    +0.023 A 
ATOM     10  C   UNL     1       0.470  -1.758  -1.711  0.00  0.00    +0.006 A 
BRANCH   5  12
ATOM     11  C   UNL     1       0.358  -0.877   1.175  0.00  0.00    +0.015 C 
ATOM     12  C   UNL     1      -0.009   0.016  -0.012  0.00  0.00    -0.013 C 
ATOM     13  C   UNL     1      -1.521  -0.032  -0.238  0.00  0.00    +0.015 C 
ATOM     14  C   UNL     1       0.418   1.456   0.282  0.00  0.00    +0.015 C 
ENDBRANCH   5  12
ENDBRANCH   1   8
BRANCH   2  15
ATOM     15  C   UNL     1       4.572  -1.808  -6.232  0.00  0.00    +0.173 C 
BRANCH  15  16
ATOM     16  S   UNL     1       6.236  -1.091  -6.303  0.00  0.00    -0.075 S 
BRANCH  16  17
ATOM     17  C   UNL     1       6.871  -1.638  -7.853  0.00  0.00    +0.213 A 
ATOM     18  N   UNL     1       8.095  -1.282  -8.223  0.00  0.00    -0.180 NA
ATOM     19  C   UNL     1       8.568  -1.697  -9.393  0.00  0.00    +0.296 A 
ATOM     20  O   UNL     1       9.814  -1.349  -9.797  0.00  0.00    -0.264 OA
ATOM     21  C   UNL     1       7.757  -2.498 -10.198  0.00  0.00    +0.130 A 
ATOM     22  N   UNL     1       6.548  -2.820  -9.776  0.00  0.00    -0.146 NA
ATOM     23  N   UNL     1       6.121  -2.405  -8.635  0.00  0.00    -0.122 NA
BRANCH  21  24
ATOM     24  C   UNL     1       8.254  -2.990 -11.532  0.00  0.00    +0.074 C 
BRANCH  24  25
ATOM     25  C   UNL     1       8.959  -4.336 -11.349  0.00  0.00    +0.131 C 
BRANCH  25  26
ATOM     26  C   UNL     1       9.456  -4.828 -12.684  0.00  0.00    +0.356 C 
ATOM     27  O   UNL     1       9.266  -4.164 -13.688  0.00  0.00    -0.246 OA
ATOM     28  O   UNL     1      10.050  -5.891 -12.759  0.00  0.00    -0.246 OA
ENDBRANCH  25  26
ENDBRANCH  24  25
ENDBRANCH  21  24
ENDBRANCH  16  17
ENDBRANCH  15  16
ENDBRANCH   2  15
TORSDOF 8
