REMARK  Name = ZINC66165882
REMARK  12 active torsions:
REMARK  status: ('A' for Active; 'I' for Inactive)
REMARK    1  A    between atoms: C_1  and  C_2
REMARK    2  A    between atoms: C_5  and  C_26
REMARK    3  A    between atoms: C_6  and  O_8
REMARK    4  A    between atoms: O_8  and  C_9
REMARK    5  A    between atoms: C_9  and  C_10
REMARK    6  A    between atoms: C_10  and  N_11
REMARK    7  A    between atoms: N_11  and  C_12
REMARK    8  A    between atoms: C_15  and  O_18
REMARK    9  A    between atoms: O_18  and  C_19
REMARK   10  A    between atoms: C_19  and  C_20
REMARK   11  A    between atoms: C_26  and  C_27
REMARK   12  A    between atoms: C_26  and  C_28
REMARK                            x       y       z     vdW  Elec       q    Type
REMARK                         _______ _______ _______ _____ _____    ______ ____
ROOT
ATOM      1  N   UNL     1       1.325  -3.690   4.790  0.00  0.00    -0.341 N 
ATOM      2  H   UNL     1       1.988  -3.539   4.098  0.00  0.00    +0.146 HD
ENDROOT
BRANCH   1   3
ATOM      3  C   UNL     1       1.574  -4.617   5.808  0.00  0.00    +0.027 A 
ATOM      4  C   UNL     1       0.622  -4.837   6.795  0.00  0.00    +0.026 A 
ATOM      5  C   UNL     1       0.869  -5.753   7.799  0.00  0.00    +0.047 A 
ATOM      6  C   UNL     1       2.066  -6.454   7.821  0.00  0.00    +0.121 A 
ATOM      7  C   UNL     1       3.017  -6.234   6.835  0.00  0.00    +0.047 A 
ATOM      8  C   UNL     1       2.770  -5.323   5.828  0.00  0.00    +0.026 A 
BRANCH   6   9
ATOM      9  O   UNL     1       2.307  -7.356   8.810  0.00  0.00    -0.487 OA
BRANCH   9  10
ATOM     10  C   UNL     1       3.561  -8.041   8.771  0.00  0.00    +0.264 C 
BRANCH  10  11
ATOM     11  C   UNL     1       3.649  -8.992   9.936  0.00  0.00    -0.010 A 
ATOM     12  C   UNL     1       4.178  -8.563  11.140  0.00  0.00    +0.007 A 
ATOM     13  C   UNL     1       4.259  -9.436  12.209  0.00  0.00    +0.000 A 
ATOM     14  C   UNL     1       3.812 -10.737  12.075  0.00  0.00    +0.000 A 
ATOM     15  C   UNL     1       3.283 -11.165  10.871  0.00  0.00    +0.000 A 
ATOM     16  C   UNL     1       3.197 -10.292   9.804  0.00  0.00    +0.007 A 
ENDBRANCH  10  11
ENDBRANCH   9  10
ENDBRANCH   6   9
ENDBRANCH   1   3
BRANCH   1  17
ATOM     17  C   UNL     1       0.063  -2.946   4.769  0.00  0.00    +0.142 C 
BRANCH  17  18
ATOM     18  C   UNL     1       0.045  -2.006   3.562  0.00  0.00    +0.247 C 
BRANCH  18  19
ATOM     19  O   UNL     1       0.050  -2.776   2.358  0.00  0.00    -0.490 OA
BRANCH  19  25
ATOM     20  C   UNL     1      -0.018   1.503   0.010  0.00  0.00    +0.044 C 
ATOM     21  C   UNL     1       0.002  -0.004   0.002  0.00  0.00    -0.047 A 
ATOM     22  C   UNL     1       0.006  -0.688  -1.200  0.00  0.00    +0.004 A 
ATOM     23  C   UNL     1       0.024  -2.071  -1.211  0.00  0.00    +0.008 A 
ATOM     24  C   UNL     1       0.039  -2.772  -0.020  0.00  0.00    -0.003 A 
ATOM     25  C   UNL     1       0.035  -2.088   1.186  0.00  0.00    +0.124 A 
ATOM     26  C   UNL     1       0.023  -0.700   1.195  0.00  0.00    +0.049 A 
BRANCH  24  27
ATOM     27  C   UNL     1       0.059  -4.279  -0.033  0.00  0.00    +0.016 C 
ATOM     28  C   UNL     1      -1.188  -4.799  -0.753  0.00  0.00    +0.012 C 
ATOM     29  C   UNL     1       1.311  -4.766  -0.764  0.00  0.00    +0.012 C 
ENDBRANCH  24  27
ENDBRANCH  19  25
ENDBRANCH  18  19
ENDBRANCH  17  18
ENDBRANCH   1  17
TORSDOF 9
