REMARK  Name = ZINC04534003
REMARK  14 active torsions:
REMARK  status: ('A' for Active; 'I' for Inactive)
REMARK    1  A    between atoms: CB_1  and  CA_2
REMARK    2  A    between atoms: CA_2  and  C_4
REMARK    3  A    between atoms: CA_2  and  N_12
REMARK    4  A    between atoms: N_6  and  CA_7
REMARK    5  A    between atoms: CA_7  and  CB_9
REMARK    6  A    between atoms: CA_7  and  C_10
REMARK    7  A    between atoms: C_13  and  CA_15
REMARK    8  A    between atoms: CA_15  and  CB_17
REMARK    9  A    between atoms: CA_15  and  N_21
REMARK   10  A    between atoms: CB_17  and  CG_18
REMARK   11  A    between atoms: CG_18  and  CD_19
REMARK   12  A    between atoms: CD_19  and  CE_20
REMARK   13  A    between atoms: CE_20  and  NZ_48
REMARK   14  A    between atoms: C_22  and  C_24
REMARK                            x       y       z     vdW  Elec       q    Type
REMARK                         _______ _______ _______ _____ _____    ______ ____
ROOT
ATOM      1  N   LYS A   1       2.350   0.998   0.735  0.00  0.00    -0.303 N 
ATOM      2  C   LYS A   1       1.401   1.607  -0.003  0.00  0.00    +0.234 C 
ATOM      3  O   LYS A   1       1.685   2.576  -0.675  0.00  0.00    -0.274 OA
ATOM      4  H   LYS A   1       2.123   0.223   1.273  0.00  0.00    +0.149 HD
ENDROOT
BRANCH   1   6
ATOM      5  CB  LYS A   1       4.478   0.911  -0.467  0.00  0.00    +0.038 C 
ATOM      6  CA  LYS A   1       3.724   1.505   0.725  0.00  0.00    +0.156 C 
BRANCH   6   7
ATOM      7  C   LYS A   1       4.416   1.109   2.004  0.00  0.00    +0.234 C 
ATOM      8  O   LYS A   1       3.819   0.466   2.842  0.00  0.00    -0.274 OA
ATOM      9  N   LYS A   1       5.697   1.468   2.217  0.00  0.00    -0.301 N 
ATOM     10  H   LYS A   1       6.174   1.982   1.547  0.00  0.00    +0.150 HD
BRANCH   9  11
ATOM     11  CA  LYS A   1       6.369   1.083   3.460  0.00  0.00    +0.183 C 
ATOM     12  CB  LYS A   1       6.053   2.110   4.550  0.00  0.00    +0.040 C 
BRANCH  11  13
ATOM     13  C   LYS A   1       7.858   1.034   3.232  0.00  0.00    +0.376 C 
ATOM     14  O   LYS A   1       8.311   1.294   2.143  0.00  0.00    -0.244 OA
ATOM     15  OXT LYS A   1       8.681   0.701   4.239  0.00  0.00    -0.244 OA
ENDBRANCH  11  13
ENDBRANCH   9  11
ENDBRANCH   6   7
ENDBRANCH   1   6
BRANCH   2  16
ATOM     16  CA  LYS A   1      -0.013   1.086   0.008  0.00  0.00    +0.159 C 
BRANCH  16  17
ATOM     17  N   LYS A   1      -0.721   1.571  -1.179  0.00  0.00    -0.304 N 
ATOM     18  C   UNK A   0      -0.864   2.896  -1.384  0.00  0.00    +0.211 C 
ATOM     19  O   UNK A   0      -0.407   3.686  -0.585  0.00  0.00    -0.276 OA
ATOM     20  C   UNK A   0      -1.593   3.395  -2.605  0.00  0.00    +0.109 C 
ATOM     21  H   LYS A   1      -1.087   0.939  -1.817  0.00  0.00    +0.149 HD
ENDBRANCH  16  17
BRANCH  16  22
ATOM     22  CB  LYS A   1      -0.729   1.579   1.267  0.00  0.00    +0.032 C 
BRANCH  22  23
ATOM     23  CG  LYS A   1      -2.121   0.950   1.341  0.00  0.00    +0.000 C 
BRANCH  23  24
ATOM     24  CD  LYS A   1      -2.837   1.443   2.600  0.00  0.00    -0.019 C 
BRANCH  24  25
ATOM     25  CE  LYS A   1      -4.230   0.814   2.674  0.00  0.00    -0.086 C 
BRANCH  25  28
ATOM     26  HZ1 LYS A   1      -5.840   0.886   3.955  0.00  0.00    -0.090 HD
ATOM     27  HZ2 LYS A   1      -4.373   1.092   4.709  0.00  0.00    -0.090 HD
ATOM     28  NZ  LYS A   1      -4.919   1.312   3.878  0.00  0.00    +0.378 N 
ATOM     29  HZ3 LYS A   1      -5.026   2.331   3.808  0.00  0.00    -0.090 HD
ENDBRANCH  25  28
ENDBRANCH  24  25
ENDBRANCH  23  24
ENDBRANCH  22  23
ENDBRANCH  16  22
ENDBRANCH   2  16
TORSDOF 11
