REMARK  Name = ZINC35919832
REMARK  7 active torsions:
REMARK  status: ('A' for Active; 'I' for Inactive)
REMARK    1  A    between atoms: C_1  and  C_2
REMARK    2  A    between atoms: C_2  and  N_3
REMARK    3  A    between atoms: N_3  and  C_4
REMARK    4  A    between atoms: N_14  and  C_17
REMARK    5  A    between atoms: C_20  and  C_23
REMARK    6  A    between atoms: N_30  and  C_31
REMARK    7  A    between atoms: C_34  and  C_37
REMARK                            x       y       z     vdW  Elec       q    Type
REMARK                         _______ _______ _______ _____ _____    ______ ____
ROOT
ATOM      1  N   UNL     1      -2.249   0.283  -0.676  0.00  0.00    -0.318 N 
ATOM      2  C   UNL     1      -3.000   1.482  -1.056  0.00  0.00    +0.130 C 
ATOM      3  C   UNL     1      -2.292  -0.176   0.631  0.00  0.00    +0.131 A 
ATOM      4  C   UNL     1      -3.220  -1.154   1.009  0.00  0.00    +0.029 A 
ATOM      5  C   UNL     1      -3.228  -1.587   2.311  0.00  0.00    +0.028 A 
ATOM      6  N   UNL     1      -2.363  -1.054   3.171  0.00  0.00    -0.331 N 
ATOM      7  C   UNL     1      -1.498  -0.129   2.790  0.00  0.00    +0.198 A 
ATOM      8  N   UNL     1      -1.449   0.303   1.539  0.00  0.00    -0.201 NA
ATOM      9  N   UNL     1      -0.616   0.395   3.720  0.00  0.00    -0.298 N 
ATOM     10  C   UNL     1      -0.545  -0.160   5.079  0.00  0.00    +0.127 C 
ATOM     11  C   UNL     1       0.905  -0.567   5.366  0.00  0.00    +0.124 C 
ATOM     12  N   UNL     1       1.787   0.554   5.012  0.00  0.00    -0.327 N 
ATOM     13  C   UNL     1       1.716   1.109   3.653  0.00  0.00    +0.124 C 
ATOM     14  C   UNL     1       0.269   1.512   3.363  0.00  0.00    +0.127 C 
ATOM     15  C   UNL     1      -4.163  -2.655   2.812  0.00  0.00    +0.072 C 
ATOM     16  C   UNL     1      -5.364  -2.805   1.878  0.00  0.00    +0.116 C 
ATOM     17  N   UNL     1      -4.862  -2.869   0.496  0.00  0.00    -0.281 N 
ATOM     18  C   UNL     1      -4.175  -1.682  -0.028  0.00  0.00    +0.149 C 
ATOM     19  C   UNL     1      -5.025  -3.974  -0.258  0.00  0.00    +0.307 C 
ATOM     20  O   UNL     1      -5.671  -4.911   0.169  0.00  0.00    -0.252 OA
ATOM     21  N   UNL     1      -4.473  -4.040  -1.486  0.00  0.00    -0.269 N 
ATOM     22  H   UNL     1      -3.874  -3.339  -1.786  0.00  0.00    +0.156 HD
ATOM     23  H   UNL     1      -2.368  -1.348   4.096  0.00  0.00    +0.168 HD
ENDROOT
BRANCH  12  24
ATOM     24  C   UNL     1       2.676   1.083   5.950  0.00  0.00    +0.030 A 
ATOM     25  C   UNL     1       2.655   0.629   7.263  0.00  0.00    +0.023 A 
ATOM     26  C   UNL     1       3.536   1.154   8.187  0.00  0.00    +0.005 A 
ATOM     27  C   UNL     1       4.439   2.131   7.808  0.00  0.00    -0.050 A 
ATOM     28  C   UNL     1       4.462   2.585   6.502  0.00  0.00    +0.005 A 
ATOM     29  C   UNL     1       3.588   2.060   5.571  0.00  0.00    +0.023 A 
ATOM     30  C   UNL     1       5.398   2.702   8.820  0.00  0.00    +0.044 C 
ENDBRANCH  12  24
BRANCH  21  31
ATOM     31  C   UNL     1      -4.764  -5.120  -2.326  0.00  0.00    +0.035 A 
ATOM     32  C   UNL     1      -6.019  -5.713  -2.289  0.00  0.00    +0.023 A 
ATOM     33  C   UNL     1      -6.303  -6.779  -3.120  0.00  0.00    +0.005 A 
ATOM     34  C   UNL     1      -5.339  -7.255  -3.990  0.00  0.00    -0.050 A 
ATOM     35  C   UNL     1      -4.088  -6.667  -4.029  0.00  0.00    +0.005 A 
ATOM     36  C   UNL     1      -3.800  -5.598  -3.204  0.00  0.00    +0.023 A 
ATOM     37  C   UNL     1      -5.652  -8.418  -4.896  0.00  0.00    +0.044 C 
ENDBRANCH  21  31
BRANCH   1  39
ATOM     38  C   UNL     1      -0.034   0.138  -1.701  0.00  0.00    +0.024 C 
ATOM     39  C   UNL     1      -1.454  -0.432  -1.677  0.00  0.00    +0.103 C 
ENDBRANCH   1  39
TORSDOF 3
