REMARK  Name = ZINC02955452
REMARK  9 active torsions:
REMARK  status: ('A' for Active; 'I' for Inactive)
REMARK    1  A    between atoms: C_1  and  C_2
REMARK    2  A    between atoms: C_5  and  N_9
REMARK    3  A    between atoms: C_11  and  C_23
REMARK    4  A    between atoms: C_14  and  C_21
REMARK    5  A    between atoms: C_17  and  C_20
REMARK    6  A    between atoms: C_21  and  O_22
REMARK    7  A    between atoms: N_25  and  C_26
REMARK    8  A    between atoms: C_31  and  O_32
REMARK    9  A    between atoms: O_32  and  C_33
REMARK                            x       y       z     vdW  Elec       q    Type
REMARK                         _______ _______ _______ _____ _____    ______ ____
ROOT
ATOM      1  N   UNL     1      -0.684  -4.639  -0.382  0.00  0.00    -0.323 N 
ATOM      2  C   UNL     1       0.468  -4.844  -0.981  0.00  0.00    +0.212 A 
ATOM      3  C   UNL     1       1.227  -6.091  -0.757  0.00  0.00    +0.098 A 
ATOM      4  C   UNL     1       2.074  -6.502  -1.763  0.00  0.00    +0.030 A 
ATOM      5  C   UNL     1       2.149  -5.665  -2.962  0.00  0.00    +0.027 A 
ATOM      6  C   UNL     1       2.766  -6.114  -4.136  0.00  0.00    +0.007 A 
ATOM      7  C   UNL     1       2.795  -5.270  -5.228  0.00  0.00    +0.117 A 
ATOM      8  N   UNL     1       2.256  -4.066  -5.176  0.00  0.00    -0.256 NA
ATOM      9  C   UNL     1       1.666  -3.598  -4.094  0.00  0.00    +0.081 A 
ATOM     10  C   UNL     1       1.588  -4.374  -2.946  0.00  0.00    +0.159 A 
ATOM     11  O   UNL     1       0.989  -3.917  -1.826  0.00  0.00    -0.437 OA
ATOM     12  C   UNL     1       1.071  -2.213  -4.104  0.00  0.00    +0.069 C 
ATOM     13  H   UNL     1      -1.090  -5.345   0.144  0.00  0.00    +0.169 HD
ENDROOT
BRANCH   1  18
ATOM     14  C   UNL     1      -3.273   0.354  -0.877  0.00  0.00    +0.044 C 
ATOM     15  C   UNL     1      -2.583  -0.978  -0.744  0.00  0.00    -0.048 A 
ATOM     16  C   UNL     1      -1.950  -1.538  -1.840  0.00  0.00    +0.005 A 
ATOM     17  C   UNL     1      -1.315  -2.758  -1.726  0.00  0.00    +0.029 A 
ATOM     18  C   UNL     1      -1.311  -3.429  -0.501  0.00  0.00    +0.077 A 
ATOM     19  C   UNL     1      -1.953  -2.857   0.603  0.00  0.00    +0.147 A 
ATOM     20  C   UNL     1      -2.580  -1.633   0.475  0.00  0.00    +0.043 A 
ATOM     21  F   UNL     1      -1.954  -3.499   1.792  0.00  0.00    -0.203 F 
ENDBRANCH   1  18
BRANCH   3  22
ATOM     22  C   UNL     1       1.085  -6.863   0.490  0.00  0.00    +0.253 C 
ATOM     23  O   UNL     1       1.621  -7.949   0.597  0.00  0.00    -0.270 OA
ATOM     24  N   UNL     1       0.361  -6.365   1.512  0.00  0.00    -0.278 N 
ATOM     25  H   UNL     1      -0.114  -5.526   1.406  0.00  0.00    +0.155 HD
BRANCH  24  26
ATOM     26  C   UNL     1       0.295  -7.059   2.727  0.00  0.00    +0.077 A 
ATOM     27  C   UNL     1       0.516  -8.428   2.758  0.00  0.00    +0.047 A 
ATOM     28  C   UNL     1       0.450  -9.111   3.959  0.00  0.00    +0.043 A 
ATOM     29  C   UNL     1       0.163  -8.432   5.130  0.00  0.00    +0.024 A 
ATOM     30  C   UNL     1      -0.058  -7.067   5.105  0.00  0.00    +0.049 A 
ATOM     31  C   UNL     1       0.012  -6.375   3.907  0.00  0.00    +0.141 A 
ATOM     32 CL   UNL     1       0.727 -10.824   3.997  0.00  0.00    -0.083 Cl
BRANCH  31  33
ATOM     33  O   UNL     1      -0.200  -5.032   3.882  0.00  0.00    -0.493 OA
ATOM     34  C   UNL     1      -0.485  -4.397   5.131  0.00  0.00    +0.277 C 
ENDBRANCH  31  33
ENDBRANCH  24  26
ENDBRANCH   3  22
BRANCH   6  35
ATOM     35  C   UNL     1       3.384  -7.486  -4.206  0.00  0.00    +0.193 C 
BRANCH  35  36
ATOM     36  O   UNL     1       3.942  -7.692  -5.506  0.00  0.00    -0.390 OA
ATOM     37  H   UNL     1       4.358  -8.557  -5.623  0.00  0.00    +0.210 HD
ENDBRANCH  35  36
ENDBRANCH   6  35
TORSDOF 6
