REMARK  Name = ZINC39656851
REMARK  5 active torsions:
REMARK  status: ('A' for Active; 'I' for Inactive)
REMARK    1  A    between atoms: C_1  and  C_2
REMARK    2  A    between atoms: C_2  and  C_4
REMARK    3  A    between atoms: C_2  and  N_11
REMARK    4  A    between atoms: C_12  and  C_14
REMARK    5  A    between atoms: C_25  and  C_27
REMARK                            x       y       z     vdW  Elec       q    Type
REMARK                         _______ _______ _______ _____ _____    ______ ____
ROOT
ATOM      1  C   UNL     1       2.731  -1.075  -2.461  0.00  0.00    +0.100 C 
ATOM      2  C   UNL     1       2.404  -0.162  -3.664  0.00  0.00    +0.121 C 
ATOM      3  N   UNL     1       3.518   0.815  -3.706  0.00  0.00    -0.296 N 
ATOM      4  C   UNL     1       4.723   0.015  -3.379  0.00  0.00    +0.115 C 
ATOM      5  C   UNL     1       4.254  -0.959  -2.280  0.00  0.00    -0.004 C 
ATOM      6  C   UNL     1       4.913  -2.322  -2.466  0.00  0.00    -0.010 C 
ATOM      7  C   UNL     1       6.420  -2.193  -2.223  0.00  0.00    -0.082 C 
ATOM      8  N   UNL     1       6.657  -1.694  -0.864  0.00  0.00    +0.379 N 
ATOM      9  C   UNL     1       6.101  -0.343  -0.722  0.00  0.00    -0.082 C 
ATOM     10  C   UNL     1       4.581  -0.394  -0.901  0.00  0.00    -0.010 C 
ATOM     11  C   UNL     1       3.451   2.133  -3.980  0.00  0.00    +0.249 C 
ATOM     12  O   UNL     1       2.370   2.667  -4.136  0.00  0.00    -0.270 OA
ATOM     13  H   UNL     1       6.215  -2.310  -0.198  0.00  0.00    -0.086 HD
ATOM     14  H   UNL     1       7.650  -1.668  -0.685  0.00  0.00    -0.086 HD
ENDROOT
BRANCH  11  15
ATOM     15  C   UNL     1       4.690   2.927  -4.092  0.00  0.00    +0.072 A 
ATOM     16  C   UNL     1       5.844   2.354  -4.633  0.00  0.00    +0.019 A 
ATOM     17  C   UNL     1       6.998   3.100  -4.735  0.00  0.00    +0.039 A 
ATOM     18  C   UNL     1       7.017   4.418  -4.301  0.00  0.00    +0.126 A 
ATOM     19  C   UNL     1       5.878   4.993  -3.763  0.00  0.00    +0.077 A 
ATOM     20  C   UNL     1       4.713   4.258  -3.661  0.00  0.00    +0.138 A 
ATOM     21  F   UNL     1       3.600   4.820  -3.141  0.00  0.00    -0.205 F 
ATOM     22  F   UNL     1       8.153   5.143  -4.404  0.00  0.00    -0.205 F 
ENDBRANCH  11  15
BRANCH   1  24
ATOM     23  N   UNL     1       1.640  -1.470  -0.277  0.00  0.00    -0.308 N 
ATOM     24  C   UNL     1       2.018  -0.590  -1.225  0.00  0.00    +0.219 C 
ATOM     25  O   UNL     1       1.783   0.591  -1.084  0.00  0.00    -0.275 OA
ATOM     26  H   UNL     1       1.827  -2.415  -0.390  0.00  0.00    +0.149 HD
BRANCH  23  28
ATOM     27  C   UNL     1      -0.553  -0.888   0.638  0.00  0.00    +0.033 C 
ATOM     28  C   UNL     1       0.946  -0.999   0.925  0.00  0.00    +0.100 C 
BRANCH  28  29
ATOM     29  C   UNL     1       1.171  -1.976   2.050  0.00  0.00    -0.027 A 
ATOM     30  C   UNL     1       1.159  -3.335   1.798  0.00  0.00    +0.006 A 
ATOM     31  C   UNL     1       1.367  -4.231   2.830  0.00  0.00    +0.015 A 
ATOM     32  C   UNL     1       1.585  -3.768   4.115  0.00  0.00    +0.018 A 
ATOM     33  C   UNL     1       1.597  -2.407   4.366  0.00  0.00    +0.015 A 
ATOM     34  C   UNL     1       1.395  -1.512   3.333  0.00  0.00    +0.006 A 
ATOM     35 BR   UNL     1       1.868  -4.993   5.527  0.00  0.00    -0.050 Br
ENDBRANCH  28  29
ENDBRANCH  23  28
ENDBRANCH   1  24
TORSDOF 4
