REMARK  Name = ZINC35466127
REMARK  13 active torsions:
REMARK  status: ('A' for Active; 'I' for Inactive)
REMARK    1  A    between atoms: C_1  and  O_2
REMARK    2  A    between atoms: O_2  and  C_3
REMARK    3  A    between atoms: C_5  and  O_25
REMARK    4  A    between atoms: C_11  and  O_24
REMARK    5  A    between atoms: C_13  and  C_16
REMARK    6  A    between atoms: C_19  and  O_23
REMARK    7  A    between atoms: C_20  and  O_22
REMARK    8  A    between atoms: O_25  and  C_26
REMARK    9  A    between atoms: C_28  and  O_41
REMARK   10  A    between atoms: C_30  and  O_40
REMARK   11  A    between atoms: C_32  and  O_39
REMARK   12  A    between atoms: C_34  and  C_37
REMARK   13  A    between atoms: C_37  and  O_38
REMARK                            x       y       z     vdW  Elec       q    Type
REMARK                         _______ _______ _______ _____ _____    ______ ____
ROOT
ATOM      1  C   UNL     1      -1.198  -0.636   0.010  0.00  0.00    +0.138 A 
ATOM      2  C   UNL     1      -2.372   0.097   0.019  0.00  0.00    +0.092 A 
ATOM      3  C   UNL     1      -3.598  -0.555   0.030  0.00  0.00    +0.131 A 
ATOM      4  C   UNL     1      -3.664  -1.942   0.034  0.00  0.00    +0.092 A 
ATOM      5  C   UNL     1      -2.503  -2.695   0.026  0.00  0.00    +0.139 A 
ATOM      6  C   UNL     1      -1.258  -2.038   0.003  0.00  0.00    +0.104 A 
ATOM      7  C   UNL     1      -0.030  -2.840  -0.027  0.00  0.00    +0.202 C 
ATOM      8  O   UNL     1       1.052  -2.342  -0.261  0.00  0.00    -0.289 OA
ATOM      9  C   UNL     1      -0.182  -4.325   0.251  0.00  0.00    +0.230 C 
ATOM     10  C   UNL     1      -1.459  -4.793  -0.462  0.00  0.00    +0.240 C 
ATOM     11  O   UNL     1      -2.573  -4.046   0.038  0.00  0.00    -0.480 OA
ENDROOT
BRANCH  10  12
ATOM     12  C   UNL     1      -1.677  -6.259  -0.193  0.00  0.00    -0.001 A 
ATOM     13  C   UNL     1      -2.337  -6.659   0.954  0.00  0.00    +0.011 A 
ATOM     14  C   UNL     1      -2.541  -8.003   1.206  0.00  0.00    +0.049 A 
ATOM     15  C   UNL     1      -2.083  -8.953   0.307  0.00  0.00    +0.158 A 
ATOM     16  C   UNL     1      -1.419  -8.550  -0.848  0.00  0.00    +0.159 A 
ATOM     17  C   UNL     1      -1.223  -7.202  -1.096  0.00  0.00    +0.056 A 
BRANCH  16  18
ATOM     18  O   UNL     1      -0.967  -9.479  -1.733  0.00  0.00    -0.503 OA
ATOM     19  H   UNL     1      -1.607  -9.712  -2.419  0.00  0.00    +0.292 HD
ENDBRANCH  16  18
BRANCH  15  20
ATOM     20  O   UNL     1      -2.281 -10.275   0.553  0.00  0.00    -0.503 OA
ATOM     21  H   UNL     1      -3.109 -10.622   0.195  0.00  0.00    +0.292 HD
ENDBRANCH  15  20
ENDBRANCH  10  12
BRANCH   1  23
ATOM     22  C   UNL     1      -0.017   1.425   0.010  0.00  0.00    +0.277 C 
ATOM     23  O   UNL     1       0.002  -0.004   0.002  0.00  0.00    -0.494 OA
ENDBRANCH   1  23
BRANCH   9  24
ATOM     24  O   UNL     1      -0.300  -4.547   1.658  0.00  0.00    -0.380 OA
ATOM     25  H   UNL     1       0.462  -4.242   2.170  0.00  0.00    +0.211 HD
ENDBRANCH   9  24
BRANCH   3  26
ATOM     26  O   UNL     1      -4.744   0.172   0.037  0.00  0.00    -0.461 OA
BRANCH  26  27
ATOM     27  C   UNL     1      -4.610   1.594   0.033  0.00  0.00    +0.339 C 
ATOM     28  C   UNL     1      -5.976   2.236   0.292  0.00  0.00    +0.214 C 
ATOM     29  C   UNL     1      -5.835   3.760   0.227  0.00  0.00    +0.180 C 
ATOM     30  C   UNL     1      -5.259   4.151  -1.138  0.00  0.00    +0.177 C 
ATOM     31  C   UNL     1      -3.921   3.435  -1.342  0.00  0.00    +0.179 C 
ATOM     32  O   UNL     1      -4.117   2.023  -1.238  0.00  0.00    -0.331 OA
BRANCH  30  33
ATOM     33  O   UNL     1      -6.170   3.766  -2.169  0.00  0.00    -0.386 OA
ATOM     34  H   UNL     1      -7.041   4.179  -2.099  0.00  0.00    +0.210 HD
ENDBRANCH  30  33
BRANCH  29  35
ATOM     35  O   UNL     1      -7.118   4.366   0.396  0.00  0.00    -0.386 OA
ATOM     36  H   UNL     1      -7.545   4.156   1.238  0.00  0.00    +0.210 HD
ENDBRANCH  29  35
BRANCH  28  37
ATOM     37  O   UNL     1      -6.906   1.798  -0.701  0.00  0.00    -0.383 OA
ATOM     38  H   UNL     1      -7.040   0.841  -0.718  0.00  0.00    +0.210 HD
ENDBRANCH  28  37
BRANCH  31  39
ATOM     39  C   UNL     1      -3.367   3.773  -2.727  0.00  0.00    +0.190 C 
BRANCH  39  40
ATOM     40  O   UNL     1      -2.066   3.200  -2.873  0.00  0.00    -0.392 OA
ATOM     41  H   UNL     1      -1.654   3.374  -3.730  0.00  0.00    +0.210 HD
ENDBRANCH  39  40
ENDBRANCH  31  39
ENDBRANCH  26  27
ENDBRANCH   3  26
TORSDOF 12
