REMARK  Name = ZINC18998785
REMARK  6 active torsions:
REMARK  status: ('A' for Active; 'I' for Inactive)
REMARK    1  A    between atoms: C_1  and  N_2
REMARK    2  A    between atoms: N_7  and  C_10
REMARK    3  A    between atoms: N_13  and  C_14
REMARK    4  A    between atoms: C_14  and  C_15
REMARK    5  A    between atoms: N_17  and  C_18
REMARK    6  A    between atoms: C_18  and  C_19
REMARK                            x       y       z     vdW  Elec       q    Type
REMARK                         _______ _______ _______ _____ _____    ______ ____
ROOT
ATOM      1  C   UNL     1       2.413   1.127  -0.015  0.00  0.00    +0.155 C 
ATOM      2  N   UNL     1       1.154   1.877   0.001  0.00  0.00    -0.281 N 
ATOM      3  C   UNL     1       1.182   3.252   0.008  0.00  0.00    +0.151 A 
ATOM      4  C   UNL     1      -0.017   3.954   0.024  0.00  0.00    +0.172 A 
ATOM      5  C   UNL     1      -1.267   3.193   0.031  0.00  0.00    +0.284 A 
ATOM      6  O   UNL     1      -2.342   3.763   0.044  0.00  0.00    -0.265 OA
ATOM      7  N   UNL     1      -1.200   1.844   0.018  0.00  0.00    -0.262 N 
ATOM      8  C   UNL     1      -0.014   1.212   0.009  0.00  0.00    +0.333 A 
ATOM      9  O   UNL     1       0.002  -0.004   0.002  0.00  0.00    -0.246 OA
ATOM     10  C   UNL     1      -2.437   1.059   0.020  0.00  0.00    +0.157 C 
ATOM     11  N   UNL     1       0.287   5.275   0.028  0.00  0.00    -0.214 NA
ATOM     12  C   UNL     1       1.582   5.414   0.017  0.00  0.00    +0.180 A 
ATOM     13  N   UNL     1       2.173   4.184   0.004  0.00  0.00    -0.295 N 
ATOM     14 BR   UNL     1       2.502   7.067   0.018  0.00  0.00    -0.008 Br
ENDROOT
BRANCH  13  15
ATOM     15  C   UNL     1       3.613   3.916  -0.011  0.00  0.00    +0.221 C 
BRANCH  15  16
ATOM     16  C   UNL     1       4.093   3.832  -1.437  0.00  0.00    +0.233 C 
ATOM     17  O   UNL     1       3.310   3.982  -2.351  0.00  0.00    -0.274 OA
ATOM     18  N   UNL     1       5.393   3.591  -1.698  0.00  0.00    -0.310 N 
ATOM     19  H   UNL     1       6.020   3.471  -0.967  0.00  0.00    +0.149 HD
BRANCH  18  20
ATOM     20  C   UNL     1       5.860   3.510  -3.084  0.00  0.00    +0.141 C 
BRANCH  20  21
ATOM     21  C   UNL     1       7.342   3.233  -3.100  0.00  0.00    -0.012 A 
ATOM     22  C   UNL     1       8.235   4.266  -3.316  0.00  0.00    +0.006 A 
ATOM     23  C   UNL     1       9.594   4.014  -3.326  0.00  0.00    +0.000 A 
ATOM     24  C   UNL     1      10.060   2.727  -3.130  0.00  0.00    +0.001 A 
ATOM     25  C   UNL     1       9.168   1.693  -2.919  0.00  0.00    +0.020 A 
ATOM     26  C   UNL     1       7.808   1.946  -2.904  0.00  0.00    +0.046 A 
ATOM     27 CL   UNL     1       6.686   0.647  -2.639  0.00  0.00    -0.083 Cl
ENDBRANCH  20  21
ENDBRANCH  18  20
ENDBRANCH  15  16
ENDBRANCH  13  15
TORSDOF 4
