REMARK  Name = ZINC00657090
REMARK  4 active torsions:
REMARK  status: ('A' for Active; 'I' for Inactive)
REMARK    1  A    between atoms: C_1  and  C_2
REMARK    2  A    between atoms: C_4  and  C_8
REMARK    3  A    between atoms: N_6  and  C_7
REMARK    4  A    between atoms: N_10  and  C_11
REMARK                            x       y       z     vdW  Elec       q    Type
REMARK                         _______ _______ _______ _____ _____    ______ ____
ROOT
ATOM      1  C   UNL     1       1.294   3.822   3.617  0.00  0.00    +0.266 C 
ATOM      2  O   UNL     1       0.615   4.829   3.683  0.00  0.00    -0.268 OA
ATOM      3  N   UNL     1       1.394   3.153   2.451  0.00  0.00    -0.307 N 
ATOM      4  H   UNL     1       1.936   2.350   2.398  0.00  0.00    +0.149 HD
ENDROOT
BRANCH   3   5
ATOM      5  C   UNL     1       0.686   3.639   1.264  0.00  0.00    +0.079 C 
ATOM      6  C   UNL     1       1.402   3.145   0.006  0.00  0.00    +0.010 C 
ATOM      7  C   UNL     1       1.423   1.615  -0.003  0.00  0.00    +0.009 C 
ATOM      8  C   UNL     1      -0.013   1.086   0.008  0.00  0.00    -0.010 C 
ATOM      9  C   UNL     1      -0.753   1.593  -1.232  0.00  0.00    +0.007 C 
ATOM     10  C   UNL     1      -0.773   3.123  -1.223  0.00  0.00    -0.010 C 
ATOM     11  C   UNL     1       0.662   3.652  -1.234  0.00  0.00    +0.009 C 
ATOM     12  C   UNL     1      -1.490   3.616   0.036  0.00  0.00    +0.009 C 
ATOM     13  C   UNL     1      -0.750   3.109   1.275  0.00  0.00    +0.010 C 
ATOM     14  C   UNL     1      -0.729   1.579   1.267  0.00  0.00    +0.009 C 
ENDBRANCH   3   5
BRANCH   1  18
ATOM     15  C   UNL     1       3.105   3.337   8.326  0.00  0.00    +0.066 C 
ATOM     16  C   UNL     1       2.788   3.136   6.867  0.00  0.00    +0.051 A 
ATOM     17  C   UNL     1       2.003   3.928   6.098  0.00  0.00    +0.071 A 
ATOM     18  C   UNL     1       2.008   3.333   4.813  0.00  0.00    +0.161 A 
ATOM     19  N   UNL     1       2.775   2.264   4.885  0.00  0.00    -0.165 NA
ATOM     20  N   UNL     1       3.239   2.132   6.075  0.00  0.00    -0.270 N 
ATOM     21  C   UNL     1       4.128   1.053   6.514  0.00  0.00    +0.172 C 
ATOM     22 BR   UNL     1       1.089   5.496   6.629  0.00  0.00    -0.046 Br
ENDBRANCH   1  18
TORSDOF 2
