REMARK  Name = ZINC58866820
REMARK  11 active torsions:
REMARK  status: ('A' for Active; 'I' for Inactive)
REMARK    1  A    between atoms: C_3  and  S_28
REMARK    2  A    between atoms: C_6  and  N_7
REMARK    3  A    between atoms: C_8  and  C_10
REMARK    4  A    between atoms: C_10  and  N_11
REMARK    5  A    between atoms: N_11  and  C_12
REMARK    6  A    between atoms: C_12  and  C_13
REMARK    7  A    between atoms: C_13  and  N_14
REMARK    8  A    between atoms: N_14  and  C_15
REMARK    9  A    between atoms: C_18  and  C_24
REMARK   10  A    between atoms: C_20  and  N_21
REMARK   11  A    between atoms: S_28  and  N_31
REMARK                            x       y       z     vdW  Elec       q    Type
REMARK                         _______ _______ _______ _____ _____    ______ ____
ROOT
ATOM      1  N   UNL     1      -2.165  -4.257  -0.567  0.00  0.00    +0.386 N 
ATOM      2  H   UNL     1      -1.613  -4.464  -1.386  0.00  0.00    -0.085 HD
ATOM      3  H   UNL     1      -1.655  -4.530   0.260  0.00  0.00    -0.085 HD
ENDROOT
BRANCH   1   4
ATOM      4  C   UNL     1      -2.444  -2.816  -0.517  0.00  0.00    +0.015 C 
BRANCH   4   6
ATOM      5  N   UNL     1      -1.156  -0.707  -0.400  0.00  0.00    -0.287 N 
ATOM      6  C   UNL     1      -1.146  -2.054  -0.453  0.00  0.00    +0.200 C 
ATOM      7  O   UNL     1      -0.091  -2.653  -0.450  0.00  0.00    -0.278 OA
ATOM      8  H   UNL     1      -1.998  -0.232  -0.327  0.00  0.00    +0.155 HD
BRANCH   5  14
ATOM      9  C   UNL     1       1.111  -0.480  -1.201  0.00  0.00    +0.025 A 
ATOM     10  C   UNL     1       2.298   0.225  -1.249  0.00  0.00    +0.030 A 
ATOM     11  C   UNL     1       2.428   1.412  -0.551  0.00  0.00    +0.105 A 
ATOM     12  C   UNL     1       1.371   1.896   0.198  0.00  0.00    +0.030 A 
ATOM     13  C   UNL     1       0.181   1.196   0.249  0.00  0.00    +0.025 A 
ATOM     14  C   UNL     1       0.048   0.004  -0.451  0.00  0.00    +0.033 A 
BRANCH  11  15
ATOM     15  S   UNL     1       3.944   2.307  -0.614  0.00  0.00    +0.056 S 
ATOM     16  O   UNL     1       3.994   3.104   0.562  0.00  0.00    -0.153 OA
ATOM     17  O   UNL     1       4.958   1.367  -0.941  0.00  0.00    -0.153 OA
BRANCH  15  18
ATOM     18  N   UNL     1       3.840   3.356  -1.891  0.00  0.00    -0.204 NA
ATOM     19  H   UNL     1       4.316   4.200  -1.866  0.00  0.00    +0.144 HD
ATOM     20  H   UNL     1       3.303   3.125  -2.666  0.00  0.00    +0.144 HD
ENDBRANCH  15  18
ENDBRANCH  11  15
ENDBRANCH   5  14
ENDBRANCH   4   6
ENDBRANCH   1   4
BRANCH   1  21
ATOM     21  C   UNL     1      -3.431  -5.000  -0.629  0.00  0.00    -0.063 C 
BRANCH  21  22
ATOM     22  C   UNL     1      -3.140  -6.501  -0.681  0.00  0.00    +0.082 C 
BRANCH  22  23
ATOM     23  N   UNL     1      -4.402  -7.241  -0.744  0.00  0.00    -0.344 N 
ATOM     24  H   UNL     1      -5.246  -6.762  -0.747  0.00  0.00    +0.146 HD
BRANCH  23  25
ATOM     25  C   UNL     1      -4.391  -8.637  -0.799  0.00  0.00    +0.058 A 
ATOM     26  C   UNL     1      -3.190  -9.328  -0.705  0.00  0.00    +0.026 A 
ATOM     27  C   UNL     1      -3.183 -10.708  -0.759  0.00  0.00    +0.014 A 
ATOM     28  C   UNL     1      -4.370 -11.402  -0.907  0.00  0.00    +0.057 A 
ATOM     29  C   UNL     1      -5.567 -10.717  -1.001  0.00  0.00    +0.047 A 
ATOM     30  C   UNL     1      -5.582  -9.337  -0.942  0.00  0.00    +0.147 A 
BRANCH  28  31
ATOM     31  C   UNL     1      -4.358 -12.908  -0.966  0.00  0.00    +0.417 C 
ATOM     32  F   UNL     1      -3.042 -13.368  -0.851  0.00  0.00    -0.166 F 
ATOM     33  F   UNL     1      -5.125 -13.421   0.085  0.00  0.00    -0.166 F 
ATOM     34  F   UNL     1      -4.895 -13.331  -2.186  0.00  0.00    -0.166 F 
ENDBRANCH  28  31
BRANCH  30  35
ATOM     35  N   UNL     1      -6.865  -8.605  -1.037  0.00  0.00    +0.058 N 
ATOM     36  O   UNL     1      -7.048  -7.616  -0.367  0.00  0.00    -0.126 OA
ATOM     37  O   UNL     1      -7.730  -8.997  -1.785  0.00  0.00    -0.126 OA
ENDBRANCH  30  35
ENDBRANCH  23  25
ENDBRANCH  22  23
ENDBRANCH  21  22
ENDBRANCH   1  21
TORSDOF 11
