REMARK  Name = ZINC41668387
REMARK  3 active torsions:
REMARK  status: ('A' for Active; 'I' for Inactive)
REMARK    1  A    between atoms: C_6  and  C_7
REMARK    2  A    between atoms: N_19  and  C_22
REMARK    3  A    between atoms: C_22  and  C_23
REMARK                            x       y       z     vdW  Elec       q    Type
REMARK                         _______ _______ _______ _____ _____    ______ ____
ROOT
ATOM      1  C   UNL     1      -1.271  -0.765   0.011  0.00  0.00    +0.064 A 
ATOM      2  C   UNL     1      -2.131  -0.700  -1.040  0.00  0.00    +0.208 A 
ATOM      3  O   UNL     1      -3.278  -1.381  -1.078  0.00  0.00    -0.462 OA
ATOM      4  C   UNL     1      -3.811  -1.934   0.029  0.00  0.00    +0.146 A 
ATOM      5  C   UNL     1      -3.034  -2.090   1.190  0.00  0.00    +0.065 A 
ATOM      6  C   UNL     1      -1.635  -1.620   1.157  0.00  0.00    +0.200 A 
ATOM      7  O   UNL     1      -0.832  -1.916   2.024  0.00  0.00    -0.286 OA
ATOM      8  C   UNL     1      -3.581  -2.674   2.332  0.00  0.00    +0.019 A 
ATOM      9  C   UNL     1      -4.881  -3.089   2.323  0.00  0.00    +0.047 A 
ATOM     10  C   UNL     1      -5.666  -2.933   1.179  0.00  0.00    +0.130 A 
ATOM     11  C   UNL     1      -5.136  -2.358   0.038  0.00  0.00    +0.051 A 
ATOM     12  C   UNL     1      -5.976  -2.177  -1.200  0.00  0.00    +0.130 C 
ATOM     13  N   UNL     1      -7.164  -3.038  -1.119  0.00  0.00    -0.262 NA
ATOM     14  C   UNL     1      -7.827  -2.867   0.184  0.00  0.00    +0.319 C 
ATOM     15  O   UNL     1      -6.956  -3.359   1.206  0.00  0.00    -0.476 OA
ENDROOT
BRANCH   1  21
ATOM     16  C   UNL     1      -0.017   1.389   0.010  0.00  0.00    +0.010 A 
ATOM     17  C   UNL     1       1.170   2.093   0.002  0.00  0.00    +0.020 A 
ATOM     18  C   UNL     1       2.378   1.417  -0.013  0.00  0.00    +0.041 A 
ATOM     19  C   UNL     1       2.402   0.033  -0.021  0.00  0.00    +0.020 A 
ATOM     20  C   UNL     1       1.221  -0.680  -0.014  0.00  0.00    +0.010 A 
ATOM     21  C   UNL     1       0.002  -0.004   0.002  0.00  0.00    -0.011 A 
ATOM     22 CL   UNL     1       3.868   2.309  -0.024  0.00  0.00    -0.084 Cl
ENDBRANCH   1  21
BRANCH  13  23
ATOM     23  C   UNL     1      -8.093  -2.759  -2.223  0.00  0.00    +0.123 C 
BRANCH  23  24
ATOM     24  C   UNL     1      -9.169  -3.813  -2.253  0.00  0.00    -0.030 A 
ATOM     25  C   UNL     1      -8.986  -4.964  -2.997  0.00  0.00    +0.009 A 
ATOM     26  C   UNL     1      -9.971  -5.934  -3.028  0.00  0.00    +0.050 A 
ATOM     27  C   UNL     1     -11.143  -5.755  -2.312  0.00  0.00    +0.166 A 
ATOM     28  C   UNL     1     -11.327  -4.596  -1.563  0.00  0.00    +0.167 A 
ATOM     29  C   UNL     1     -10.334  -3.630  -1.532  0.00  0.00    +0.054 A 
ATOM     30  O   UNL     1     -12.549  -4.657  -0.957  0.00  0.00    -0.453 OA
ATOM     31  C   UNL     1     -13.280  -5.674  -1.668  0.00  0.00    +0.466 C 
ATOM     32  O   UNL     1     -12.250  -6.543  -2.176  0.00  0.00    -0.453 OA
ENDBRANCH  23  24
ENDBRANCH  13  23
TORSDOF 3
