REMARK  Name = ZINC62304733
REMARK  3 active torsions:
REMARK  status: ('A' for Active; 'I' for Inactive)
REMARK    1  A    between atoms: C_3  and  N_31
REMARK    2  A    between atoms: C_4  and  N_28
REMARK    3  A    between atoms: C_6  and  C_7
REMARK                            x       y       z     vdW  Elec       q    Type
REMARK                         _______ _______ _______ _____ _____    ______ ____
ROOT
ATOM      1  C   UNL     1      -1.881   0.138   1.227  0.00  0.00    +0.249 C 
ATOM      2  O   UNL     1      -2.442  -0.224   2.243  0.00  0.00    -0.270 OA
ATOM      3  N   UNL     1      -2.441  -0.104   0.025  0.00  0.00    -0.267 N 
ATOM      4  C   UNL     1      -3.604  -0.856  -0.060  0.00  0.00    +0.117 A 
ATOM      5  C   UNL     1      -4.858  -0.205  -0.152  0.00  0.00    +0.050 A 
ATOM      6  C   UNL     1      -5.158   1.228  -0.158  0.00  0.00    -0.025 A 
ATOM      7  C   UNL     1      -6.455   1.581  -0.257  0.00  0.00    -0.004 A 
ATOM      8  S   UNL     1      -7.346   0.051  -0.346  0.00  0.00    -0.073 S 
ATOM      9  C   UNL     1      -5.972  -1.065  -0.247  0.00  0.00    +0.114 A 
ATOM     10  N   UNL     1      -5.819  -2.369  -0.248  0.00  0.00    -0.226 NA
ATOM     11  C   UNL     1      -4.617  -2.927  -0.157  0.00  0.00    +0.112 A 
ATOM     12  N   UNL     1      -3.533  -2.190  -0.060  0.00  0.00    -0.317 N 
ATOM     13  C   UNL     1      -2.177  -2.740   0.092  0.00  0.00    +0.125 C 
ATOM     14  C   UNL     1      -2.026  -4.097  -0.588  0.00  0.00    +0.022 C 
ATOM     15  C   UNL     1      -2.330  -5.191   0.443  0.00  0.00    +0.002 C 
ATOM     16  C   UNL     1      -3.758  -5.000   0.949  0.00  0.00    +0.008 C 
ATOM     17  C   UNL     1      -4.580  -4.432  -0.198  0.00  0.00    +0.074 C 
ATOM     18  C   UNL     1      -7.018   2.970  -0.284  0.00  0.00    +0.043 C 
ATOM     19  C   UNL     1      -5.932   3.942   0.197  0.00  0.00    +0.005 C 
ATOM     20  C   UNL     1      -4.628   3.626  -0.542  0.00  0.00    +0.005 C 
ATOM     21  C   UNL     1      -4.066   2.290  -0.056  0.00  0.00    +0.037 C 
ATOM     22  H   UNL     1      -2.031   0.248  -0.781  0.00  0.00    +0.157 HD
ENDROOT
BRANCH   1  28
ATOM     23  C   UNL     1       0.059   1.259   0.142  0.00  0.00    +0.015 A 
ATOM     24  C   UNL     1       1.266   1.915   0.223  0.00  0.00    +0.026 A 
ATOM     25  C   UNL     1       1.843   2.164   1.465  0.00  0.00    +0.060 A 
ATOM     26  C   UNL     1       1.202   1.750   2.629  0.00  0.00    +0.148 A 
ATOM     27  C   UNL     1      -0.005   1.094   2.555  0.00  0.00    +0.047 A 
ATOM     28  C   UNL     1      -0.588   0.842   1.309  0.00  0.00    +0.039 A 
BRANCH  25  29
ATOM     29  N   UNL     1       3.062   2.827   1.542  0.00  0.00    -0.328 N 
ATOM     30  C   UNL     1       4.325   2.077   1.519  0.00  0.00    +0.105 C 
ATOM     31  C   UNL     1       5.217   2.647   0.411  0.00  0.00    +0.019 C 
ATOM     32  C   UNL     1       5.385   4.154   0.621  0.00  0.00    +0.003 C 
ATOM     33  C   UNL     1       4.018   4.837   0.541  0.00  0.00    +0.019 C 
ATOM     34  C   UNL     1       3.113   4.292   1.644  0.00  0.00    +0.105 C 
ENDBRANCH  25  29
BRANCH  26  35
ATOM     35  N   UNL     1       1.819   2.016   3.948  0.00  0.00    +0.058 N 
ATOM     36  O   UNL     1       1.263   1.657   4.959  0.00  0.00    -0.126 OA
ATOM     37  O   UNL     1       2.880   2.592   4.013  0.00  0.00    -0.126 OA
ENDBRANCH  26  35
ENDBRANCH   1  28
TORSDOF 3
