REMARK  Name = ZINC35372845
REMARK  9 active torsions:
REMARK  status: ('A' for Active; 'I' for Inactive)
REMARK    1  A    between atoms: C_1  and  C_2
REMARK    2  A    between atoms: C_5  and  C_8
REMARK    3  A    between atoms: N_13  and  C_16
REMARK    4  A    between atoms: C_18  and  S_19
REMARK    5  A    between atoms: S_19  and  C_20
REMARK    6  A    between atoms: C_20  and  C_21
REMARK    7  A    between atoms: N_23  and  C_24
REMARK    8  A    between atoms: C_29  and  O_30
REMARK    9  A    between atoms: O_30  and  C_31
REMARK                            x       y       z     vdW  Elec       q    Type
REMARK                         _______ _______ _______ _____ _____    ______ ____
ROOT
ATOM      1  C   UNL     1       1.063  -4.496  -0.104  0.00  0.00    +0.100 C 
ATOM      2  N   UNL     1       1.055  -5.259   0.948  0.00  0.00    -0.251 NA
ATOM      3  C   UNL     1       0.664  -6.601   0.508  0.00  0.00    +0.150 C 
ATOM      4  C   UNL     1      -0.624  -7.030   1.211  0.00  0.00    +0.035 C 
ATOM      5  C   UNL     1      -0.358  -7.166   2.713  0.00  0.00    -0.075 C 
ATOM      6  N   UNL     1       0.692  -8.166   2.938  0.00  0.00    +0.378 N 
ATOM      7  C   UNL     1       1.951  -7.714   2.332  0.00  0.00    -0.075 C 
ATOM      8  C   UNL     1       1.779  -7.601   0.816  0.00  0.00    +0.035 C 
ATOM      9  C   UNL     1       0.885  -8.354   4.382  0.00  0.00    -0.096 C 
ATOM     10  N   UNL     1       0.445  -6.519  -0.939  0.00  0.00    -0.246 NA
ATOM     11  C   UNL     1       0.672  -5.289  -1.294  0.00  0.00    +0.120 C 
ATOM     12  H   UNL     1       0.415  -9.042   2.521  0.00  0.00    -0.082 HD
ENDROOT
BRANCH   1  17
ATOM     13  C   UNL     1       2.387   1.106  -0.134  0.00  0.00    +0.044 C 
ATOM     14  C   UNL     1       2.041  -0.360  -0.126  0.00  0.00    -0.050 A 
ATOM     15  C   UNL     1       2.217  -1.116  -1.272  0.00  0.00    +0.004 A 
ATOM     16  C   UNL     1       1.902  -2.459  -1.271  0.00  0.00    +0.010 A 
ATOM     17  C   UNL     1       1.404  -3.055  -0.112  0.00  0.00    +0.003 A 
ATOM     18  C   UNL     1       1.229  -2.288   1.040  0.00  0.00    +0.010 A 
ATOM     19  C   UNL     1       1.552  -0.947   1.028  0.00  0.00    +0.004 A 
ENDBRANCH   1  17
BRANCH  11  20
ATOM     20  S   UNL     1       0.541  -4.662  -2.935  0.00  0.00    -0.095 S 
BRANCH  20  21
ATOM     21  C   UNL     1       0.032  -6.101  -3.915  0.00  0.00    +0.172 C 
BRANCH  21  22
ATOM     22  C   UNL     1      -0.118  -5.698  -5.359  0.00  0.00    +0.228 C 
ATOM     23  O   UNL     1       0.097  -4.553  -5.695  0.00  0.00    -0.275 OA
ATOM     24  N   UNL     1      -0.491  -6.611  -6.278  0.00  0.00    -0.282 N 
ATOM     25  H   UNL     1      -0.743  -7.505  -5.999  0.00  0.00    +0.155 HD
BRANCH  24  26
ATOM     26  C   UNL     1      -0.516  -6.268  -7.636  0.00  0.00    +0.077 A 
ATOM     27  C   UNL     1       0.211  -5.177  -8.092  0.00  0.00    +0.047 A 
ATOM     28  C   UNL     1       0.185  -4.841  -9.433  0.00  0.00    +0.043 A 
ATOM     29  C   UNL     1      -0.566  -5.589 -10.322  0.00  0.00    +0.024 A 
ATOM     30  C   UNL     1      -1.293  -6.676  -9.875  0.00  0.00    +0.049 A 
ATOM     31  C   UNL     1      -1.267  -7.023  -8.534  0.00  0.00    +0.141 A 
ATOM     32 CL   UNL     1       1.095  -3.476 -10.001  0.00  0.00    -0.083 Cl
BRANCH  31  33
ATOM     33  O   UNL     1      -1.977  -8.096  -8.094  0.00  0.00    -0.493 OA
ATOM     34  C   UNL     1      -2.724  -8.825  -9.070  0.00  0.00    +0.277 C 
ENDBRANCH  31  33
ENDBRANCH  24  26
ENDBRANCH  21  22
ENDBRANCH  20  21
ENDBRANCH  11  20
TORSDOF 6
