REMARK  Name = ZINC27983640
REMARK  3 active torsions:
REMARK  status: ('A' for Active; 'I' for Inactive)
REMARK    1  A    between atoms: C_3  and  N_24
REMARK    2  A    between atoms: C_6  and  C_7
REMARK    3  A    between atoms: C_9  and  C_18
REMARK                            x       y       z     vdW  Elec       q    Type
REMARK                         _______ _______ _______ _____ _____    ______ ____
ROOT
ATOM      1  C   UNL     1      -3.523   4.803   3.437  0.00  0.00    +0.075 A 
ATOM      2  C   UNL     1      -2.895   4.376   2.259  0.00  0.00    +0.033 A 
ATOM      3  C   UNL     1      -1.532   4.305   2.204  0.00  0.00    -0.028 A 
ATOM      4  C   UNL     1      -0.804   4.663   3.349  0.00  0.00    +0.062 A 
ATOM      5  C   UNL     1       0.610   4.626   3.382  0.00  0.00    +0.129 A 
ATOM      6  N   UNL     1       1.220   4.987   4.504  0.00  0.00    -0.220 NA
ATOM      7  C   UNL     1       0.534   5.377   5.566  0.00  0.00    +0.225 A 
ATOM      8  N   UNL     1      -0.776   5.435   5.589  0.00  0.00    -0.216 NA
ATOM      9  C   UNL     1      -1.494   5.092   4.509  0.00  0.00    +0.165 A 
ATOM     10  N   UNL     1      -2.825   5.143   4.509  0.00  0.00    -0.227 NA
ATOM     11  N   UNL     1       1.333   4.222   2.281  0.00  0.00    -0.343 N 
ATOM     12  H   UNL     1       2.432   4.199   2.323  0.00  0.00    +0.144 HD
ATOM     13  H   UNL     1       0.812   3.922   1.360  0.00  0.00    +0.144 HD
ENDROOT
BRANCH   1  19
ATOM     14  C   UNL     1      -5.652   5.392   4.612  0.00  0.00    +0.015 A 
ATOM     15  C   UNL     1      -7.031   5.444   4.608  0.00  0.00    +0.044 A 
ATOM     16  C   UNL     1      -7.726   4.975   3.496  0.00  0.00    +0.121 A 
ATOM     17  N   UNL     1      -7.080   4.488   2.446  0.00  0.00    -0.240 NA
ATOM     18  C   UNL     1      -5.765   4.426   2.409  0.00  0.00    +0.123 A 
ATOM     19  C   UNL     1      -5.002   4.876   3.484  0.00  0.00    +0.019 A 
BRANCH  16  20
ATOM     20  N   UNL     1      -9.113   5.020   3.486  0.00  0.00    -0.311 N 
ATOM     21  C   UNL     1      -9.671   4.300   4.640  0.00  0.00    +0.134 C 
ATOM     22  C   UNL     1     -11.197   4.424   4.623  0.00  0.00    +0.178 C 
ATOM     23  O   UNL     1     -11.697   3.925   3.380  0.00  0.00    -0.377 OA
ATOM     24  C   UNL     1     -11.175   4.604   2.235  0.00  0.00    +0.178 C 
ATOM     25  C   UNL     1      -9.649   4.481   2.228  0.00  0.00    +0.134 C 
ENDBRANCH  16  20
ENDBRANCH   1  19
BRANCH   3  26
ATOM     26  C   UNL     1      -0.830   3.848   0.951  0.00  0.00    +0.020 C 
ATOM     27  C   UNL     1      -1.711   2.840   0.211  0.00  0.00    +0.008 C 
ATOM     28  C   UNL     1      -0.999   2.377  -1.061  0.00  0.00    +0.001 C 
ATOM     29  C   UNL     1      -0.734   3.582  -1.965  0.00  0.00    +0.000 C 
ATOM     30  C   UNL     1       0.148   4.590  -1.225  0.00  0.00    +0.001 C 
ATOM     31  C   UNL     1      -0.565   5.054   0.047  0.00  0.00    +0.008 C 
ENDBRANCH   3  26
TORSDOF 3
