REMARK  Name = ZINC63350750
REMARK  3 active torsions:
REMARK  status: ('A' for Active; 'I' for Inactive)
REMARK    1  A    between atoms: C_1  and  C_2
REMARK    2  A    between atoms: C_5  and  C_8
REMARK    3  A    between atoms: N_26  and  C_29
REMARK                            x       y       z     vdW  Elec       q    Type
REMARK                         _______ _______ _______ _____ _____    ______ ____
ROOT
ATOM      1  C   UNL     1       0.059  -4.245  -0.005  0.00  0.00    +0.135 C 
ATOM      2  C   UNL     1      -1.348  -4.798   0.263  0.00  0.00    +0.131 C 
ATOM      3  C   UNL     1      -1.192  -6.267   0.629  0.00  0.00    -0.034 C 
ATOM      4  C   UNL     1      -1.929  -6.951  -0.240  0.00  0.00    -0.001 A 
ATOM      5  C   UNL     1      -2.221  -8.389  -0.356  0.00  0.00    +0.010 A 
ATOM      6  C   UNL     1      -3.021  -8.756  -1.392  0.00  0.00    +0.001 A 
ATOM      7  C   UNL     1      -3.554  -7.847  -2.312  0.00  0.00    +0.002 A 
ATOM      8  C   UNL     1      -3.343  -6.507  -2.277  0.00  0.00    +0.026 A 
ATOM      9  C   UNL     1      -2.519  -6.000  -1.229  0.00  0.00    +0.043 A 
ATOM     10  N   UNL     1      -2.169  -4.768  -0.951  0.00  0.00    -0.375 N 
ATOM     11  C   UNL     1      -0.290  -6.750   1.741  0.00  0.00    +0.065 C 
ATOM     12  C   UNL     1       0.490  -5.519   2.236  0.00  0.00    +0.169 C 
ATOM     13  N   UNL     1       0.940  -4.755   1.052  0.00  0.00    -0.264 N 
ATOM     14  C   UNL     1       2.272  -4.654   1.138  0.00  0.00    +0.317 C 
ATOM     15  O   UNL     1       2.952  -3.989   0.381  0.00  0.00    -0.252 OA
ATOM     16  N   UNL     1       2.770  -5.369   2.156  0.00  0.00    -0.192 N 
ATOM     17  C   UNL     1       1.777  -5.960   2.900  0.00  0.00    +0.248 C 
ATOM     18  O   UNL     1       1.892  -6.680   3.868  0.00  0.00    -0.273 OA
ATOM     19  H   UNL     1      -2.406  -3.975  -1.456  0.00  0.00    +0.160 HD
ENDROOT
BRANCH  16  20
ATOM     20  C   UNL     1       4.140  -5.492   2.439  0.00  0.00    +0.049 A 
ATOM     21  C   UNL     1       4.556  -6.155   3.585  0.00  0.00    +0.028 A 
ATOM     22  C   UNL     1       5.903  -6.274   3.864  0.00  0.00    +0.051 A 
ATOM     23  C   UNL     1       6.844  -5.733   3.001  0.00  0.00    +0.162 A 
ATOM     24  C   UNL     1       6.431  -5.071   1.851  0.00  0.00    +0.164 A 
ATOM     25  C   UNL     1       5.078  -4.954   1.570  0.00  0.00    +0.073 A 
ATOM     26  O   UNL     1       7.340  -4.540   0.988  0.00  0.00    -0.485 OA
ATOM     27  C   UNL     1       8.669  -4.354   1.487  0.00  0.00    +0.270 C 
ATOM     28  C   UNL     1       9.089  -5.634   2.222  0.00  0.00    +0.270 C 
ATOM     29  O   UNL     1       8.168  -5.857   3.295  0.00  0.00    -0.485 OA
ENDBRANCH  16  20
BRANCH   1  34
ATOM     30  C   UNL     1      -0.041   1.531   0.134  0.00  0.00    +0.044 C 
ATOM     31  C   UNL     1      -0.015   0.024   0.097  0.00  0.00    -0.050 A 
ATOM     32  C   UNL     1      -0.007  -0.638  -1.116  0.00  0.00    +0.004 A 
ATOM     33  C   UNL     1       0.017  -2.019  -1.149  0.00  0.00    +0.006 A 
ATOM     34  C   UNL     1       0.034  -2.739   0.031  0.00  0.00    -0.025 A 
ATOM     35  C   UNL     1       0.026  -2.077   1.244  0.00  0.00    +0.006 A 
ATOM     36  C   UNL     1       0.006  -0.695   1.278  0.00  0.00    +0.004 A 
ENDBRANCH   1  34
TORSDOF 2
