REMARK  Name = ZINC38511353
REMARK  4 active torsions:
REMARK  status: ('A' for Active; 'I' for Inactive)
REMARK    1  A    between atoms: C_1  and  N_2
REMARK    2  A    between atoms: C_13  and  N_17
REMARK    3  A    between atoms: C_18  and  C_20
REMARK    4  A    between atoms: C_24  and  N_29
REMARK                            x       y       z     vdW  Elec       q    Type
REMARK                         _______ _______ _______ _____ _____    ______ ____
ROOT
ATOM      1  C   UNL     1      -0.062   1.434   0.047  0.00  0.00    -0.096 C 
ATOM      2  N   UNL     1      -0.035  -0.035   0.034  0.00  0.00    +0.380 N 
ATOM      3  C   UNL     1       0.644  -0.499  -1.182  0.00  0.00    -0.060 C 
ATOM      4  C   UNL     1       0.572  -2.028  -1.254  0.00  0.00    +0.088 C 
ATOM      5  N   UNL     1       1.119  -2.580  -0.005  0.00  0.00    -0.313 N 
ATOM      6  C   UNL     1       0.608  -2.050   1.269  0.00  0.00    +0.088 C 
ATOM      7  C   UNL     1       0.678  -0.520   1.222  0.00  0.00    -0.060 C 
ATOM      8  C   UNL     1       2.083  -3.567  -0.027  0.00  0.00    +0.162 A 
ATOM      9  N   UNL     1       2.648  -4.144  -1.063  0.00  0.00    -0.225 NA
ATOM     10  C   UNL     1       3.589  -5.107  -0.935  0.00  0.00    +0.080 A 
ATOM     11  C   UNL     1       4.270  -5.802  -1.960  0.00  0.00    +0.031 A 
ATOM     12  C   UNL     1       5.196  -6.753  -1.664  0.00  0.00    +0.025 A 
ATOM     13  C   UNL     1       5.511  -7.079  -0.347  0.00  0.00    +0.035 A 
ATOM     14  C   UNL     1       4.863  -6.416   0.688  0.00  0.00    +0.040 A 
ATOM     15  C   UNL     1       3.928  -5.457   0.392  0.00  0.00    +0.043 A 
ATOM     16  S   UNL     1       2.886  -4.381   1.347  0.00  0.00    -0.052 S 
ATOM     17  H   UNL     1      -0.981  -0.387   0.043  0.00  0.00    -0.082 HD
ENDROOT
BRANCH  13  18
ATOM     18  N   UNL     1       6.469  -8.062  -0.070  0.00  0.00    -0.281 N 
ATOM     19  C   UNL     1       7.277  -7.933   1.001  0.00  0.00    +0.255 C 
ATOM     20  O   UNL     1       7.118  -7.008   1.775  0.00  0.00    -0.269 OA
ATOM     21  H   UNL     1       6.551  -8.836  -0.649  0.00  0.00    +0.155 HD
BRANCH  19  22
ATOM     22  C   UNL     1       8.349  -8.911   1.235  0.00  0.00    +0.075 A 
ATOM     23  C   UNL     1       9.251  -8.951   2.251  0.00  0.00    +0.029 A 
ATOM     24  C   UNL     1      10.209  -9.980   2.298  0.00  0.00    -0.008 A 
ATOM     25  C   UNL     1      11.224 -10.192   3.267  0.00  0.00    +0.041 A 
ATOM     26  C   UNL     1      12.075 -11.245   3.163  0.00  0.00    +0.127 A 
ATOM     27  C   UNL     1      11.989 -12.151   2.112  0.00  0.00    +0.034 A 
ATOM     28  C   UNL     1      11.016 -11.982   1.148  0.00  0.00    +0.018 A 
ATOM     29  C   UNL     1      10.144 -10.918   1.240  0.00  0.00    +0.020 A 
ATOM     30  S   UNL     1       8.782 -10.341   0.260  0.00  0.00    -0.084 S 
BRANCH  26  31
ATOM     31  N   UNL     1      13.122 -11.432   4.192  0.00  0.00    +0.056 N 
ATOM     32  O   UNL     1      13.211 -10.652   5.112  0.00  0.00    -0.126 OA
ATOM     33  O   UNL     1      13.888 -12.364   4.114  0.00  0.00    -0.126 OA
ENDBRANCH  26  31
ENDBRANCH  19  22
ENDBRANCH  13  18
TORSDOF 3
