REMARK  Name = ZINC04349577
REMARK  17 active torsions:
REMARK  status: ('A' for Active; 'I' for Inactive)
REMARK    1  A    between atoms: C_1  and  C_2
REMARK    2  A    between atoms: C_4  and  O_53
REMARK    3  A    between atoms: C_6  and  O_52
REMARK    4  A    between atoms: C_8  and  O_51
REMARK    5  A    between atoms: C_10  and  O_13
REMARK    6  A    between atoms: O_13  and  C_14
REMARK    7  A    between atoms: C_16  and  O_50
REMARK    8  A    between atoms: C_18  and  O_49
REMARK    9  A    between atoms: C_20  and  C_47
REMARK   10  A    between atoms: C_23  and  O_25
REMARK   11  A    between atoms: O_25  and  C_26
REMARK   12  A    between atoms: C_28  and  O_46
REMARK   13  A    between atoms: C_33  and  C_37
REMARK   14  A    between atoms: C_40  and  O_44
REMARK   15  A    between atoms: C_41  and  O_43
REMARK   16  A    between atoms: O_44  and  C_45
REMARK   17  A    between atoms: C_47  and  O_48
REMARK                            x       y       z     vdW  Elec       q    Type
REMARK                         _______ _______ _______ _____ _____    ______ ____
ROOT
ATOM      1  C   UNL     1       4.162   1.179  -0.150  0.00  0.00    +0.221 C 
ATOM      2  C   UNL     1       5.661   1.163   0.165  0.00  0.00    +0.180 C 
ATOM      3  C   UNL     1       6.135   2.597   0.416  0.00  0.00    +0.177 C 
ATOM      4  C   UNL     1       5.808   3.456  -0.809  0.00  0.00    +0.179 C 
ATOM      5  O   UNL     1       4.403   3.403  -1.065  0.00  0.00    -0.331 OA
ATOM      6  C   UNL     1       3.912   2.092  -1.353  0.00  0.00    +0.340 C 
ENDROOT
BRANCH   3   7
ATOM      7  O   UNL     1       5.467   3.127   1.563  0.00  0.00    -0.386 OA
ATOM      8  H   UNL     1       5.716   4.037   1.778  0.00  0.00    +0.210 HD
ENDBRANCH   3   7
BRANCH   2   9
ATOM      9  O   UNL     1       5.896   0.371   1.332  0.00  0.00    -0.386 OA
ATOM     10  H   UNL     1       6.826   0.317   1.589  0.00  0.00    +0.210 HD
ENDBRANCH   2   9
BRANCH   1  11
ATOM     11  O   UNL     1       3.442   1.671   0.982  0.00  0.00    -0.337 OA
BRANCH  11  17
ATOM     12  C   UNL     1      -0.753   1.593  -1.231  0.00  0.00    +0.041 C 
ATOM     13  C   UNL     1      -0.013   1.086   0.008  0.00  0.00    +0.149 C 
ATOM     14  C   UNL     1      -0.728   1.580   1.268  0.00  0.00    +0.174 C 
ATOM     15  C   UNL     1       0.053   1.119   2.503  0.00  0.00    +0.179 C 
ATOM     16  C   UNL     1       1.490   1.639   2.408  0.00  0.00    +0.201 C 
ATOM     17  C   UNL     1       2.120   1.143   1.104  0.00  0.00    +0.282 C 
ATOM     18  O   UNL     1       1.328   1.581  -0.002  0.00  0.00    -0.343 OA
BRANCH  16  19
ATOM     19  O   UNL     1       2.248   1.155   3.519  0.00  0.00    -0.384 OA
ATOM     20  H   UNL     1       3.171   1.442   3.521  0.00  0.00    +0.210 HD
ENDBRANCH  16  19
BRANCH  15  21
ATOM     21  O   UNL     1       0.064  -0.309   2.555  0.00  0.00    -0.386 OA
ATOM     22  H   UNL     1       0.548  -0.671   3.310  0.00  0.00    +0.210 HD
ENDBRANCH  15  21
BRANCH  14  23
ATOM     23  O   UNL     1      -0.795   3.007   1.251  0.00  0.00    -0.387 OA
ATOM     24  H   UNL     1      -1.272   3.369   0.492  0.00  0.00    +0.210 HD
ENDBRANCH  14  23
ENDBRANCH  11  17
ENDBRANCH   1  11
BRANCH   6  25
ATOM     25  O   UNL     1       4.589   1.570  -2.497  0.00  0.00    -0.461 OA
BRANCH  25  26
ATOM     26  C   UNL     1       4.385   2.206  -3.678  0.00  0.00    +0.131 A 
ATOM     27  C   UNL     1       3.540   3.310  -3.728  0.00  0.00    +0.092 A 
ATOM     28  C   UNL     1       3.328   3.969  -4.925  0.00  0.00    +0.135 A 
ATOM     29  C   UNL     1       3.962   3.510  -6.087  0.00  0.00    +0.105 A 
ATOM     30  C   UNL     1       3.760   4.178  -7.383  0.00  0.00    +0.197 A 
ATOM     31  O   UNL     1       3.034   5.154  -7.487  0.00  0.00    -0.287 OA
ATOM     32  C   UNL     1       4.440   3.645  -8.504  0.00  0.00    +0.098 A 
ATOM     33  C   UNL     1       5.240   2.556  -8.347  0.00  0.00    +0.139 A 
ATOM     34  O   UNL     1       5.416   1.955  -7.160  0.00  0.00    -0.454 OA
ATOM     35  C   UNL     1       4.811   2.391  -6.035  0.00  0.00    +0.146 A 
ATOM     36  C   UNL     1       5.015   1.746  -4.824  0.00  0.00    +0.093 A 
BRANCH  33  37
ATOM     37  C   UNL     1       5.940   2.015  -9.527  0.00  0.00    +0.021 A 
ATOM     38  C   UNL     1       5.772   2.615 -10.778  0.00  0.00    +0.015 A 
ATOM     39  C   UNL     1       6.430   2.110 -11.878  0.00  0.00    +0.050 A 
ATOM     40  C   UNL     1       7.254   1.000 -11.750  0.00  0.00    +0.161 A 
ATOM     41  C   UNL     1       7.423   0.394 -10.506  0.00  0.00    +0.159 A 
ATOM     42  C   UNL     1       6.769   0.897  -9.398  0.00  0.00    +0.060 A 
BRANCH  41  43
ATOM     43  O   UNL     1       8.231  -0.693 -10.384  0.00  0.00    -0.503 OA
ATOM     44  H   UNL     1       7.777  -1.537 -10.513  0.00  0.00    +0.292 HD
ENDBRANCH  41  43
BRANCH  40  45
ATOM     45  O   UNL     1       7.897   0.504 -12.838  0.00  0.00    -0.491 OA
ATOM     46  C   UNL     1       7.680   1.174 -14.082  0.00  0.00    +0.277 C 
ENDBRANCH  40  45
ENDBRANCH  33  37
BRANCH  28  47
ATOM     47  O   UNL     1       2.508   5.049  -4.975  0.00  0.00    -0.506 OA
ATOM     48  H   UNL     1       1.583   4.833  -5.156  0.00  0.00    +0.292 HD
ENDBRANCH  28  47
ENDBRANCH  25  26
ENDBRANCH   6  25
BRANCH   4  49
ATOM     49  C   UNL     1       6.224   4.904  -0.542  0.00  0.00    +0.190 C 
BRANCH  49  50
ATOM     50  O   UNL     1       6.025   5.682  -1.725  0.00  0.00    -0.392 OA
ATOM     51  H   UNL     1       6.269   6.612  -1.629  0.00  0.00    +0.210 HD
ENDBRANCH  49  50
ENDBRANCH   4  49
TORSDOF 15
