REMARK  Name = ZINC08921764
REMARK  8 active torsions:
REMARK  status: ('A' for Active; 'I' for Inactive)
REMARK    1  A    between atoms: C_1  and  N_2
REMARK    2  A    between atoms: C_9  and  C_12
REMARK    3  A    between atoms: C_9  and  O_26
REMARK    4  A    between atoms: C_12  and  C_13
REMARK    5  A    between atoms: C_13  and  C_15
REMARK    6  A    between atoms: C_18  and  O_24
REMARK    7  A    between atoms: C_19  and  N_21
REMARK    8  A    between atoms: O_24  and  C_25
REMARK                            x       y       z     vdW  Elec       q    Type
REMARK                         _______ _______ _______ _____ _____    ______ ____
ROOT
ATOM      1  C   UNL     1       0.973  -8.390  -3.238  0.00  0.00    +0.138 C 
ATOM      2  N   UNL     1       1.277  -7.756  -1.953  0.00  0.00    -0.271 N 
ATOM      3  C   UNL     1       2.454  -7.976  -1.236  0.00  0.00    +0.042 A 
ATOM      4  C   UNL     1       3.557  -8.780  -1.519  0.00  0.00    +0.025 A 
ATOM      5  C   UNL     1       4.619  -8.833  -0.640  0.00  0.00    +0.017 A 
ATOM      6  C   UNL     1       4.600  -8.089   0.526  0.00  0.00    +0.018 A 
ATOM      7  C   UNL     1       3.508  -7.287   0.813  0.00  0.00    +0.024 A 
ATOM      8  C   UNL     1       2.447  -7.233  -0.062  0.00  0.00    +0.016 A 
ATOM      9  C   UNL     1       1.138  -6.478  -0.045  0.00  0.00    +0.175 C 
ATOM     10  C   UNL     1       0.455  -6.896  -1.329  0.00  0.00    +0.256 C 
ATOM     11  O   UNL     1      -0.631  -6.525  -1.722  0.00  0.00    -0.272 OA
ATOM     12 BR   UNL     1       6.060  -8.168   1.725  0.00  0.00    -0.050 Br
ENDROOT
BRANCH   9  13
ATOM     13  O   UNL     1       0.355  -6.858   1.089  0.00  0.00    -0.374 OA
ATOM     14  H   UNL     1      -0.508  -6.424   1.133  0.00  0.00    +0.211 HD
ENDBRANCH   9  13
BRANCH   9  15
ATOM     15  C   UNL     1       1.391  -4.969  -0.039  0.00  0.00    +0.129 C 
BRANCH  15  16
ATOM     16  C   UNL     1       0.072  -4.239  -0.022  0.00  0.00    +0.167 C 
ATOM     17  O   UNL     1      -0.967  -4.864  -0.015  0.00  0.00    -0.292 OA
BRANCH  16  18
ATOM     18  C   UNL     1       0.046  -2.770  -0.013  0.00  0.00    +0.020 A 
ATOM     19  C   UNL     1       1.244  -2.046  -0.021  0.00  0.00    +0.015 A 
ATOM     20  C   UNL     1       1.217  -0.681  -0.013  0.00  0.00    +0.048 A 
ATOM     21  C   UNL     1       0.002  -0.004   0.002  0.00  0.00    +0.150 A 
ATOM     22  C   UNL     1      -1.194  -0.713   0.015  0.00  0.00    +0.168 A 
ATOM     23  C   UNL     1      -1.178  -2.090   0.002  0.00  0.00    +0.047 A 
BRANCH  22  24
ATOM     24  N   UNL     1      -2.484   0.011   0.038  0.00  0.00    +0.060 N 
ATOM     25  O   UNL     1      -3.532  -0.610   0.050  0.00  0.00    -0.126 OA
ATOM     26  O   UNL     1      -2.499   1.229   0.045  0.00  0.00    -0.126 OA
ENDBRANCH  22  24
BRANCH  21  27
ATOM     27  O   UNL     1      -0.016   1.352   0.009  0.00  0.00    -0.493 OA
ATOM     28  C   UNL     1       1.248   2.018   0.001  0.00  0.00    +0.277 C 
ENDBRANCH  21  27
ENDBRANCH  16  18
ENDBRANCH  15  16
ENDBRANCH   9  15
TORSDOF 6
