REMARK  Name = ZINC12225239
REMARK  9 active torsions:
REMARK  status: ('A' for Active; 'I' for Inactive)
REMARK    1  A    between atoms: C_1  and  C_2
REMARK    2  A    between atoms: C_2  and  C_3
REMARK    3  A    between atoms: C_3  and  C_5
REMARK    4  A    between atoms: C_3  and  S_7
REMARK    5  A    between atoms: S_7  and  C_8
REMARK    6  A    between atoms: C_13  and  N_17
REMARK    7  A    between atoms: C_14  and  N_16
REMARK    8  A    between atoms: C_18  and  C_20
REMARK    9  A    between atoms: C_23  and  C_26
REMARK                            x       y       z     vdW  Elec       q    Type
REMARK                         _______ _______ _______ _____ _____    ______ ____
ROOT
ATOM      1  C   UNL     1       1.960   3.065   2.656  0.00  0.00    +0.172 A 
ATOM      2  N   UNL     1       1.942   3.319   3.994  0.00  0.00    -0.300 N 
ATOM      3  H   UNL     1       1.225   3.849   4.376  0.00  0.00    +0.171 HD
ATOM      4  C   UNL     1       2.916   2.831   4.791  0.00  0.00    +0.275 A 
ATOM      5  O   UNL     1       2.905   3.050   5.992  0.00  0.00    -0.266 OA
ATOM      6  C   UNL     1       3.944   2.071   4.213  0.00  0.00    +0.139 A 
ATOM      7  C   UNL     1       3.917   1.846   2.841  0.00  0.00    +0.146 A 
ATOM      8  N   UNL     1       2.921   2.353   2.105  0.00  0.00    -0.207 NA
ENDROOT
BRANCH   6   9
ATOM      9  N   UNL     1       4.982   1.547   5.007  0.00  0.00    -0.274 N 
ATOM     10  C   UNL     1       5.769   2.376   5.721  0.00  0.00    +0.248 C 
ATOM     11  O   UNL     1       5.530   3.568   5.748  0.00  0.00    -0.270 OA
ATOM     12  H   UNL     1       5.131   0.589   5.040  0.00  0.00    +0.155 HD
BRANCH  10  13
ATOM     13  C   UNL     1       6.923   1.836   6.471  0.00  0.00    +0.037 A 
ATOM     14  C   UNL     1       7.197   0.468   6.447  0.00  0.00    +0.013 A 
ATOM     15  C   UNL     1       8.278  -0.029   7.145  0.00  0.00    +0.013 A 
ATOM     16  C   UNL     1       9.084   0.825   7.877  0.00  0.00    +0.055 A 
ATOM     17  C   UNL     1       8.815   2.182   7.909  0.00  0.00    +0.013 A 
ATOM     18  C   UNL     1       7.740   2.692   7.212  0.00  0.00    +0.013 A 
BRANCH  16  19
ATOM     19  C   UNL     1      10.260   0.275   8.642  0.00  0.00    +0.417 C 
ATOM     20  F   UNL     1       9.854  -0.073   9.934  0.00  0.00    -0.166 F 
ATOM     21  F   UNL     1      10.754  -0.859   7.987  0.00  0.00    -0.166 F 
ATOM     22  F   UNL     1      11.265   1.246   8.714  0.00  0.00    -0.166 F 
ENDBRANCH  16  19
ENDBRANCH  10  13
ENDBRANCH   6   9
BRANCH   7  23
ATOM     23  N   UNL     1       4.916   1.102   2.239  0.00  0.00    -0.341 N 
ATOM     24  H   UNL     1       4.895   0.947   1.282  0.00  0.00    +0.144 HD
ATOM     25  H   UNL     1       5.637   0.735   2.774  0.00  0.00    +0.144 HD
ENDBRANCH   7  23
BRANCH   1  26
ATOM     26  S   UNL     1       0.674   3.709   1.639  0.00  0.00    -0.073 S 
BRANCH  26  27
ATOM     27  C   UNL     1       1.206   3.085   0.026  0.00  0.00    +0.167 C 
BRANCH  27  28
ATOM     28  C   UNL     1       1.144   1.579   0.024  0.00  0.00    +0.369 C 
ATOM     29  O   UNL     1       2.164   0.932   0.007  0.00  0.00    -0.245 OA
ATOM     30  O   UNL     1      -0.045   0.956   0.043  0.00  0.00    -0.245 OA
ENDBRANCH  27  28
BRANCH  27  32
ATOM     31  C   UNL     1       0.440   5.154  -1.146  0.00  0.00    +0.005 C 
ATOM     32  C   UNL     1       0.283   3.634  -1.064  0.00  0.00    +0.023 C 
ENDBRANCH  27  32
ENDBRANCH  26  27
ENDBRANCH   1  26
TORSDOF 8
