REMARK  Name = ZINC02982616
REMARK  8 active torsions:
REMARK  status: ('A' for Active; 'I' for Inactive)
REMARK    1  A    between atoms: C_1  and  C_2
REMARK    2  A    between atoms: C_2  and  C_3
REMARK    3  A    between atoms: C_3  and  C_5
REMARK    4  A    between atoms: C_3  and  C_6
REMARK    5  A    between atoms: C_9  and  N_12
REMARK    6  A    between atoms: N_12  and  C_13
REMARK    7  A    between atoms: C_13  and  N_15
REMARK    8  A    between atoms: C_16  and  C_18
REMARK                            x       y       z     vdW  Elec       q    Type
REMARK                         _______ _______ _______ _____ _____    ______ ____
ROOT
ATOM      1  C   UNL     1      -1.099   3.462   0.798  0.00  0.00    +0.141 C 
ATOM      2  S   UNL     1      -2.425   3.945   1.768  0.00  0.00    -0.018 S 
ENDROOT
BRANCH   1   3
ATOM      3  N   UNL     1       0.044   4.176   0.816  0.00  0.00    -0.264 N 
ATOM      4  C   UNL     1       0.144   5.270   1.597  0.00  0.00    +0.251 C 
ATOM      5  O   UNL     1      -0.797   5.612   2.285  0.00  0.00    -0.270 OA
ATOM      6  H   UNL     1       0.795   3.902   0.266  0.00  0.00    +0.157 HD
BRANCH   4   7
ATOM      7  C   UNL     1       1.397   6.051   1.616  0.00  0.00    +0.051 A 
ATOM      8  C   UNL     1       2.482   5.657   0.831  0.00  0.00    +0.014 A 
ATOM      9  C   UNL     1       3.647   6.394   0.851  0.00  0.00    +0.001 A 
ATOM     10  C   UNL     1       3.747   7.517   1.654  0.00  0.00    +0.001 A 
ATOM     11  C   UNL     1       2.679   7.911   2.438  0.00  0.00    +0.016 A 
ATOM     12  C   UNL     1       1.504   7.186   2.425  0.00  0.00    +0.030 A 
ATOM     13 BR   UNL     1       0.044   7.725   3.499  0.00  0.00    -0.050 Br
ENDBRANCH   4   7
ENDBRANCH   1   3
BRANCH   1  14
ATOM     14  N   UNL     1      -1.197   2.366   0.021  0.00  0.00    -0.297 N 
ATOM     15  H   UNL     1      -0.470   2.127  -0.575  0.00  0.00    +0.154 HD
BRANCH  14  19
ATOM     16  C   UNL     1      -4.624   0.002   0.175  0.00  0.00    -0.044 A 
ATOM     17  C   UNL     1      -4.738   1.379   0.107  0.00  0.00    +0.006 A 
ATOM     18  C   UNL     1      -3.604   2.165   0.056  0.00  0.00    +0.023 A 
ATOM     19  C   UNL     1      -2.348   1.572   0.072  0.00  0.00    +0.033 A 
ATOM     20  C   UNL     1      -2.237   0.189   0.135  0.00  0.00    +0.023 A 
ATOM     21  C   UNL     1      -3.376  -0.591   0.192  0.00  0.00    +0.006 A 
BRANCH  16  22
ATOM     22  C   UNL     1      -5.864  -0.853   0.232  0.00  0.00    +0.016 C 
ATOM     23  C   UNL     1      -5.887  -1.797  -0.971  0.00  0.00    +0.012 C 
BRANCH  22  25
ATOM     24  C   UNL     1      -7.175  -2.445   1.642  0.00  0.00    +0.004 C 
ATOM     25  C   UNL     1      -5.860  -1.672   1.524  0.00  0.00    +0.004 C 
ENDBRANCH  22  25
ENDBRANCH  16  22
ENDBRANCH  14  19
ENDBRANCH   1  14
TORSDOF 6
