REMARK  Name = ZINC03075086
REMARK  3 active torsions:
REMARK  status: ('A' for Active; 'I' for Inactive)
REMARK    1  A    between atoms: C_6  and  N_7
REMARK    2  A    between atoms: C_13  and  N_25
REMARK    3  A    between atoms: C_19  and  N_20
REMARK                            x       y       z     vdW  Elec       q    Type
REMARK                         _______ _______ _______ _____ _____    ______ ____
ROOT
ATOM      1  N   UNL     1       2.596   1.454  -0.095  0.00  0.00    -0.202 N 
ATOM      2  C   UNL     1       2.597   0.111  -0.194  0.00  0.00    +0.258 C 
ATOM      3  O   UNL     1       1.543  -0.491  -0.267  0.00  0.00    -0.269 OA
ATOM      4  C   UNL     1       3.866  -0.630  -0.220  0.00  0.00    +0.046 A 
ATOM      5  C   UNL     1       3.914  -2.013  -0.323  0.00  0.00    +0.016 A 
ATOM      6  C   UNL     1       5.139  -2.670  -0.338  0.00  0.00    +0.034 A 
ATOM      7  C   UNL     1       6.318  -1.987  -0.251  0.00  0.00    +0.136 A 
ATOM      8  C   UNL     1       6.314  -0.585  -0.144  0.00  0.00    +0.044 A 
ATOM      9  C   UNL     1       5.077   0.093  -0.128  0.00  0.00    +0.011 A 
ATOM     10  C   UNL     1       5.039   1.502  -0.020  0.00  0.00    +0.046 A 
ATOM     11  C   UNL     1       6.232   2.203   0.070  0.00  0.00    +0.016 A 
ATOM     12  C   UNL     1       7.444   1.523   0.053  0.00  0.00    +0.034 A 
ATOM     13  C   UNL     1       7.500   0.163  -0.051  0.00  0.00    +0.136 A 
ATOM     14  C   UNL     1       3.731   2.173  -0.006  0.00  0.00    +0.258 C 
ATOM     15  O   UNL     1       3.674   3.385   0.086  0.00  0.00    -0.269 OA
ENDROOT
BRANCH   1  21
ATOM     16  C   UNL     1       0.774   2.522  -1.270  0.00  0.00    +0.025 A 
ATOM     17  C   UNL     1      -0.434   3.191  -1.250  0.00  0.00    +0.016 A 
ATOM     18  C   UNL     1      -1.058   3.458  -0.045  0.00  0.00    +0.013 A 
ATOM     19  C   UNL     1      -0.470   3.066   1.144  0.00  0.00    +0.016 A 
ATOM     20  C   UNL     1       0.741   2.402   1.130  0.00  0.00    +0.025 A 
ATOM     21  C   UNL     1       1.367   2.128  -0.078  0.00  0.00    +0.045 A 
ATOM     22  I   UNL     1      -2.895   4.466  -0.020  0.00  0.00    -0.044 I 
ENDBRANCH   1  21
BRANCH  13  23
ATOM     23  N   UNL     1       8.811  -0.525  -0.066  0.00  0.00    +0.057 N 
ATOM     24  O   UNL     1       9.567  -0.415   0.883  0.00  0.00    -0.126 OA
ATOM     25  O   UNL     1       9.134  -1.200  -1.026  0.00  0.00    -0.126 OA
ENDBRANCH  13  23
BRANCH   7  26
ATOM     26  N   UNL     1       7.603  -2.723  -0.270  0.00  0.00    +0.057 N 
ATOM     27  O   UNL     1       7.897  -3.409  -1.232  0.00  0.00    -0.126 OA
ATOM     28  O   UNL     1       8.365  -2.642   0.676  0.00  0.00    -0.126 OA
ENDBRANCH   7  26
TORSDOF 3
