REMARK  Name = ZINC20558413
REMARK  6 active torsions:
REMARK  status: ('A' for Active; 'I' for Inactive)
REMARK    1  A    between atoms: C_1  and  C_2
REMARK    2  A    between atoms: C_2  and  N_3
REMARK    3  A    between atoms: C_15  and  C_23
REMARK    4  A    between atoms: C_17  and  C_21
REMARK    5  A    between atoms: C_18  and  N_20
REMARK    6  A    between atoms: C_28  and  C_29
REMARK                            x       y       z     vdW  Elec       q    Type
REMARK                         _______ _______ _______ _____ _____    ______ ____
ROOT
ATOM      1  N   UNL     1      -0.911   0.234   0.421  0.00  0.00    -0.203 N 
ATOM      2  C   UNL     1      -0.041  -0.487   1.248  0.00  0.00    +0.062 A 
ATOM      3  C   UNL     1      -0.517  -1.627   1.884  0.00  0.00    +0.025 A 
ATOM      4  C   UNL     1       0.313  -2.356   2.713  0.00  0.00    +0.002 A 
ATOM      5  C   UNL     1       1.621  -1.951   2.914  0.00  0.00    +0.001 A 
ATOM      6  C   UNL     1       2.106  -0.824   2.288  0.00  0.00    +0.013 A 
ATOM      7  C   UNL     1       1.278  -0.076   1.440  0.00  0.00    +0.042 A 
ATOM      8  C   UNL     1       1.861   1.117   0.782  0.00  0.00    +0.162 C 
ATOM      9  C   UNL     1       1.095   2.060   0.241  0.00  0.00    +0.141 C 
ATOM     10  S   UNL     1      -0.663   1.877   0.312  0.00  0.00    +0.075 S 
ATOM     11  O   UNL     1      -1.176   2.291  -0.947  0.00  0.00    -0.150 OA
ATOM     12  O   UNL     1      -1.091   2.444   1.543  0.00  0.00    -0.150 OA
ATOM     13  C   UNL     1       1.684   3.271  -0.428  0.00  0.00    +0.118 C 
ATOM     14  C   UNL     1       3.131   3.030  -0.759  0.00  0.00    +0.099 C 
ATOM     15  C   UNL     1       3.810   2.022  -0.155  0.00  0.00    +0.199 C 
ATOM     16  O   UNL     1       3.216   1.224   0.746  0.00  0.00    -0.439 OA
ENDROOT
BRANCH  13  17
ATOM     17  C   UNL     1       1.577   4.455   0.499  0.00  0.00    -0.030 A 
ATOM     18  C   UNL     1       2.092   4.377   1.780  0.00  0.00    +0.005 A 
ATOM     19  C   UNL     1       1.994   5.463   2.631  0.00  0.00    +0.000 A 
ATOM     20  C   UNL     1       1.383   6.625   2.200  0.00  0.00    +0.000 A 
ATOM     21  C   UNL     1       0.869   6.703   0.920  0.00  0.00    +0.003 A 
ATOM     22  C   UNL     1       0.971   5.619   0.068  0.00  0.00    -0.046 A 
ATOM     23  C   UNL     1       0.415   5.705  -1.331  0.00  0.00    +0.044 C 
ENDBRANCH  13  17
BRANCH  15  24
ATOM     24  N   UNL     1       5.130   1.815  -0.472  0.00  0.00    -0.328 N 
ATOM     25  H   UNL     1       5.690   1.001   0.011  0.00  0.00    +0.145 HD
ATOM     26  H   UNL     1       5.627   2.462  -1.209  0.00  0.00    +0.145 HD
ENDBRANCH  15  24
BRANCH   1  28
ATOM     27  C   UNL     1      -1.445  -0.977  -1.636  0.00  0.00    +0.026 C 
ATOM     28  C   UNL     1      -1.991  -0.428  -0.316  0.00  0.00    +0.128 C 
ENDBRANCH   1  28
BRANCH  14  29
ATOM     29  C   UNL     1       3.794   3.866  -1.714  0.00  0.00    +0.101 C 
ATOM     30  N   UNL     1       4.320   4.529  -2.471  0.00  0.00    -0.191 NA
ENDBRANCH  14  29
TORSDOF 4
