REMARK  Name = ZINC35684972
REMARK  5 active torsions:
REMARK  status: ('A' for Active; 'I' for Inactive)
REMARK    1  A    between atoms: C_1  and  C_2
REMARK    2  A    between atoms: C_5  and  C_8
REMARK    3  A    between atoms: C_9  and  C_31
REMARK    4  A    between atoms: C_13  and  C_19
REMARK    5  A    between atoms: N_21  and  C_22
REMARK                            x       y       z     vdW  Elec       q    Type
REMARK                         _______ _______ _______ _____ _____    ______ ____
ROOT
ATOM      1  C   UNL     1       0.713  -4.401  -0.171  0.00  0.00    +0.098 A 
ATOM      2  C   UNL     1       1.279  -5.287   0.771  0.00  0.00    +0.017 A 
ATOM      3  C   UNL     1       0.864  -6.531   0.461  0.00  0.00    +0.128 A 
ATOM      4  N   UNL     1       0.061  -6.444  -0.642  0.00  0.00    -0.237 N 
ATOM      5  N   UNL     1      -0.020  -5.105  -1.012  0.00  0.00    -0.169 NA
ATOM      6  C   UNL     1      -0.564  -7.618  -1.257  0.00  0.00    +0.204 C 
ATOM      7  C   UNL     1       0.334  -8.835  -1.016  0.00  0.00    +0.132 C 
ATOM      8  C   UNL     1       0.828  -8.880   0.402  0.00  0.00    +0.221 C 
ATOM      9  O   UNL     1       0.952  -9.954   0.951  0.00  0.00    -0.275 OA
ATOM     10  N   UNL     1       1.139  -7.752   1.080  0.00  0.00    -0.270 N 
ATOM     11  C   UNL     1       2.184  -4.909   1.915  0.00  0.00    +0.049 C 
ATOM     12  H   UNL     1       1.537  -7.790   1.964  0.00  0.00    +0.156 HD
ENDROOT
BRANCH   1  17
ATOM     13  C   UNL     1       1.457   1.309  -0.305  0.00  0.00    +0.044 C 
ATOM     14  C   UNL     1       1.263  -0.185  -0.270  0.00  0.00    -0.050 A 
ATOM     15  C   UNL     1       1.139  -0.892  -1.452  0.00  0.00    +0.004 A 
ATOM     16  C   UNL     1       0.961  -2.260  -1.426  0.00  0.00    +0.010 A 
ATOM     17  C   UNL     1       0.905  -2.929  -0.205  0.00  0.00    +0.002 A 
ATOM     18  C   UNL     1       1.030  -2.213   0.983  0.00  0.00    +0.010 A 
ATOM     19  C   UNL     1       1.214  -0.845   0.945  0.00  0.00    +0.004 A 
ENDBRANCH   1  17
BRANCH   6  20
ATOM     20  C   UNL     1      -0.724  -7.389  -2.737  0.00  0.00    +0.242 C 
ATOM     21  O   UNL     1      -0.352  -6.346  -3.233  0.00  0.00    -0.273 OA
ATOM     22  N   UNL     1      -1.280  -8.342  -3.511  0.00  0.00    -0.284 N 
ATOM     23  H   UNL     1      -1.507  -9.205  -3.129  0.00  0.00    +0.155 HD
BRANCH  22  24
ATOM     24  C   UNL     1      -1.530  -8.088  -4.865  0.00  0.00    +0.039 A 
ATOM     25  C   UNL     1      -1.433  -9.115  -5.794  0.00  0.00    +0.064 A 
ATOM     26  C   UNL     1      -1.681  -8.863  -7.131  0.00  0.00    +0.163 A 
ATOM     27  C   UNL     1      -2.025  -7.585  -7.544  0.00  0.00    +0.193 A 
ATOM     28  C   UNL     1      -2.122  -6.559  -6.617  0.00  0.00    +0.163 A 
ATOM     29  C   UNL     1      -1.880  -6.810  -5.278  0.00  0.00    +0.064 A 
ATOM     30  F   UNL     1      -2.456  -5.314  -7.021  0.00  0.00    -0.202 F 
ATOM     31  F   UNL     1      -2.267  -7.340  -8.850  0.00  0.00    -0.199 F 
ATOM     32  F   UNL     1      -1.587  -9.862  -8.036  0.00  0.00    -0.202 F 
ENDBRANCH  22  24
ENDBRANCH   6  20
TORSDOF 3
