REMARK  Name = ZINC56652959
REMARK  10 active torsions:
REMARK  status: ('A' for Active; 'I' for Inactive)
REMARK    1  A    between atoms: C_1  and  C_2
REMARK    2  A    between atoms: C_5  and  C_29
REMARK    3  A    between atoms: N_8  and  C_10
REMARK    4  A    between atoms: C_10  and  C_11
REMARK    5  A    between atoms: C_11  and  C_12
REMARK    6  A    between atoms: C_12  and  N_13
REMARK    7  A    between atoms: N_16  and  C_17
REMARK    8  A    between atoms: C_22  and  C_23
REMARK    9  A    between atoms: N_25  and  C_26
REMARK   10  A    between atoms: N_25  and  C_27
REMARK                            x       y       z     vdW  Elec       q    Type
REMARK                         _______ _______ _______ _____ _____    ______ ____
ROOT
ATOM      1  N   UNL     1       5.193  -2.169   3.324  0.00  0.00    -0.299 N 
ATOM      2  C   UNL     1       6.107  -2.504   4.256  0.00  0.00    +0.304 C 
ATOM      3  O   UNL     1       5.777  -3.163   5.223  0.00  0.00    -0.253 OA
ATOM      4  N   UNL     1       7.388  -2.107   4.117  0.00  0.00    -0.269 N 
ATOM      5  H   UNL     1       5.456  -1.643   2.553  0.00  0.00    +0.150 HD
ATOM      6  H   UNL     1       7.670  -1.656   3.305  0.00  0.00    +0.156 HD
ENDROOT
BRANCH   4   7
ATOM      7  C   UNL     1       8.305  -2.345   5.137  0.00  0.00    +0.048 A 
ATOM      8  C   UNL     1       7.869  -2.498   6.445  0.00  0.00    +0.044 A 
ATOM      9  C   UNL     1       8.781  -2.734   7.456  0.00  0.00    +0.043 A 
ATOM     10  C   UNL     1      10.136  -2.819   7.172  0.00  0.00    +0.021 A 
ATOM     11  C   UNL     1      10.586  -2.670   5.879  0.00  0.00    +0.016 A 
ATOM     12  C   UNL     1       9.675  -2.437   4.846  0.00  0.00    +0.058 A 
ATOM     13 CL   UNL     1       8.229  -2.924   9.091  0.00  0.00    -0.083 Cl
BRANCH  12  14
ATOM     14  C   UNL     1      10.150  -2.283   3.458  0.00  0.00    +0.248 C 
ATOM     15  O   UNL     1       9.686  -2.979   2.576  0.00  0.00    -0.270 OA
ATOM     16  N   UNL     1      11.098  -1.370   3.168  0.00  0.00    -0.304 N 
ATOM     17  C   UNL     1      11.654  -1.296   1.815  0.00  0.00    +0.132 C 
ATOM     18  C   UNL     1      11.573  -0.452   4.206  0.00  0.00    +0.132 C 
ENDBRANCH  12  14
ENDBRANCH   4   7
BRANCH   1  19
ATOM     19  C   UNL     1       3.801  -2.600   3.476  0.00  0.00    +0.104 C 
BRANCH  19  20
ATOM     20  C   UNL     1       2.977  -2.092   2.291  0.00  0.00    +0.000 C 
BRANCH  20  21
ATOM     21  C   UNL     1       1.524  -2.542   2.449  0.00  0.00    -0.077 C 
BRANCH  21  27
ATOM     22  C   UNL     1      -0.091   1.459   0.135  0.00  0.00    +0.005 C 
ATOM     23  C   UNL     1      -0.055  -0.070   0.107  0.00  0.00    -0.031 C 
ATOM     24  C   UNL     1      -1.485  -0.616   0.126  0.00  0.00    +0.003 C 
ATOM     25  C   UNL     1      -1.437  -2.146   0.177  0.00  0.00    -0.031 C 
ATOM     26  C   UNL     1      -0.632  -2.585   1.402  0.00  0.00    -0.076 C 
ATOM     27  N   UNL     1       0.733  -2.053   1.311  0.00  0.00    +0.380 N 
ATOM     28  C   UNL     1       0.700  -0.586   1.334  0.00  0.00    -0.076 C 
ATOM     29  C   UNL     1      -2.860  -2.699   0.274  0.00  0.00    +0.005 C 
ATOM     30  H   UNL     1       1.158  -2.365   0.451  0.00  0.00    -0.082 HD
ENDBRANCH  21  27
ENDBRANCH  20  21
ENDBRANCH  19  20
ENDBRANCH   1  19
TORSDOF 6
