REMARK  Name = ZINC33301869
REMARK  6 active torsions:
REMARK  status: ('A' for Active; 'I' for Inactive)
REMARK    1  A    between atoms: C_1  and  C_2
REMARK    2  A    between atoms: C_5  and  S_8
REMARK    3  A    between atoms: S_8  and  C_11
REMARK    4  A    between atoms: C_16  and  N_17
REMARK    5  A    between atoms: N_21  and  C_24
REMARK    6  A    between atoms: C_29  and  C_30
REMARK                            x       y       z     vdW  Elec       q    Type
REMARK                         _______ _______ _______ _____ _____    ______ ____
ROOT
ATOM      1  C   UNL     1       1.003   1.566   0.224  0.00  0.00    +0.151 A 
ATOM      2  C   UNL     1      -0.026   0.653   0.345  0.00  0.00    +0.145 A 
ATOM      3  N   UNL     1      -1.273   1.090   0.443  0.00  0.00    -0.221 NA
ATOM      4  C   UNL     1      -1.542   2.388   0.437  0.00  0.00    +0.220 A 
ATOM      5  N   UNL     1      -0.584   3.295   0.324  0.00  0.00    -0.198 NA
ATOM      6  C   UNL     1       0.689   2.926   0.216  0.00  0.00    +0.147 A 
ATOM      7  N   UNL     1      -2.857   2.805   0.548  0.00  0.00    -0.297 N 
ATOM      8  C   UNL     1      -3.025   3.722   1.683  0.00  0.00    +0.127 C 
ATOM      9  C   UNL     1      -4.471   4.221   1.723  0.00  0.00    +0.124 C 
ATOM     10  N   UNL     1      -5.380   3.072   1.839  0.00  0.00    -0.327 N 
ATOM     11  C   UNL     1      -5.212   2.155   0.703  0.00  0.00    +0.124 C 
ATOM     12  C   UNL     1      -3.766   1.656   0.663  0.00  0.00    +0.127 C 
ENDROOT
BRANCH  10  13
ATOM     13  C   UNL     1      -6.707   3.493   1.950  0.00  0.00    +0.034 A 
ATOM     14  C   UNL     1      -7.308   4.184   0.906  0.00  0.00    +0.043 A 
ATOM     15  C   UNL     1      -8.623   4.596   1.018  0.00  0.00    +0.043 A 
ATOM     16  C   UNL     1      -9.337   4.328   2.173  0.00  0.00    +0.020 A 
ATOM     17  C   UNL     1      -8.739   3.644   3.215  0.00  0.00    +0.006 A 
ATOM     18  C   UNL     1      -7.427   3.227   3.108  0.00  0.00    -0.029 A 
ATOM     19  C   UNL     1      -6.777   2.482   4.245  0.00  0.00    +0.045 C 
ATOM     20 CL   UNL     1      -9.377   5.455  -0.289  0.00  0.00    -0.083 Cl
ENDBRANCH  10  13
BRANCH   1  21
ATOM     21  S   UNL     1       2.674   1.026   0.084  0.00  0.00    +0.030 S 
ATOM     22  O   UNL     1       2.651  -0.392   0.166  0.00  0.00    -0.164 OA
ATOM     23  O   UNL     1       3.232   1.717  -1.026  0.00  0.00    -0.164 OA
BRANCH  21  28
ATOM     24  C   UNL     1       5.601   2.989   4.982  0.00  0.00    +0.044 C 
ATOM     25  C   UNL     1       4.870   2.498   3.758  0.00  0.00    -0.050 A 
ATOM     26  C   UNL     1       4.143   1.324   3.812  0.00  0.00    +0.005 A 
ATOM     27  C   UNL     1       3.473   0.874   2.690  0.00  0.00    +0.027 A 
ATOM     28  C   UNL     1       3.529   1.600   1.514  0.00  0.00    +0.094 A 
ATOM     29  C   UNL     1       4.260   2.772   1.459  0.00  0.00    +0.027 A 
ATOM     30  C   UNL     1       4.927   3.224   2.583  0.00  0.00    +0.005 A 
ENDBRANCH  21  28
ENDBRANCH   1  21
BRANCH   6  31
ATOM     31  N   UNL     1       1.688   3.878   0.097  0.00  0.00    -0.341 N 
ATOM     32  H   UNL     1       1.432   4.948   0.091  0.00  0.00    +0.144 HD
ATOM     33  H   UNL     1       2.739   3.564   0.008  0.00  0.00    +0.144 HD
ENDBRANCH   6  31
TORSDOF 4
