REMARK  Name = ZINC29936339
REMARK  7 active torsions:
REMARK  status: ('A' for Active; 'I' for Inactive)
REMARK    1  A    between atoms: C_3  and  C_6
REMARK    2  A    between atoms: C_6  and  C_8
REMARK    3  A    between atoms: C_6  and  N_15
REMARK    4  A    between atoms: N_15  and  C_16
REMARK    5  A    between atoms: C_16  and  C_17
REMARK    6  A    between atoms: N_19  and  C_20
REMARK    7  A    between atoms: C_25  and  N_26
REMARK                            x       y       z     vdW  Elec       q    Type
REMARK                         _______ _______ _______ _____ _____    ______ ____
ROOT
ATOM      1  C   UNL     1       2.399  -2.321   2.252  0.00  0.00    +0.016 C 
ENDROOT
BRANCH   1   2
ATOM      2  C   UNL     1       1.712  -3.332   3.134  0.00  0.00    +0.200 C 
ATOM      3  O   UNL     1       0.933  -4.127   2.653  0.00  0.00    -0.278 OA
ATOM      4  N   UNL     1       1.965  -3.352   4.458  0.00  0.00    -0.285 N 
ATOM      5  H   UNL     1       2.726  -2.682   4.883  0.00  0.00    +0.155 HD
BRANCH   4   6
ATOM      6  C   UNL     1       1.258  -4.226   5.292  0.00  0.00    +0.060 A 
ATOM      7  C   UNL     1       0.888  -5.482   4.831  0.00  0.00    +0.045 A 
ATOM      8  C   UNL     1       0.194  -6.345   5.658  0.00  0.00    +0.043 A 
ATOM      9  C   UNL     1      -0.143  -5.957   6.943  0.00  0.00    +0.022 A 
ATOM     10  C   UNL     1       0.216  -4.706   7.408  0.00  0.00    +0.031 A 
ATOM     11  C   UNL     1       0.917  -3.836   6.586  0.00  0.00    +0.088 A 
ATOM     12 CL   UNL     1      -0.262  -7.918   5.081  0.00  0.00    -0.083 Cl
BRANCH  11  13
ATOM     13  N   UNL     1       1.283  -2.566   7.057  0.00  0.00    -0.218 N 
ATOM     14  C   UNL     1       1.109  -2.085   8.303  0.00  0.00    +0.225 A 
ATOM     15  N   UNL     1       1.585  -0.867   8.337  0.00  0.00    -0.222 NA
ATOM     16  C   UNL     1       2.060  -0.532   7.138  0.00  0.00    +0.245 A 
ATOM     17  N   UNL     1       1.897  -1.540   6.320  0.00  0.00    -0.153 NA
ENDBRANCH  11  13
ENDBRANCH   4   6
ENDBRANCH   1   2
BRANCH   1  18
ATOM     18  N   UNL     1       1.958  -2.505   0.863  0.00  0.00    +0.392 N 
ATOM     19  H   UNL     1       0.868  -2.371   0.818  0.00  0.00    -0.084 HD
ATOM     20  H   UNL     1       2.216  -3.526   0.543  0.00  0.00    -0.084 HD
BRANCH  18  21
ATOM     21  C   UNL     1       2.608  -1.535  -0.028  0.00  0.00    -0.003 C 
BRANCH  21  22
ATOM     22  C   UNL     1       2.649  -2.088  -1.429  0.00  0.00    -0.056 A 
ATOM     23  C   UNL     1       1.565  -2.786  -1.928  0.00  0.00    +0.005 A 
ATOM     24  C   UNL     1       1.599  -3.290  -3.215  0.00  0.00    +0.038 A 
ATOM     25  C   UNL     1       2.724  -3.104  -4.000  0.00  0.00    +0.123 A 
ATOM     26  C   UNL     1       3.811  -2.410  -3.498  0.00  0.00    +0.038 A 
ATOM     27  C   UNL     1       3.773  -1.902  -2.213  0.00  0.00    +0.005 A 
ATOM     28  F   UNL     1       2.760  -3.600  -5.256  0.00  0.00    -0.205 F 
ENDBRANCH  21  22
BRANCH  21  31
ATOM     29  C   UNL     1       1.379   2.071  -0.010  0.00  0.00    +0.008 A 
ATOM     30  C   UNL     1       2.289   1.030  -0.019  0.00  0.00    +0.010 A 
ATOM     31  C   UNL     1       1.829  -0.245  -0.020  0.00  0.00    -0.020 A 
ATOM     32  S   UNL     1       0.061   0.001  -0.009  0.00  0.00    -0.103 S 
ATOM     33  C   UNL     1       0.054   1.786  -0.003  0.00  0.00    +0.045 A 
ENDBRANCH  21  31
ENDBRANCH  18  21
ENDBRANCH   1  18
TORSDOF 7
