REMARK  Name = ZINC19597227
REMARK  8 active torsions:
REMARK  status: ('A' for Active; 'I' for Inactive)
REMARK    1  A    between atoms: C_1  and  O_2
REMARK    2  A    between atoms: O_2  and  C_3
REMARK    3  A    between atoms: C_5  and  C_13
REMARK    4  A    between atoms: C_7  and  N_10
REMARK    5  A    between atoms: C_14  and  C_23
REMARK    6  A    between atoms: C_15  and  N_22
REMARK    7  A    between atoms: C_17  and  N_21
REMARK    8  A    between atoms: C_18  and  C_19
REMARK                            x       y       z     vdW  Elec       q    Type
REMARK                         _______ _______ _______ _____ _____    ______ ____
ROOT
ATOM      1  C   UNL     1      -0.013   1.086   0.008  0.00  0.00    +0.105 C 
ATOM      2  C   UNL     1      -0.671   1.547   1.263  0.00  0.00    +0.069 C 
ATOM      3  C   UNL     1      -1.445   2.636   1.385  0.00  0.00    +0.079 C 
ATOM      4  S   UNL     1      -1.824   3.699   0.041  0.00  0.00    -0.058 S 
ATOM      5  C   UNL     1      -1.474   2.651  -1.321  0.00  0.00    +0.079 C 
ATOM      6  C   UNL     1      -0.694   1.560  -1.229  0.00  0.00    +0.069 C 
ENDROOT
BRANCH   1   9
ATOM      7  C   UNL     1       3.765   1.143  -0.027  0.00  0.00    +0.169 A 
ATOM      8  C   UNL     1       2.457   0.685  -0.012  0.00  0.00    +0.054 A 
ATOM      9  C   UNL     1       1.409   1.586  -0.003  0.00  0.00    -0.028 A 
ATOM     10  C   UNL     1       1.662   2.945   0.002  0.00  0.00    +0.041 A 
ATOM     11  C   UNL     1       2.964   3.409  -0.008  0.00  0.00    +0.177 A 
ATOM     12  C   UNL     1       4.019   2.512  -0.022  0.00  0.00    +0.250 A 
ATOM     13  O   UNL     1       5.301   2.966  -0.033  0.00  0.00    -0.282 OA
BRANCH  11  14
ATOM     14  N   UNL     1       3.231   4.865  -0.004  0.00  0.00    +0.060 N 
ATOM     15  O   UNL     1       2.303   5.654   0.009  0.00  0.00    -0.126 OA
ATOM     16  O   UNL     1       4.378   5.274  -0.012  0.00  0.00    -0.126 OA
ENDBRANCH  11  14
BRANCH   7  18
ATOM     17  C   UNL     1       4.461  -1.131  -0.045  0.00  0.00    +0.277 C 
ATOM     18  O   UNL     1       4.797   0.258  -0.041  0.00  0.00    -0.491 OA
ENDBRANCH   7  18
ENDBRANCH   1   9
BRANCH   5  19
ATOM     19  N   UNL     1      -2.025   2.960  -2.543  0.00  0.00    -0.352 N 
ATOM     20  H   UNL     1      -1.823   2.320  -3.415  0.00  0.00    +0.143 HD
ATOM     21  H   UNL     1      -2.667   3.846  -2.648  0.00  0.00    +0.143 HD
ENDBRANCH   5  19
BRANCH   3  22
ATOM     22  N   UNL     1      -1.969   2.932   2.621  0.00  0.00    -0.352 N 
ATOM     23  H   UNL     1      -2.606   3.819   2.751  0.00  0.00    +0.143 HD
ATOM     24  H   UNL     1      -1.750   2.282   3.481  0.00  0.00    +0.143 HD
ENDBRANCH   3  22
BRANCH   6  25
ATOM     25  C   UNL     1      -0.503   0.788  -2.420  0.00  0.00    +0.098 C 
ATOM     26  N   UNL     1      -0.351   0.176  -3.364  0.00  0.00    -0.191 NA
ENDBRANCH   6  25
BRANCH   2  27
ATOM     27  C   UNL     1      -0.457   0.762   2.441  0.00  0.00    +0.098 C 
ATOM     28  N   UNL     1      -0.287   0.140   3.376  0.00  0.00    -0.191 NA
ENDBRANCH   2  27
TORSDOF 7
