REMARK  Name = ZINC10031352
REMARK  6 active torsions:
REMARK  status: ('A' for Active; 'I' for Inactive)
REMARK    1  A    between atoms: C_1  and  C_2
REMARK    2  A    between atoms: C_2  and  C_3
REMARK    3  A    between atoms: C_6  and  C_9
REMARK    4  A    between atoms: C_15  and  C_17
REMARK    5  A    between atoms: C_17  and  C_18
REMARK    6  A    between atoms: C_18  and  N_19
REMARK                            x       y       z     vdW  Elec       q    Type
REMARK                         _______ _______ _______ _____ _____    ______ ____
ROOT
ATOM      1  C   UNL     1      -1.328   1.997   5.852  0.00  0.00    +0.080 A 
ATOM      2  C   UNL     1      -2.424   2.751   5.539  0.00  0.00    +0.076 A 
ATOM      3  S   UNL     1      -2.356   2.709   3.753  0.00  0.00    -0.060 S 
ATOM      4  C   UNL     1      -0.892   1.694   3.609  0.00  0.00    +0.165 A 
ATOM      5  N   UNL     1      -0.589   1.488   4.877  0.00  0.00    -0.225 NA
ATOM      6  N   UNL     1      -0.242   1.246   2.466  0.00  0.00    -0.265 N 
ATOM      7  C   UNL     1      -0.718   1.572   1.248  0.00  0.00    +0.220 C 
ATOM      8  O   UNL     1      -1.714   2.256   1.150  0.00  0.00    -0.275 OA
ATOM      9  H   UNL     1       0.555   0.699   2.544  0.00  0.00    +0.157 HD
ENDROOT
BRANCH   1  13
ATOM     10  C   UNL     1      -0.295   1.294   9.916  0.00  0.00    -0.048 A 
ATOM     11  C   UNL     1       0.482   0.758   8.905  0.00  0.00    +0.004 A 
ATOM     12  C   UNL     1       0.151   0.983   7.584  0.00  0.00    +0.010 A 
ATOM     13  C   UNL     1      -0.968   1.752   7.270  0.00  0.00    +0.001 A 
ATOM     14  C   UNL     1      -1.744   2.295   8.293  0.00  0.00    +0.010 A 
ATOM     15  C   UNL     1      -1.407   2.059   9.610  0.00  0.00    +0.004 A 
BRANCH  10  17
ATOM     16  C   UNL     1       1.013   2.151  11.841  0.00  0.00    +0.009 C 
ATOM     17  C   UNL     1       0.071   1.046  11.357  0.00  0.00    +0.032 C 
ENDBRANCH  10  17
ENDBRANCH   1  13
BRANCH   7  18
ATOM     18  C   UNL     1      -0.013   1.086   0.008  0.00  0.00    +0.115 C 
BRANCH  18  19
ATOM     19  C   UNL     1      -0.753   1.593  -1.232  0.00  0.00    +0.126 C 
BRANCH  19  20
ATOM     20  N   UNL     1      -0.067   1.120  -2.437  0.00  0.00    -0.237 N 
ATOM     21  C   UNL     1      -0.437  -0.060  -2.962  0.00  0.00    +0.226 C 
ATOM     22  O   UNL     1      -1.319  -0.709  -2.441  0.00  0.00    -0.275 OA
ATOM     23  C   UNL     1       0.251  -0.577  -4.207  0.00  0.00    +0.132 C 
ATOM     24  C   UNL     1       1.340   0.282  -4.805  0.00  0.00    -0.027 A 
ATOM     25  C   UNL     1       2.021  -0.104  -5.934  0.00  0.00    +0.005 A 
ATOM     26  C   UNL     1       3.014   0.713  -6.451  0.00  0.00    +0.000 A 
ATOM     27  C   UNL     1       3.321   1.913  -5.835  0.00  0.00    +0.001 A 
ATOM     28  C   UNL     1       2.643   2.309  -4.700  0.00  0.00    +0.013 A 
ATOM     29  C   UNL     1       1.642   1.492  -4.174  0.00  0.00    +0.041 A 
ATOM     30  C   UNL     1       0.895   1.889  -2.966  0.00  0.00    +0.253 C 
ATOM     31  O   UNL     1       1.164   2.945  -2.430  0.00  0.00    -0.270 OA
ENDBRANCH  19  20
ENDBRANCH  18  19
ENDBRANCH   7  18
TORSDOF 5
