REMARK  Name = ZINC12501046
REMARK  7 active torsions:
REMARK  status: ('A' for Active; 'I' for Inactive)
REMARK    1  A    between atoms: C_5  and  C_7
REMARK    2  A    between atoms: C_9  and  C_27
REMARK    3  A    between atoms: C_11  and  C_14
REMARK    4  A    between atoms: C_20  and  C_24
REMARK    5  A    between atoms: C_27  and  C_29
REMARK    6  A    between atoms: C_27  and  C_33
REMARK    7  A    between atoms: C_29  and  C_30
REMARK                            x       y       z     vdW  Elec       q    Type
REMARK                         _______ _______ _______ _____ _____    ______ ____
ROOT
ATOM      1  C   UNL     1       1.247  -2.164  -0.022  0.00  0.00    +0.033 A 
ATOM      2  C   UNL     1       0.747  -2.863  -1.111  0.00  0.00    +0.017 A 
ATOM      3  C   UNL     1       0.768  -4.249  -1.128  0.00  0.00    -0.032 A 
ATOM      4  C   UNL     1       1.284  -4.958  -0.068  0.00  0.00    +0.019 A 
ATOM      5  C   UNL     1       1.798  -4.285   1.049  0.00  0.00    +0.063 A 
ATOM      6  C   UNL     1       1.786  -2.869   1.075  0.00  0.00    +0.197 A 
ATOM      7  O   UNL     1       2.235  -2.264   2.040  0.00  0.00    -0.287 OA
ENDROOT
BRANCH   5   8
ATOM      8  C   UNL     1       2.329  -5.016   2.142  0.00  0.00    +0.121 A 
ATOM      9  N   UNL     1       1.867  -6.204   2.581  0.00  0.00    -0.339 N 
ATOM     10  H   UNL     1       1.122  -6.697   2.203  0.00  0.00    +0.167 HD
ATOM     11  C   UNL     1       2.637  -6.602   3.661  0.00  0.00    +0.064 A 
ATOM     12  C   UNL     1       2.611  -7.720   4.487  0.00  0.00    +0.028 A 
ATOM     13  C   UNL     1       3.518  -7.846   5.501  0.00  0.00    +0.013 A 
ATOM     14  C   UNL     1       4.480  -6.854   5.715  0.00  0.00    +0.014 A 
ATOM     15  C   UNL     1       4.516  -5.729   4.893  0.00  0.00    +0.039 A 
ATOM     16  C   UNL     1       3.595  -5.602   3.866  0.00  0.00    +0.065 A 
ATOM     17  N   UNL     1       3.377  -4.631   2.897  0.00  0.00    -0.339 N 
ATOM     18  H   UNL     1       3.890  -3.815   2.785  0.00  0.00    +0.167 HD
BRANCH  14  19
ATOM     19  C   UNL     1       5.457  -6.998   6.814  0.00  0.00    +0.094 C 
ATOM     20  N   UNL     1       5.125  -7.665   7.919  0.00  0.00    -0.387 N 
ATOM     21  N   UNL     1       6.671  -6.461   6.700  0.00  0.00    -0.345 N 
ATOM     22  H   UNL     1       4.241  -8.056   8.002  0.00  0.00    +0.157 HD
ATOM     23  H   UNL     1       6.913  -5.975   5.896  0.00  0.00    +0.144 HD
ATOM     24  H   UNL     1       7.313  -6.555   7.421  0.00  0.00    +0.144 HD
ATOM     25  H   UNL     1       5.767  -7.759   8.640  0.00  0.00    +0.157 HD
ENDBRANCH  14  19
ENDBRANCH   5   8
BRANCH   1  30
ATOM     26  C   UNL     1      -0.017   1.376   0.010  0.00  0.00    +0.001 A 
ATOM     27  C   UNL     1       1.170   2.087   0.002  0.00  0.00    +0.003 A 
ATOM     28  C   UNL     1       2.382   1.422  -0.013  0.00  0.00    +0.039 A 
ATOM     29  C   UNL     1       2.415   0.040  -0.021  0.00  0.00    +0.131 A 
ATOM     30  C   UNL     1       1.220  -0.682  -0.014  0.00  0.00    +0.021 A 
ATOM     31  C   UNL     1       0.002  -0.004   0.002  0.00  0.00    +0.011 A 
ATOM     32  F   UNL     1       3.599  -0.609  -0.037  0.00  0.00    -0.205 F 
ENDBRANCH   1  30
BRANCH   3  33
ATOM     33  C   UNL     1       0.219  -4.988  -2.321  0.00  0.00    +0.143 C 
BRANCH  33  34
ATOM     34  C   UNL     1      -1.236  -4.638  -2.503  0.00  0.00    +0.364 C 
ATOM     35  O   UNL     1      -1.730  -4.644  -3.617  0.00  0.00    -0.246 OA
ATOM     36  O   UNL     1      -1.919  -4.350  -1.535  0.00  0.00    -0.246 OA
ENDBRANCH  33  34
BRANCH  33  37
ATOM     37  C   UNL     1       1.000  -4.586  -3.574  0.00  0.00    +0.144 C 
BRANCH  37  38
ATOM     38  C   UNL     1       0.534  -5.413  -4.744  0.00  0.00    +0.357 C 
ATOM     39  O   UNL     1      -0.342  -6.247  -4.590  0.00  0.00    -0.246 OA
ATOM     40  O   UNL     1       1.032  -5.249  -5.844  0.00  0.00    -0.246 OA
ENDBRANCH  37  38
ENDBRANCH  33  37
ENDBRANCH   3  33
TORSDOF 7
