REMARK  Name = ZINC09244355
REMARK  6 active torsions:
REMARK  status: ('A' for Active; 'I' for Inactive)
REMARK    1  A    between atoms: C_4  and  C_7
REMARK    2  A    between atoms: C_9  and  C_25
REMARK    3  A    between atoms: N_13  and  C_14
REMARK    4  A    between atoms: C_17  and  S_20
REMARK    5  A    between atoms: S_20  and  N_23
REMARK    6  A    between atoms: C_25  and  C_27
REMARK                            x       y       z     vdW  Elec       q    Type
REMARK                         _______ _______ _______ _____ _____    ______ ____
ROOT
ATOM      1  C   UNL     1      -1.195  -0.881   0.045  0.00  0.00    +0.150 C 
ATOM      2  C   UNL     1      -0.654  -2.292   0.004  0.00  0.00    +0.077 C 
ATOM      3  C   UNL     1       0.696  -2.191  -0.034  0.00  0.00    +0.250 C 
ATOM      4  C   UNL     1       1.076  -0.763  -0.025  0.00  0.00    +0.292 C 
ATOM      5  O   UNL     1       2.217  -0.345  -0.058  0.00  0.00    -0.266 OA
ATOM      6  N   UNL     1      -0.026   0.006   0.026  0.00  0.00    -0.253 N 
ATOM      7  O   UNL     1       1.559  -3.232  -0.079  0.00  0.00    -0.282 OA
ENDROOT
BRANCH   1  11
ATOM      8  C   UNL     1      -3.445  -0.272   3.625  0.00  0.00    +0.000 A 
ATOM      9  C   UNL     1      -4.094  -0.364   2.408  0.00  0.00    +0.000 A 
ATOM     10  C   UNL     1      -3.366  -0.561   1.249  0.00  0.00    +0.006 A 
ATOM     11  C   UNL     1      -1.989  -0.666   1.308  0.00  0.00    -0.022 A 
ATOM     12  C   UNL     1      -1.340  -0.580   2.526  0.00  0.00    +0.006 A 
ATOM     13  C   UNL     1      -2.068  -0.377   3.683  0.00  0.00    +0.000 A 
ENDBRANCH   1  11
BRANCH   6  14
ATOM     14  C   UNL     1      -0.054   1.403   0.051  0.00  0.00    +0.038 A 
ATOM     15  C   UNL     1      -1.269   2.075   0.092  0.00  0.00    +0.025 A 
ATOM     16  C   UNL     1      -1.293   3.455   0.123  0.00  0.00    +0.030 A 
ATOM     17  C   UNL     1      -0.109   4.169   0.100  0.00  0.00    +0.105 A 
ATOM     18  C   UNL     1       1.103   3.504   0.053  0.00  0.00    +0.030 A 
ATOM     19  C   UNL     1       1.134   2.123   0.028  0.00  0.00    +0.025 A 
BRANCH  17  20
ATOM     20  S   UNL     1      -0.143   5.930   0.131  0.00  0.00    +0.056 S 
ATOM     21  O   UNL     1      -1.380   6.302   0.725  0.00  0.00    -0.153 OA
ATOM     22  O   UNL     1       1.109   6.352   0.653  0.00  0.00    -0.153 OA
BRANCH  20  23
ATOM     23  N   UNL     1      -0.200   6.447  -1.441  0.00  0.00    -0.204 NA
ATOM     24  H   UNL     1      -0.223   7.547  -1.465  0.00  0.00    +0.144 HD
ATOM     25  H   UNL     1      -1.104   6.051  -1.925  0.00  0.00    +0.144 HD
ENDBRANCH  20  23
ENDBRANCH  17  20
ENDBRANCH   6  14
BRANCH   2  26
ATOM     26  C   UNL     1      -1.439  -3.529   0.005  0.00  0.00    +0.195 C 
ATOM     27  O   UNL     1      -1.372  -4.291   0.951  0.00  0.00    -0.287 OA
BRANCH  26  28
ATOM     28  C   UNL     1      -2.311  -3.852  -1.144  0.00  0.00    +0.022 A 
ATOM     29  C   UNL     1      -2.305  -3.039  -2.279  0.00  0.00    +0.013 A 
ATOM     30  C   UNL     1      -3.117  -3.349  -3.350  0.00  0.00    +0.021 A 
ATOM     31  C   UNL     1      -3.946  -4.457  -3.296  0.00  0.00    +0.041 A 
ATOM     32  C   UNL     1      -3.961  -5.265  -2.170  0.00  0.00    +0.021 A 
ATOM     33  C   UNL     1      -3.149  -4.969  -1.096  0.00  0.00    +0.013 A 
ATOM     34 CL   UNL     1      -4.971  -4.836  -4.645  0.00  0.00    -0.084 Cl
ENDBRANCH  26  28
ENDBRANCH   2  26
TORSDOF 6
