REMARK  Name = ZINC48701894
REMARK  3 active torsions:
REMARK  status: ('A' for Active; 'I' for Inactive)
REMARK    1  A    between atoms: C_5  and  C_6
REMARK    2  A    between atoms: C_6  and  C_8
REMARK    3  A    between atoms: C_6  and  N_11
REMARK                            x       y       z     vdW  Elec       q    Type
REMARK                         _______ _______ _______ _____ _____    ______ ____
ROOT
ATOM      1  C   UNL     1      -1.156  -0.969   0.008  0.00  0.00    +0.180 C 
ENDROOT
BRANCH   1   2
ATOM      2  N   UNL     1      -0.862  -2.093  -0.891  0.00  0.00    -0.289 NA
ATOM      3  C   UNL     1       0.231  -2.888  -0.384  0.00  0.00    +0.083 C 
ATOM      4  C   UNL     1       1.152  -3.425  -1.498  0.00  0.00    -0.004 C 
ATOM      5  C   UNL     1       0.354  -3.925  -2.719  0.00  0.00    -0.081 C 
ATOM      6  N   UNL     1      -0.827  -4.657  -2.327  0.00  0.00    +0.380 N 
ATOM      7  C   UNL     1      -1.967  -3.721  -2.327  0.00  0.00    -0.067 C 
ATOM      8  C   UNL     1      -2.064  -2.937  -1.098  0.00  0.00    +0.066 C 
ATOM      9  H   UNL     1      -0.998  -5.404  -2.984  0.00  0.00    -0.086 HD
ATOM     10  H   UNL     1      -0.699  -5.040  -1.402  0.00  0.00    -0.086 HD
ENDBRANCH   1   2
BRANCH   1  15
ATOM     11  C   UNL     1      -0.016   1.351   0.009  0.00  0.00    +0.028 A 
ATOM     12  C   UNL     1       1.184   2.038   0.002  0.00  0.00    +0.025 A 
ATOM     13  C   UNL     1       2.343   1.335  -0.013  0.00  0.00    +0.060 A 
ATOM     14  S   UNL     1       1.753  -0.350  -0.017  0.00  0.00    -0.098 S 
ATOM     15  C   UNL     1       0.002  -0.004   0.002  0.00  0.00    +0.017 A 
ATOM     16 BR   UNL     1       1.208   3.929   0.011  0.00  0.00    -0.050 Br
ENDBRANCH   1  15
BRANCH   1  17
ATOM     17  C   UNL     1      -1.370  -1.487   1.407  0.00  0.00    +0.233 C 
ATOM     18  O   UNL     1      -1.286  -2.676   1.633  0.00  0.00    -0.274 OA
ATOM     19  N   UNL     1      -1.655  -0.630   2.407  0.00  0.00    -0.328 N 
ATOM     20  H   UNL     1      -1.722   0.320   2.227  0.00  0.00    +0.145 HD
ATOM     21  H   UNL     1      -1.793  -0.964   3.308  0.00  0.00    +0.145 HD
ENDBRANCH   1  17
TORSDOF 3
