REMARK  Name = ZINC59311365
REMARK  8 active torsions:
REMARK  status: ('A' for Active; 'I' for Inactive)
REMARK    1  A    between atoms: C_1  and  C_2
REMARK    2  A    between atoms: C_2  and  C_23
REMARK    3  A    between atoms: N_3  and  N_4
REMARK    4  A    between atoms: C_7  and  S_10
REMARK    5  A    between atoms: S_10  and  C_11
REMARK    6  A    between atoms: C_11  and  C_12
REMARK    7  A    between atoms: N_14  and  C_15
REMARK    8  A    between atoms: C_26  and  N_29
REMARK                            x       y       z     vdW  Elec       q    Type
REMARK                         _______ _______ _______ _____ _____    ______ ____
ROOT
ATOM      1  N   UNL     1       0.049   0.036   2.340  0.00  0.00    -0.205 N 
ATOM      2  C   UNL     1       0.067  -0.662   3.534  0.00  0.00    +0.232 A 
ATOM      3  N   UNL     1       0.082  -1.972   3.664  0.00  0.00    -0.186 NA
ATOM      4  C   UNL     1       0.097  -2.295   4.962  0.00  0.00    +0.211 A 
ATOM      5  N   UNL     1       0.091  -1.194   5.675  0.00  0.00    -0.144 NA
ATOM      6  N   UNL     1       0.077  -0.120   4.770  0.00  0.00    -0.245 N 
ATOM      7  H   UNL     1       0.043   1.006   2.345  0.00  0.00    +0.177 HD
ATOM      8  H   UNL     1       0.073   0.825   4.990  0.00  0.00    +0.192 HD
ENDROOT
BRANCH   1  11
ATOM      9  C   UNL     1       0.014   1.504   0.011  0.00  0.00    +0.068 C 
ATOM     10  C   UNL     1       0.023  -0.003   0.002  0.00  0.00    +0.063 C 
ATOM     11  N   UNL     1       0.040  -0.658   1.123  0.00  0.00    -0.184 NA
BRANCH  10  12
ATOM     12  C   UNL     1       0.014  -0.733  -1.279  0.00  0.00    -0.002 A 
ATOM     13  C   UNL     1       0.001  -0.031  -2.486  0.00  0.00    +0.012 A 
ATOM     14  C   UNL     1      -0.008  -0.721  -3.681  0.00  0.00    +0.033 A 
ATOM     15  C   UNL     1      -0.005  -2.105  -3.685  0.00  0.00    +0.126 A 
ATOM     16  C   UNL     1       0.006  -2.806  -2.492  0.00  0.00    +0.033 A 
ATOM     17  C   UNL     1       0.022  -2.130  -1.290  0.00  0.00    +0.012 A 
BRANCH  15  18
ATOM     18  N   UNL     1      -0.015  -2.838  -4.971  0.00  0.00    +0.056 N 
ATOM     19  O   UNL     1      -0.026  -2.228  -6.015  0.00  0.00    -0.126 OA
ATOM     20  O   UNL     1      -0.013  -4.047  -4.978  0.00  0.00    -0.126 OA
ENDBRANCH  15  18
ENDBRANCH  10  12
ENDBRANCH   1  11
BRANCH   4  21
ATOM     21  S   UNL     1       0.120  -3.933   5.609  0.00  0.00    -0.075 S 
BRANCH  21  22
ATOM     22  C   UNL     1       0.134  -3.695   7.407  0.00  0.00    +0.173 C 
BRANCH  22  23
ATOM     23  C   UNL     1       0.154  -5.037   8.092  0.00  0.00    +0.227 C 
ATOM     24  O   UNL     1       0.159  -6.055   7.432  0.00  0.00    -0.275 OA
ATOM     25  N   UNL     1       0.167  -5.107   9.438  0.00  0.00    -0.285 N 
ATOM     26  H   UNL     1       0.231  -4.295   9.965  0.00  0.00    +0.155 HD
BRANCH  25  27
ATOM     27  C   UNL     1       0.088  -6.351  10.075  0.00  0.00    +0.035 A 
ATOM     28  C   UNL     1      -0.602  -6.476  11.274  0.00  0.00    +0.026 A 
ATOM     29  C   UNL     1      -0.680  -7.704  11.901  0.00  0.00    +0.041 A 
ATOM     30  C   UNL     1      -0.069  -8.811  11.336  0.00  0.00    +0.142 A 
ATOM     31  C   UNL     1       0.621  -8.689  10.140  0.00  0.00    +0.078 A 
ATOM     32  C   UNL     1       0.695  -7.463   9.507  0.00  0.00    +0.046 A 
ATOM     33 CL   UNL     1       1.386 -10.079   9.434  0.00  0.00    -0.081 Cl
ATOM     34  F   UNL     1      -0.145 -10.011  11.952  0.00  0.00    -0.204 F 
ENDBRANCH  25  27
ENDBRANCH  22  23
ENDBRANCH  21  22
ENDBRANCH   4  21
TORSDOF 7
