REMARK  Name = ZINC08970415
REMARK  6 active torsions:
REMARK  status: ('A' for Active; 'I' for Inactive)
REMARK    1  A    between atoms: C_3  and  S_6
REMARK    2  A    between atoms: S_6  and  C_9
REMARK    3  A    between atoms: C_9  and  C_11
REMARK    4  A    between atoms: C_9  and  C_23
REMARK    5  A    between atoms: C_11  and  N_12
REMARK    6  A    between atoms: C_13  and  C_15
REMARK                            x       y       z     vdW  Elec       q    Type
REMARK                         _______ _______ _______ _____ _____    ______ ____
ROOT
ATOM      1  C   UNL     1      -3.104   4.685   2.091  0.00  0.00    +0.183 C 
ENDROOT
BRANCH   1   2
ATOM      2  C   UNL     1      -1.836   5.236   2.689  0.00  0.00    -0.021 A 
ATOM      3  C   UNL     1      -0.622   4.638   2.408  0.00  0.00    +0.007 A 
ATOM      4  C   UNL     1       0.542   5.147   2.953  0.00  0.00    +0.020 A 
ATOM      5  C   UNL     1       0.491   6.248   3.789  0.00  0.00    +0.041 A 
ATOM      6  C   UNL     1      -0.725   6.843   4.074  0.00  0.00    +0.020 A 
ATOM      7  C   UNL     1      -1.888   6.337   3.525  0.00  0.00    +0.007 A 
ATOM      8 CL   UNL     1       1.951   6.883   4.479  0.00  0.00    -0.084 Cl
ENDBRANCH   1   2
BRANCH   1   9
ATOM      9  S   UNL     1      -2.998   4.753   0.281  0.00  0.00    +0.011 S 
ATOM     10  O   UNL     1      -2.648   6.064  -0.140  0.00  0.00    -0.168 OA
ATOM     11  O   UNL     1      -4.104   4.076  -0.300  0.00  0.00    -0.168 OA
BRANCH   9  14
ATOM     12  C   UNL     1      -0.321   1.863  -0.696  0.00  0.00    +0.009 A 
ATOM     13  C   UNL     1      -1.544   2.435  -0.400  0.00  0.00    +0.035 A 
ATOM     14  C   UNL     1      -1.599   3.762  -0.128  0.00  0.00    +0.126 A 
ATOM     15  S   UNL     1       0.110   4.247  -0.299  0.00  0.00    -0.078 S 
ATOM     16  C   UNL     1       0.785   2.647  -0.715  0.00  0.00    +0.047 A 
ENDBRANCH   9  14
ENDBRANCH   1   9
BRANCH   1  17
ATOM     17  C   UNL     1      -3.290   3.233   2.536  0.00  0.00    +0.136 C 
BRANCH  17  18
ATOM     18  N   UNL     1      -4.522   2.697   1.954  0.00  0.00    -0.305 N 
ATOM     19  C   UNL     1      -4.892   1.427   2.211  0.00  0.00    +0.299 C 
ATOM     20  O   UNL     1      -4.204   0.727   2.924  0.00  0.00    -0.265 OA
ATOM     21  H   UNL     1      -5.073   3.256   1.384  0.00  0.00    +0.149 HD
BRANCH  19  22
ATOM     22  C   UNL     1      -6.150   0.880   1.617  0.00  0.00    +0.301 C 
ATOM     23  O   UNL     1      -6.774   1.535   0.808  0.00  0.00    -0.265 OA
ATOM     24  N   UNL     1      -6.591  -0.341   1.980  0.00  0.00    -0.294 N 
ATOM     25  C   UNL     1      -5.956  -1.068   3.087  0.00  0.00    +0.108 C 
ATOM     26  C   UNL     1      -7.043  -1.471   4.095  0.00  0.00    +0.019 C 
ATOM     27  C   UNL     1      -8.136  -2.260   3.370  0.00  0.00    +0.003 C 
ATOM     28  C   UNL     1      -8.777  -1.378   2.296  0.00  0.00    +0.019 C 
ATOM     29  C   UNL     1      -7.713  -0.972   1.272  0.00  0.00    +0.108 C 
ENDBRANCH  19  22
ENDBRANCH  17  18
ENDBRANCH   1  17
TORSDOF 6
