REMARK  Name = ZINC10302326
REMARK  3 active torsions:
REMARK  status: ('A' for Active; 'I' for Inactive)
REMARK    1  A    between atoms: C_1  and  C_2
REMARK    2  A    between atoms: C_2  and  C_9
REMARK    3  A    between atoms: N_3  and  N_4
REMARK                            x       y       z     vdW  Elec       q    Type
REMARK                         _______ _______ _______ _____ _____    ______ ____
ROOT
ATOM      1  C   UNL     1      -0.018   1.503   0.010  0.00  0.00    +0.068 C 
ATOM      2  C   UNL     1       0.002  -0.004   0.002  0.00  0.00    +0.066 C 
ATOM      3  N   UNL     1       0.022  -0.659   1.122  0.00  0.00    -0.169 NA
ENDROOT
BRANCH   2   4
ATOM      4  C   UNL     1      -0.000  -0.735  -1.279  0.00  0.00    -0.001 A 
ATOM      5  C   UNL     1      -0.015  -0.032  -2.487  0.00  0.00    +0.011 A 
ATOM      6  C   UNL     1      -0.017  -0.721  -3.682  0.00  0.00    +0.022 A 
ATOM      7  C   UNL     1      -0.004  -2.105  -3.687  0.00  0.00    +0.059 A 
ATOM      8  C   UNL     1       0.010  -2.808  -2.493  0.00  0.00    +0.060 A 
ATOM      9  C   UNL     1       0.019  -2.131  -1.290  0.00  0.00    +0.031 A 
ATOM     10 CL   UNL     1       0.026  -4.544  -2.509  0.00  0.00    -0.082 Cl
ATOM     11 CL   UNL     1      -0.007  -2.964  -5.196  0.00  0.00    -0.082 Cl
ENDBRANCH   2   4
BRANCH   3  12
ATOM     12  N   UNL     1       0.024   0.035   2.339  0.00  0.00    -0.207 N 
ATOM     13  C   UNL     1       0.777   1.125   2.664  0.00  0.00    +0.248 A 
ATOM     14  N   UNL     1       0.471   1.454   3.890  0.00  0.00    -0.136 NA
ATOM     15  N   UNL     1      -0.418   0.648   4.351  0.00  0.00    -0.136 NA
ATOM     16  C   UNL     1      -0.731  -0.236   3.442  0.00  0.00    +0.248 A 
ENDBRANCH   3  12
TORSDOF 2
