REMARK  Name = ZINC13250790
REMARK  6 active torsions:
REMARK  status: ('A' for Active; 'I' for Inactive)
REMARK    1  A    between atoms: C_3  and  N_8
REMARK    2  A    between atoms: N_8  and  S_9
REMARK    3  A    between atoms: S_9  and  C_12
REMARK    4  A    between atoms: C_15  and  N_18
REMARK    5  A    between atoms: C_19  and  C_21
REMARK    6  A    between atoms: C_27  and  C_29
REMARK                            x       y       z     vdW  Elec       q    Type
REMARK                         _______ _______ _______ _____ _____    ______ ____
ROOT
ATOM      1  C   UNL     1       6.230   2.777   0.398  0.00  0.00    +0.110 A 
ATOM      2  C   UNL     1       7.028   2.867  -0.728  0.00  0.00    +0.031 A 
ATOM      3  C   UNL     1       8.002   3.843  -0.810  0.00  0.00    +0.025 A 
ATOM      4  C   UNL     1       8.179   4.735   0.239  0.00  0.00    +0.034 A 
ATOM      5  C   UNL     1       7.376   4.642   1.368  0.00  0.00    +0.025 A 
ATOM      6  C   UNL     1       6.401   3.667   1.442  0.00  0.00    +0.031 A 
ENDROOT
BRANCH   4   7
ATOM      7  N   UNL     1       9.165   5.724   0.160  0.00  0.00    -0.285 N 
ATOM      8  C   UNL     1       9.506   6.241  -1.038  0.00  0.00    +0.221 C 
ATOM      9  O   UNL     1       8.895   5.918  -2.034  0.00  0.00    -0.275 OA
ATOM     10  H   UNL     1       9.603   6.039   0.966  0.00  0.00    +0.155 HD
BRANCH   8  11
ATOM     11  C   UNL     1      10.648   7.219  -1.138  0.00  0.00    +0.093 C 
ATOM     12  C   UNL     1      11.782   6.604  -1.962  0.00  0.00    +0.040 C 
ATOM     13  C   UNL     1      12.806   7.649  -2.294  0.00  0.00    -0.030 C 
ATOM     14  C   UNL     1      12.592   8.924  -2.217  0.00  0.00    -0.030 C 
ATOM     15  C   UNL     1      11.294   9.534  -1.775  0.00  0.00    +0.042 C 
ATOM     16  C   UNL     1      10.171   8.497  -1.840  0.00  0.00    +0.118 C 
BRANCH  16  17
ATOM     17  C   UNL     1       8.945   9.029  -1.145  0.00  0.00    +0.360 C 
ATOM     18  O   UNL     1       8.784  10.232  -1.027  0.00  0.00    -0.246 OA
ATOM     19  O   UNL     1       8.113   8.257  -0.701  0.00  0.00    -0.246 OA
ENDBRANCH  16  17
ENDBRANCH   8  11
ENDBRANCH   4   7
BRANCH   1  20
ATOM     20  S   UNL     1       4.989   1.530   0.498  0.00  0.00    +0.092 S 
ATOM     21  O   UNL     1       4.738   1.318   1.881  0.00  0.00    -0.148 OA
ATOM     22  O   UNL     1       5.394   0.483  -0.372  0.00  0.00    -0.148 OA
BRANCH  20  23
ATOM     23  N   UNL     1       3.601   2.168  -0.142  0.00  0.00    -0.098 NA
BRANCH  23  26
ATOM     24  C   UNL     1       0.124   1.166  -0.784  0.00  0.00    +0.003 A 
ATOM     25  C   UNL     1       1.273   1.931  -0.732  0.00  0.00    +0.027 A 
ATOM     26  C   UNL     1       2.438   1.397  -0.195  0.00  0.00    +0.076 A 
ATOM     27  C   UNL     1       2.443   0.095   0.288  0.00  0.00    +0.046 A 
ATOM     28  C   UNL     1       1.290  -0.665   0.234  0.00  0.00    +0.043 A 
ATOM     29  C   UNL     1       0.132  -0.130  -0.302  0.00  0.00    +0.020 A 
ATOM     30 CL   UNL     1       1.296  -2.293   0.837  0.00  0.00    -0.083 Cl
ENDBRANCH  23  26
ENDBRANCH  20  23
ENDBRANCH   1  20
TORSDOF 6
