REMARK  Name = ZINC08799215
REMARK  9 active torsions:
REMARK  status: ('A' for Active; 'I' for Inactive)
REMARK    1  A    between atoms: C_1  and  N_2
REMARK    2  A    between atoms: C_10  and  C_12
REMARK    3  A    between atoms: C_12  and  C_14
REMARK    4  A    between atoms: C_12  and  N_61
REMARK    5  A    between atoms: C_14  and  N_15
REMARK    6  A    between atoms: N_15  and  S_16
REMARK    7  A    between atoms: S_16  and  C_19
REMARK    8  A    between atoms: C_24  and  O_25
REMARK    9  A    between atoms: O_25  and  C_26
REMARK                            x       y       z     vdW  Elec       q    Type
REMARK                         _______ _______ _______ _____ _____    ______ ____
ROOT
ATOM      1  C   UNL     1       2.958  -2.118   4.634  0.00  0.00    -0.022 C 
ENDROOT
BRANCH   1  11
ATOM      2  C   UNL     1      -1.541   0.268   0.897  0.00  0.00    +0.129 C 
ATOM      3  N   UNL     1      -0.207  -0.078   0.388  0.00  0.00    -0.333 N 
ATOM      4  C   UNL     1       0.382   1.045  -0.345  0.00  0.00    +0.105 C 
ATOM      5  C   UNL     1       1.780   0.637  -0.826  0.00  0.00    +0.024 C 
ATOM      6  C   UNL     1       2.680   0.499   0.404  0.00  0.00    +0.038 C 
ATOM      7  C   UNL     1       1.973  -0.313   1.460  0.00  0.00    -0.026 A 
ATOM      8  C   UNL     1       0.611  -0.553   1.412  0.00  0.00    +0.033 A 
ATOM      9  C   UNL     1       0.011  -1.304   2.425  0.00  0.00    +0.023 A 
ATOM     10  C   UNL     1       0.767  -1.806   3.462  0.00  0.00    +0.004 A 
ATOM     11  C   UNL     1       2.129  -1.567   3.503  0.00  0.00    -0.059 A 
ATOM     12  C   UNL     1       2.727  -0.824   2.505  0.00  0.00    +0.007 A 
ENDBRANCH   1  11
BRANCH   1  17
ATOM     13  C   UNL     1       2.147  -4.294   3.900  0.00  0.00    -0.078 C 
ATOM     14  C   UNL     1       2.776  -5.496   3.153  0.00  0.00    -0.020 C 
ATOM     15  C   UNL     1       3.985  -4.859   2.429  0.00  0.00    -0.020 C 
ATOM     16  C   UNL     1       4.292  -3.572   3.216  0.00  0.00    -0.078 C 
ATOM     17  N   UNL     1       3.332  -3.530   4.320  0.00  0.00    +0.385 N 
ATOM     18  H   UNL     1       3.745  -3.962   5.155  0.00  0.00    -0.081 HD
ENDBRANCH   1  17
BRANCH   1  19
ATOM     19  C   UNL     1       2.146  -2.073   5.930  0.00  0.00    +0.095 C 
BRANCH  19  20
ATOM     20  N   UNL     1       2.906  -2.717   7.005  0.00  0.00    -0.191 NA
ATOM     21  H   UNL     1       3.672  -3.273   6.792  0.00  0.00    +0.148 HD
BRANCH  20  22
ATOM     22  S   UNL     1       2.457  -2.496   8.583  0.00  0.00    +0.062 S 
ATOM     23  O   UNL     1       3.359  -3.260   9.373  0.00  0.00    -0.153 OA
ATOM     24  O   UNL     1       2.283  -1.098   8.764  0.00  0.00    -0.153 OA
BRANCH  22  25
ATOM     25  C   UNL     1       0.869  -3.232   8.781  0.00  0.00    +0.148 A 
ATOM     26  C   UNL     1       0.713  -4.329   9.606  0.00  0.00    +0.052 A 
ATOM     27  C   UNL     1      -0.535  -4.904   9.765  0.00  0.00    +0.043 A 
ATOM     28  C   UNL     1      -1.628  -4.388   9.091  0.00  0.00    +0.024 A 
ATOM     29  C   UNL     1      -1.475  -3.295   8.261  0.00  0.00    +0.049 A 
ATOM     30  C   UNL     1      -0.226  -2.713   8.104  0.00  0.00    +0.146 A 
ATOM     31 CL   UNL     1      -0.730  -6.279  10.807  0.00  0.00    -0.083 Cl
BRANCH  30  32
ATOM     32  O   UNL     1      -0.073  -1.637   7.288  0.00  0.00    -0.493 OA
ATOM     33  C   UNL     1      -1.243  -1.156   6.623  0.00  0.00    +0.277 C 
ENDBRANCH  30  32
ENDBRANCH  22  25
ENDBRANCH  20  22
ENDBRANCH  19  20
ENDBRANCH   1  19
TORSDOF 7
