REMARK  Name = ZINC13237979
REMARK  9 active torsions:
REMARK  status: ('A' for Active; 'I' for Inactive)
REMARK    1  A    between atoms: C_1  and  C_2
REMARK    2  A    between atoms: C_5  and  N_9
REMARK    3  A    between atoms: C_7  and  C_8
REMARK    4  A    between atoms: C_13  and  C_15
REMARK    5  A    between atoms: C_15  and  S_16
REMARK    6  A    between atoms: S_16  and  C_17
REMARK    7  A    between atoms: N_27  and  C_28
REMARK    8  A    between atoms: C_28  and  C_29
REMARK    9  A    between atoms: C_29  and  C_30
REMARK                            x       y       z     vdW  Elec       q    Type
REMARK                         _______ _______ _______ _____ _____    ______ ____
ROOT
ATOM      1  S   UNL     1      -1.329  -1.310   1.908  0.00  0.00    -0.078 S 
ENDROOT
BRANCH   1   2
ATOM      2  C   UNL     1      -0.064  -0.347   2.667  0.00  0.00    +0.173 A 
ATOM      3  N   UNL     1       0.415  -0.743   3.821  0.00  0.00    -0.223 NA
ATOM      4  C   UNL     1       1.384  -0.047   4.461  0.00  0.00    +0.080 A 
ATOM      5  C   UNL     1       1.892  -0.465   5.694  0.00  0.00    +0.048 A 
ATOM      6  C   UNL     1       2.878   0.275   6.309  0.00  0.00    +0.043 A 
ATOM      7  C   UNL     1       3.374   1.431   5.716  0.00  0.00    +0.021 A 
ATOM      8  C   UNL     1       2.893   1.859   4.510  0.00  0.00    +0.017 A 
ATOM      9  C   UNL     1       1.895   1.129   3.867  0.00  0.00    +0.065 A 
ATOM     10  C   UNL     1       1.344   1.546   2.570  0.00  0.00    +0.262 A 
ATOM     11  O   UNL     1       1.742   2.550   2.009  0.00  0.00    -0.267 OA
ATOM     12  N   UNL     1       0.377   0.773   2.023  0.00  0.00    -0.287 N 
ATOM     13 CL   UNL     1       3.510  -0.243   7.840  0.00  0.00    -0.083 Cl
BRANCH  12  14
ATOM     14  C   UNL     1      -0.205   1.145   0.731  0.00  0.00    +0.138 C 
BRANCH  14  15
ATOM     15  C   UNL     1       0.599   0.496  -0.397  0.00  0.00    +0.147 C 
BRANCH  15  16
ATOM     16  C   UNL     1      -0.001   0.879  -1.726  0.00  0.00    +0.358 C 
ATOM     17  O   UNL     1      -0.971   1.597  -1.766  0.00  0.00    -0.246 OA
ATOM     18  O   UNL     1       0.544   0.421  -2.864  0.00  0.00    -0.246 OA
ENDBRANCH  15  16
ENDBRANCH  14  15
ENDBRANCH  12  14
ENDBRANCH   1   2
BRANCH   1  19
ATOM     19  C   UNL     1      -1.515  -2.617   3.146  0.00  0.00    +0.173 C 
BRANCH  19  24
ATOM     20  N   UNL     1      -4.149  -6.579   3.832  0.00  0.00    -0.269 N 
ATOM     21  C   UNL     1      -3.838  -5.517   3.063  0.00  0.00    +0.310 C 
ATOM     22  O   UNL     1      -4.414  -5.341   2.007  0.00  0.00    -0.252 OA
ATOM     23  N   UNL     1      -2.888  -4.649   3.465  0.00  0.00    -0.239 N 
ATOM     24  C   UNL     1      -2.577  -3.587   2.696  0.00  0.00    +0.231 C 
ATOM     25  O   UNL     1      -3.152  -3.412   1.643  0.00  0.00    -0.274 OA
ATOM     26  H   UNL     1      -3.638  -6.763   4.635  0.00  0.00    +0.156 HD
ATOM     27  H   UNL     1      -2.429  -4.790   4.308  0.00  0.00    +0.159 HD
BRANCH  20  32
ATOM     28  C   UNL     1      -8.450  -9.977   2.367  0.00  0.00    +0.044 C 
ATOM     29  C   UNL     1      -7.308  -9.075   2.756  0.00  0.00    -0.047 A 
ATOM     30  C   UNL     1      -7.368  -7.723   2.471  0.00  0.00    +0.005 A 
ATOM     31  C   UNL     1      -6.326  -6.892   2.832  0.00  0.00    +0.023 A 
ATOM     32  C   UNL     1      -5.210  -7.417   3.470  0.00  0.00    +0.035 A 
ATOM     33  C   UNL     1      -5.152  -8.775   3.755  0.00  0.00    +0.027 A 
ATOM     34  C   UNL     1      -6.201  -9.600   3.397  0.00  0.00    -0.046 A 
ATOM     35  C   UNL     1      -6.138 -11.074   3.705  0.00  0.00    +0.044 C 
ENDBRANCH  20  32
ENDBRANCH  19  24
ENDBRANCH   1  19
TORSDOF 7
