REMARK  Name = ZINC12490068
REMARK  10 active torsions:
REMARK  status: ('A' for Active; 'I' for Inactive)
REMARK    1  A    between atoms: C_1  and  C_2
REMARK    2  A    between atoms: C_6  and  C_28
REMARK    3  A    between atoms: C_7  and  O_8
REMARK    4  A    between atoms: O_8  and  C_9
REMARK    5  A    between atoms: C_9  and  C_10
REMARK    6  A    between atoms: N_12  and  N_13
REMARK    7  A    between atoms: C_14  and  C_16
REMARK    8  A    between atoms: C_16  and  C_17
REMARK    9  A    between atoms: C_17  and  C_18
REMARK   10  A    between atoms: N_20  and  C_21
REMARK                            x       y       z     vdW  Elec       q    Type
REMARK                         _______ _______ _______ _____ _____    ______ ____
ROOT
ATOM      1  N   UNL     1       0.567  -2.067  -1.045  0.00  0.00    -0.234 N 
ATOM      2  C   UNL     1       1.155  -2.727  -2.062  0.00  0.00    +0.230 C 
ATOM      3  O   UNL     1       1.660  -2.109  -2.974  0.00  0.00    -0.274 OA
ATOM      4  H   UNL     1       0.163  -2.562  -0.315  0.00  0.00    +0.173 HD
ENDROOT
BRANCH   1   7
ATOM      5  C   UNL     1      -0.051  -0.007  -0.025  0.00  0.00    +0.267 C 
ATOM      6  O   UNL     1      -0.556  -0.626   0.888  0.00  0.00    -0.271 OA
ATOM      7  N   UNL     1       0.538  -0.667  -1.042  0.00  0.00    -0.232 N 
ATOM      8  H   UNL     1       0.942  -0.172  -1.772  0.00  0.00    +0.173 HD
BRANCH   5   9
ATOM      9  C   UNL     1      -0.082   1.500  -0.022  0.00  0.00    +0.326 C 
BRANCH   9  10
ATOM     10  O   UNL     1      -0.755   1.960   1.151  0.00  0.00    -0.482 OA
BRANCH  10  17
ATOM     11  C   UNL     1       1.309   3.289   2.548  0.00  0.00    +0.047 C 
ATOM     12  C   UNL     1       0.112   4.012   1.986  0.00  0.00    -0.007 A 
ATOM     13  C   UNL     1      -0.004   5.380   2.141  0.00  0.00    +0.022 A 
ATOM     14  C   UNL     1      -1.106   6.043   1.630  0.00  0.00    +0.019 A 
ATOM     15  C   UNL     1      -2.090   5.339   0.959  0.00  0.00    +0.022 A 
ATOM     16  C   UNL     1      -1.975   3.972   0.798  0.00  0.00    -0.007 A 
ATOM     17  C   UNL     1      -0.871   3.305   1.309  0.00  0.00    +0.127 A 
ATOM     18  C   UNL     1      -3.047   3.206   0.067  0.00  0.00    +0.047 C 
ATOM     19 BR   UNL     1      -1.267   7.915   1.850  0.00  0.00    -0.050 Br
ENDBRANCH  10  17
ENDBRANCH   9  10
ENDBRANCH   5   9
ENDBRANCH   1   7
BRANCH   2  20
ATOM     20  C   UNL     1       1.186  -4.234  -2.065  0.00  0.00    +0.106 C 
BRANCH  20  21
ATOM     21  C   UNL     1       1.907  -4.727  -3.321  0.00  0.00    +0.105 C 
BRANCH  21  22
ATOM     22  C   UNL     1       1.938  -6.233  -3.324  0.00  0.00    +0.218 C 
ATOM     23  O   UNL     1       1.433  -6.852  -2.411  0.00  0.00    -0.275 OA
ATOM     24  N   UNL     1       2.527  -6.893  -4.341  0.00  0.00    -0.284 N 
ATOM     25  H   UNL     1       2.873  -6.402  -5.102  0.00  0.00    +0.155 HD
BRANCH  24  26
ATOM     26  C   UNL     1       2.639  -8.288  -4.299  0.00  0.00    +0.052 A 
ATOM     27  C   UNL     1       1.637  -9.049  -3.712  0.00  0.00    +0.025 A 
ATOM     28  C   UNL     1       1.748 -10.425  -3.677  0.00  0.00    +0.002 A 
ATOM     29  C   UNL     1       2.861 -11.046  -4.215  0.00  0.00    +0.002 A 
ATOM     30  C   UNL     1       3.863 -10.291  -4.795  0.00  0.00    +0.022 A 
ATOM     31  C   UNL     1       3.756  -8.914  -4.839  0.00  0.00    +0.062 A 
ATOM     32 CL   UNL     1       5.016  -7.966  -5.566  0.00  0.00    -0.082 Cl
ENDBRANCH  24  26
ENDBRANCH  21  22
ENDBRANCH  20  21
ENDBRANCH   2  20
TORSDOF 8
