REMARK  Name = ZINC15022221
REMARK  2 active torsions:
REMARK  status: ('A' for Active; 'I' for Inactive)
REMARK    1  A    between atoms: C_5  and  C_7
REMARK    2  A    between atoms: N_27  and  C_30
REMARK                            x       y       z     vdW  Elec       q    Type
REMARK                         _______ _______ _______ _____ _____    ______ ____
ROOT
ATOM      1  C   UNL     1      -0.026   1.372  -0.047  0.00  0.00    +0.001 A 
ATOM      2  C   UNL     1       1.169   2.069  -0.035  0.00  0.00    +0.008 A 
ATOM      3  C   UNL     1       2.364   1.387  -0.076  0.00  0.00    +0.004 A 
ATOM      4  C   UNL     1       2.386  -0.003  -0.130  0.00  0.00    +0.051 A 
ATOM      5  C   UNL     1       1.179  -0.697  -0.144  0.00  0.00    +0.076 A 
ATOM      6  C   UNL     1      -0.017  -0.010  -0.103  0.00  0.00    +0.014 A 
ATOM      7  N   UNL     1       3.704  -0.465  -0.164  0.00  0.00    -0.283 N 
ATOM      8  C   UNL     1       4.596   0.543  -0.135  0.00  0.00    +0.243 C 
ATOM      9  O   UNL     1       5.804   0.442  -0.152  0.00  0.00    -0.273 OA
ATOM     10  C   UNL     1       3.803   1.821  -0.076  0.00  0.00    +0.138 C 
ATOM     11  C   UNL     1       4.116   2.726  -1.273  0.00  0.00    +0.123 C 
ATOM     12  C   UNL     1       4.066   4.169  -0.699  0.00  0.00    +0.107 C 
ATOM     13  C   UNL     1       3.712   4.000   0.790  0.00  0.00    +0.071 C 
ATOM     14  N   UNL     1       4.133   2.601   1.130  0.00  0.00    -0.281 NA
ATOM     15  C   UNL     1       5.605   2.667   1.297  0.00  0.00    +0.086 C 
ATOM     16  C   UNL     1       5.874   4.024   1.978  0.00  0.00    +0.017 C 
ATOM     17  C   UNL     1       4.616   4.914   1.636  0.00  0.00    +0.021 C 
ATOM     18  C   UNL     1       5.493   4.650  -0.839  0.00  0.00    +0.232 C 
ATOM     19  O   UNL     1       5.900   5.742  -0.506  0.00  0.00    -0.274 OA
ATOM     20  N   UNL     1       6.236   3.681  -1.388  0.00  0.00    -0.210 N 
ATOM     21  C   UNL     1       5.561   2.547  -1.682  0.00  0.00    +0.233 C 
ATOM     22  O   UNL     1       6.027   1.549  -2.187  0.00  0.00    -0.274 OA
ATOM     23  H   UNL     1       3.949  -1.403  -0.204  0.00  0.00    +0.155 HD
ENDROOT
BRANCH  20  24
ATOM     24  C   UNL     1       7.607   3.831  -1.644  0.00  0.00    +0.044 A 
ATOM     25  C   UNL     1       8.532   3.072  -0.940  0.00  0.00    +0.025 A 
ATOM     26  C   UNL     1       9.882   3.220  -1.194  0.00  0.00    +0.022 A 
ATOM     27  C   UNL     1      10.312   4.125  -2.149  0.00  0.00    +0.041 A 
ATOM     28  C   UNL     1       9.391   4.883  -2.852  0.00  0.00    +0.022 A 
ATOM     29  C   UNL     1       8.040   4.733  -2.606  0.00  0.00    +0.025 A 
ATOM     30 CL   UNL     1      12.008   4.310  -2.466  0.00  0.00    -0.084 Cl
ENDBRANCH  20  24
BRANCH   5  31
ATOM     31  C   UNL     1       1.179  -2.203  -0.204  0.00  0.00    +0.419 C 
ATOM     32  F   UNL     1      -0.141  -2.669  -0.207  0.00  0.00    -0.166 F 
ATOM     33  F   UNL     1       1.825  -2.623  -1.371  0.00  0.00    -0.166 F 
ATOM     34  F   UNL     1       1.851  -2.715   0.911  0.00  0.00    -0.166 F 
ENDBRANCH   5  31
TORSDOF 2
