REMARK  Name = ZINC38787473
REMARK  4 active torsions:
REMARK  status: ('A' for Active; 'I' for Inactive)
REMARK    1  A    between atoms: C_1  and  C_2
REMARK    2  A    between atoms: C_4  and  C_14
REMARK    3  A    between atoms: N_16  and  C_17
REMARK    4  A    between atoms: C_20  and  C_23
REMARK                            x       y       z     vdW  Elec       q    Type
REMARK                         _______ _______ _______ _____ _____    ______ ____
ROOT
ATOM      1  C   UNL     1       3.545   1.831  -1.693  0.00  0.00    +0.034 A 
ATOM      2  C   UNL     1       4.611   0.946  -1.794  0.00  0.00    +0.024 A 
ATOM      3  C   UNL     1       5.885   1.422  -2.017  0.00  0.00    +0.012 A 
ATOM      4  C   UNL     1       6.104   2.793  -2.142  0.00  0.00    +0.002 A 
ATOM      5  C   UNL     1       5.032   3.680  -2.040  0.00  0.00    +0.012 A 
ATOM      6  C   UNL     1       3.759   3.198  -1.822  0.00  0.00    +0.024 A 
ENDROOT
BRANCH   4   7
ATOM      7  C   UNL     1       7.473   3.308  -2.381  0.00  0.00    +0.093 A 
ATOM      8  C   UNL     1       7.694   4.685  -2.500  0.00  0.00    +0.033 A 
ATOM      9  C   UNL     1       8.989   5.117  -2.723  0.00  0.00    +0.047 A 
ATOM     10  C   UNL     1       9.995   4.153  -2.814  0.00  0.00    +0.144 A 
ATOM     11  N   UNL     1       9.693   2.869  -2.688  0.00  0.00    -0.134 NA
ATOM     12  N   UNL     1       8.493   2.466  -2.477  0.00  0.00    -0.147 NA
ATOM     13  N   UNL     1      11.312   4.540  -3.037  0.00  0.00    -0.314 N 
ATOM     14  C   UNL     1      12.445   3.631  -3.264  0.00  0.00    +0.106 C 
ATOM     15  C   UNL     1      13.705   4.505  -3.437  0.00  0.00    +0.020 C 
ATOM     16  C   UNL     1      13.308   5.831  -2.736  0.00  0.00    +0.020 C 
ATOM     17  C   UNL     1      11.801   5.929  -3.093  0.00  0.00    +0.106 C 
ENDBRANCH   4   7
BRANCH   1  20
ATOM     18  C   UNL     1       1.850   0.202  -2.055  0.00  0.00    +0.262 C 
ATOM     19  O   UNL     1       2.638  -0.459  -2.699  0.00  0.00    -0.271 OA
ATOM     20  N   UNL     1       2.253   1.345  -1.466  0.00  0.00    -0.282 N 
ATOM     21  H   UNL     1       1.647   1.831  -0.885  0.00  0.00    +0.155 HD
BRANCH  18  24
ATOM     22  C   UNL     1       0.513   0.198   0.549  0.00  0.00    +0.056 C 
ATOM     23  C   UNL     1       0.206  -0.855  -0.518  0.00  0.00    +0.220 C 
ATOM     24  C   UNL     1       0.421  -0.255  -1.914  0.00  0.00    +0.299 C 
ATOM     25  O   UNL     1       0.139  -1.269  -2.885  0.00  0.00    -0.472 OA
ATOM     26  C   UNL     1       0.681  -2.497  -2.662  0.00  0.00    +0.163 A 
ATOM     27  C   UNL     1       0.761  -3.406  -3.707  0.00  0.00    +0.049 A 
ATOM     28  C   UNL     1       1.305  -4.659  -3.495  0.00  0.00    +0.004 A 
ATOM     29  C   UNL     1       1.770  -5.010  -2.241  0.00  0.00    +0.004 A 
ATOM     30  C   UNL     1       1.695  -4.108  -1.196  0.00  0.00    +0.049 A 
ATOM     31  C   UNL     1       1.152  -2.849  -1.403  0.00  0.00    +0.163 A 
ATOM     32  O   UNL     1       1.092  -1.969  -0.365  0.00  0.00    -0.481 OA
ENDBRANCH  18  24
ENDBRANCH   1  20
TORSDOF 3
