REMARK  Name = ZINC40732413
REMARK  8 active torsions:
REMARK  status: ('A' for Active; 'I' for Inactive)
REMARK    1  A    between atoms: C_1  and  C_2
REMARK    2  A    between atoms: C_2  and  C_3
REMARK    3  A    between atoms: C_4  and  C_18
REMARK    4  A    between atoms: N_6  and  C_9
REMARK    5  A    between atoms: C_7  and  C_8
REMARK    6  A    between atoms: C_9  and  C_10
REMARK    7  A    between atoms: C_11  and  C_17
REMARK    8  A    between atoms: N_13  and  C_16
REMARK                            x       y       z     vdW  Elec       q    Type
REMARK                         _______ _______ _______ _____ _____    ______ ____
ROOT
ATOM      1  C   UNL     1       1.469  -0.176   1.418  0.00  0.00    -0.004 A 
ATOM      2  C   UNL     1       2.792  -0.504   1.734  0.00  0.00    +0.063 A 
ATOM      3  N   UNL     1       2.820  -0.941   2.967  0.00  0.00    -0.176 NA
ATOM      4  N   UNL     1       1.516  -0.904   3.475  0.00  0.00    -0.264 N 
ATOM      5  C   UNL     1       0.706  -0.425   2.507  0.00  0.00    +0.040 A 
ATOM      6  C   UNL     1      -0.781  -0.211   2.618  0.00  0.00    +0.065 C 
ATOM      7  C   UNL     1       3.978  -0.378   0.814  0.00  0.00    +0.068 C 
ENDROOT
BRANCH   1   9
ATOM      8  C   UNL     1       1.046   1.895   0.122  0.00  0.00    +0.009 C 
ATOM      9  C   UNL     1       0.982   0.367   0.099  0.00  0.00    +0.035 C 
ENDBRANCH   1   9
BRANCH   4  10
ATOM     10  C   UNL     1       1.103  -1.307   4.822  0.00  0.00    +0.183 C 
BRANCH  10  11
ATOM     11  C   UNL     1       0.889  -2.798   4.856  0.00  0.00    +0.033 A 
ATOM     12  C   UNL     1      -0.332  -3.459   4.691  0.00  0.00    +0.066 A 
ATOM     13  N   UNL     1      -0.117  -4.746   4.784  0.00  0.00    -0.175 NA
ATOM     14  N   UNL     1       1.250  -4.947   5.013  0.00  0.00    -0.256 N 
ATOM     15  C   UNL     1       1.848  -3.737   5.048  0.00  0.00    +0.132 A 
ATOM     16 CL   UNL     1       3.539  -3.437   5.296  0.00  0.00    -0.062 Cl
ATOM     17  C   UNL     1       1.915  -6.241   5.179  0.00  0.00    +0.174 C 
ATOM     18  C   UNL     1      -1.666  -2.801   4.447  0.00  0.00    +0.068 C 
ENDBRANCH  10  11
ENDBRANCH   4  10
TORSDOF 3
