REMARK  Name = ZINC09785182
REMARK  4 active torsions:
REMARK  status: ('A' for Active; 'I' for Inactive)
REMARK    1  A    between atoms: C_6  and  N_7
REMARK    2  A    between atoms: C_14  and  C_16
REMARK    3  A    between atoms: C_16  and  C_17
REMARK    4  A    between atoms: N_25  and  C_26
REMARK                            x       y       z     vdW  Elec       q    Type
REMARK                         _______ _______ _______ _____ _____    ______ ____
ROOT
ATOM      1  C   UNL     1      -0.686  -0.521  -9.450  0.00  0.00    +0.152 C 
ENDROOT
BRANCH   1  12
ATOM      2  C   UNL     1       5.577   4.201 -11.317  0.00  0.00    +0.035 A 
ATOM      3  C   UNL     1       4.510   3.624 -10.678  0.00  0.00    +0.031 A 
ATOM      4  C   UNL     1       3.817   2.540 -11.263  0.00  0.00    +0.080 A 
ATOM      5  C   UNL     1       4.291   2.103 -12.521  0.00  0.00    +0.043 A 
ATOM      6  C   UNL     1       5.360   2.686 -13.154  0.00  0.00    +0.050 A 
ATOM      7  C   UNL     1       6.014   3.746 -12.552  0.00  0.00    +0.127 A 
ATOM      8  S   UNL     1       3.188   0.760 -12.894  0.00  0.00    -0.052 S 
ATOM      9  C   UNL     1       2.195   0.867 -11.412  0.00  0.00    +0.165 A 
ATOM     10  N   UNL     1       2.756   1.865 -10.771  0.00  0.00    -0.225 NA
ATOM     11  N   UNL     1       1.113   0.089 -11.034  0.00  0.00    -0.264 N 
ATOM     12  C   UNL     1       0.491   0.324  -9.861  0.00  0.00    +0.224 C 
ATOM     13  O   UNL     1       0.880   1.215  -9.137  0.00  0.00    -0.275 OA
ATOM     14  H   UNL     1       0.801  -0.624 -11.614  0.00  0.00    +0.157 HD
BRANCH   7  15
ATOM     15  N   UNL     1       7.170   4.387 -13.219  0.00  0.00    +0.056 N 
ATOM     16  O   UNL     1       7.549   3.982 -14.303  0.00  0.00    -0.126 OA
ATOM     17  O   UNL     1       7.741   5.320 -12.684  0.00  0.00    -0.126 OA
ENDBRANCH   7  15
ENDBRANCH   1  12
BRANCH   1  18
ATOM     18  C   UNL     1      -1.194  -0.058  -8.109  0.00  0.00    +0.059 A 
ATOM     19  C   UNL     1      -2.492   0.296  -7.944  0.00  0.00    +0.072 A 
ATOM     20  S   UNL     1      -2.497   0.739  -6.213  0.00  0.00    -0.060 S 
ATOM     21  C   UNL     1      -0.821   0.418  -5.892  0.00  0.00    +0.166 A 
ATOM     22  N   UNL     1      -0.385   0.018  -7.071  0.00  0.00    -0.229 NA
ATOM     23  N   UNL     1      -0.118   0.554  -4.701  0.00  0.00    -0.248 N 
ATOM     24  C   UNL     1      -0.749   0.989  -3.592  0.00  0.00    +0.306 C 
ATOM     25  O   UNL     1      -1.933   1.262  -3.634  0.00  0.00    -0.252 OA
ATOM     26  N   UNL     1      -0.067   1.120  -2.437  0.00  0.00    -0.296 N 
ATOM     27  H   UNL     1       0.827   0.336  -4.668  0.00  0.00    +0.158 HD
ATOM     28  H   UNL     1       0.878   0.902  -2.404  0.00  0.00    +0.151 HD
BRANCH  26  29
ATOM     29  C   UNL     1      -0.753   1.593  -1.232  0.00  0.00    +0.074 C 
ATOM     30  C   UNL     1      -0.013   1.086   0.008  0.00  0.00    +0.022 C 
ATOM     31  C   UNL     1      -0.729   1.579   1.267  0.00  0.00    +0.002 C 
ATOM     32  C   UNL     1      -0.750   3.109   1.275  0.00  0.00    +0.000 C 
ATOM     33  C   UNL     1      -1.490   3.616   0.036  0.00  0.00    +0.002 C 
ATOM     34  C   UNL     1      -0.773   3.123  -1.223  0.00  0.00    +0.022 C 
ENDBRANCH  26  29
ENDBRANCH   1  18
TORSDOF 4
