REMARK  Name = ZINC18046510
REMARK  3 active torsions:
REMARK  status: ('A' for Active; 'I' for Inactive)
REMARK    1  A    between atoms: C_4  and  C_7
REMARK    2  A    between atoms: C_7  and  C_9
REMARK    3  A    between atoms: N_24  and  C_27
REMARK                            x       y       z     vdW  Elec       q    Type
REMARK                         _______ _______ _______ _____ _____    ______ ____
ROOT
ATOM      1  C   UNL     1       3.752  -2.201  -0.031  0.00  0.00    +0.176 C 
ATOM      2  C   UNL     1       3.498  -2.706  -1.464  0.00  0.00    +0.119 C 
ATOM      3  C   UNL     1       4.304  -4.035  -1.543  0.00  0.00    +0.116 C 
ATOM      4  C   UNL     1       5.324  -3.954  -0.405  0.00  0.00    +0.129 C 
ATOM      5  N   UNL     1       5.063  -2.715   0.349  0.00  0.00    -0.237 N 
ATOM      6  N   UNL     1       6.002  -2.162   1.236  0.00  0.00    -0.191 NA
ATOM      7  C   UNL     1       7.261  -2.342   0.919  0.00  0.00    +0.130 C 
ATOM      8  C   UNL     1       7.616  -3.057  -0.310  0.00  0.00    +0.019 C 
ATOM      9  C   UNL     1       6.732  -3.850  -0.938  0.00  0.00    -0.001 C 
ATOM     10  C   UNL     1       5.008  -3.897  -2.880  0.00  0.00    +0.232 C 
ATOM     11  O   UNL     1       5.507  -4.802  -3.514  0.00  0.00    -0.274 OA
ATOM     12  N   UNL     1       4.987  -2.606  -3.243  0.00  0.00    -0.210 N 
ATOM     13  C   UNL     1       4.224  -1.812  -2.449  0.00  0.00    +0.232 C 
ATOM     14  O   UNL     1       4.138  -0.604  -2.505  0.00  0.00    -0.274 OA
ENDROOT
BRANCH  12  15
ATOM     15  C   UNL     1       5.684  -2.117  -4.357  0.00  0.00    +0.044 A 
ATOM     16  C   UNL     1       5.520  -0.797  -4.754  0.00  0.00    +0.025 A 
ATOM     17  C   UNL     1       6.207  -0.317  -5.851  0.00  0.00    +0.017 A 
ATOM     18  C   UNL     1       7.059  -1.150  -6.555  0.00  0.00    +0.018 A 
ATOM     19  C   UNL     1       7.224  -2.466  -6.160  0.00  0.00    +0.017 A 
ATOM     20  C   UNL     1       6.543  -2.949  -5.060  0.00  0.00    +0.025 A 
ATOM     21 BR   UNL     1       7.998  -0.490  -8.057  0.00  0.00    -0.050 Br
ENDBRANCH  12  15
BRANCH   1  22
ATOM     22  C   UNL     1       3.756  -0.694  -0.004  0.00  0.00    +0.186 C 
ATOM     23  O   UNL     1       4.808  -0.091  -0.013  0.00  0.00    -0.290 OA
BRANCH  22  27
ATOM     24  C   UNL     1       0.090   1.436   0.101  0.00  0.00    +0.000 A 
ATOM     25  C   UNL     1       1.288   2.128   0.092  0.00  0.00    +0.001 A 
ATOM     26  C   UNL     1       2.484   1.443   0.058  0.00  0.00    +0.011 A 
ATOM     27  C   UNL     1       2.484   0.045   0.033  0.00  0.00    +0.019 A 
ATOM     28  C   UNL     1       1.269  -0.647   0.043  0.00  0.00    +0.011 A 
ATOM     29  C   UNL     1       0.082   0.052   0.076  0.00  0.00    +0.001 A 
ENDBRANCH  22  27
ENDBRANCH   1  22
TORSDOF 3
