REMARK  Name = ZINC08707182
REMARK  5 active torsions:
REMARK  status: ('A' for Active; 'I' for Inactive)
REMARK    1  A    between atoms: C_1  and  C_2
REMARK    2  A    between atoms: C_2  and  C_4
REMARK    3  A    between atoms: C_2  and  N_9
REMARK    4  A    between atoms: C_10  and  C_12
REMARK    5  A    between atoms: C_12  and  N_13
REMARK                            x       y       z     vdW  Elec       q    Type
REMARK                         _______ _______ _______ _____ _____    ______ ____
ROOT
ATOM      1  N   UNL     1      -1.785   2.798  -0.650  0.00  0.00    -0.215 N 
ATOM      2  C   UNL     1      -0.775   2.071  -1.175  0.00  0.00    +0.251 C 
ATOM      3  O   UNL     1      -0.528   1.893  -2.349  0.00  0.00    -0.272 OA
ATOM      4  C   UNL     1      -0.019   1.530   0.011  0.00  0.00    +0.138 C 
ATOM      5  C   UNL     1       0.002  -0.004   0.002  0.00  0.00    +0.045 C 
ATOM      6  C   UNL     1       1.363  -0.308  -0.665  0.00  0.00    +0.038 C 
ATOM      7  C   UNL     1       2.221   0.909  -0.389  0.00  0.00    -0.042 A 
ATOM      8  C   UNL     1       1.420   1.970  -0.001  0.00  0.00    -0.012 A 
ATOM      9  C   UNL     1       1.998   3.192   0.300  0.00  0.00    +0.006 A 
ATOM     10  C   UNL     1       3.367   3.355   0.217  0.00  0.00    +0.000 A 
ATOM     11  C   UNL     1       4.166   2.295  -0.169  0.00  0.00    +0.000 A 
ATOM     12  C   UNL     1       3.593   1.076  -0.472  0.00  0.00    +0.004 A 
ATOM     13  N   UNL     1      -0.738   2.048   1.175  0.00  0.00    -0.281 N 
ATOM     14  C   UNL     1      -1.760   2.782   0.689  0.00  0.00    +0.310 C 
ATOM     15  O   UNL     1      -2.566   3.363   1.388  0.00  0.00    -0.252 OA
ATOM     16  H   UNL     1      -0.522   1.895   2.108  0.00  0.00    +0.152 HD
ENDROOT
BRANCH   1  17
ATOM     17  C   UNL     1      -2.784   3.515  -1.446  0.00  0.00    +0.213 C 
BRANCH  17  19
ATOM     18  N   UNL     1      -3.058   5.763  -2.441  0.00  0.00    -0.307 N 
ATOM     19  C   UNL     1      -2.298   4.914  -1.721  0.00  0.00    +0.231 C 
ATOM     20  O   UNL     1      -1.223   5.277  -1.293  0.00  0.00    -0.274 OA
ATOM     21  H   UNL     1      -3.918   5.472  -2.783  0.00  0.00    +0.149 HD
BRANCH  18  23
ATOM     22  C   UNL     1      -1.682   7.117  -3.943  0.00  0.00    +0.033 C 
ATOM     23  C   UNL     1      -2.585   7.123  -2.708  0.00  0.00    +0.107 C 
BRANCH  23  24
ATOM     24  C   UNL     1      -3.767   8.026  -2.955  0.00  0.00    +0.010 A 
ATOM     25  C   UNL     1      -3.967   9.302  -2.542  0.00  0.00    +0.013 A 
ATOM     26  C   UNL     1      -5.140   9.943  -2.892  0.00  0.00    +0.008 A 
ATOM     27  C   UNL     1      -6.056   9.277  -3.637  0.00  0.00    +0.045 A 
ATOM     28  S   UNL     1      -5.262   7.696  -3.873  0.00  0.00    -0.100 S 
ENDBRANCH  23  24
ENDBRANCH  18  23
ENDBRANCH  17  19
ENDBRANCH   1  17
TORSDOF 4
