REMARK  Name = ZINC39995093
REMARK  7 active torsions:
REMARK  status: ('A' for Active; 'I' for Inactive)
REMARK    1  A    between atoms: C_1  and  C_2
REMARK    2  A    between atoms: C_2  and  C_4
REMARK    3  A    between atoms: C_2  and  S_15
REMARK    4  A    between atoms: N_6  and  C_7
REMARK    5  A    between atoms: S_15  and  C_16
REMARK    6  A    between atoms: C_20  and  C_25
REMARK    7  A    between atoms: N_21  and  C_22
REMARK                            x       y       z     vdW  Elec       q    Type
REMARK                         _______ _______ _______ _____ _____    ______ ____
ROOT
ATOM      1  C   UNL     1      -2.059  -0.187  -1.565  0.00  0.00    +0.238 C 
ATOM      2  N   UNL     1      -1.312  -0.766  -2.693  0.00  0.00    -0.237 N 
ATOM      3  N   UNL     1      -1.036   0.289  -3.571  0.00  0.00    -0.169 NA
ATOM      4  C   UNL     1      -1.517   1.418  -3.122  0.00  0.00    +0.147 C 
ATOM      5  N   UNL     1      -2.169   1.244  -1.895  0.00  0.00    -0.282 N 
ATOM      6  H   UNL     1      -1.059  -1.696  -2.805  0.00  0.00    +0.171 HD
ENDROOT
BRANCH   4   7
ATOM      7  C   UNL     1      -1.397   2.648  -3.785  0.00  0.00    +0.022 C 
ATOM      8  C   UNL     1      -0.854   2.875  -5.051  0.00  0.00    +0.006 A 
ATOM      9  C   UNL     1      -0.288   2.012  -6.014  0.00  0.00    +0.010 A 
ATOM     10  C   UNL     1       0.170   2.521  -7.186  0.00  0.00    +0.001 A 
ATOM     11  C   UNL     1       0.098   3.886  -7.470  0.00  0.00    +0.002 A 
ATOM     12  C   UNL     1      -0.433   4.772  -6.591  0.00  0.00    +0.026 A 
ATOM     13  C   UNL     1      -0.933   4.315  -5.344  0.00  0.00    +0.043 A 
ATOM     14  N   UNL     1      -1.487   4.962  -4.338  0.00  0.00    -0.380 N 
ATOM     15  C   UNL     1      -1.834   4.006  -3.281  0.00  0.00    +0.152 C 
ATOM     16  H   UNL     1      -1.644   5.918  -4.303  0.00  0.00    +0.160 HD
ENDBRANCH   4   7
BRANCH   5  17
ATOM     17  C   UNL     1      -2.828   2.279  -1.095  0.00  0.00    +0.078 C 
ATOM     18  C   UNL     1      -3.421   1.861   0.252  0.00  0.00    +0.024 C 
ATOM     19  C   UNL     1      -4.345   2.180  -0.925  0.00  0.00    +0.024 C 
ENDBRANCH   5  17
BRANCH   1  20
ATOM     20  S   UNL     1      -1.145  -0.412  -0.014  0.00  0.00    -0.106 S 
BRANCH  20  22
ATOM     21  C   UNL     1       0.342   1.854  -0.384  0.00  0.00    +0.029 C 
ATOM     22  C   UNL     1       0.476   0.330  -0.349  0.00  0.00    +0.133 C 
BRANCH  22  23
ATOM     23  C   UNL     1       1.443  -0.065   0.737  0.00  0.00    +0.230 C 
ATOM     24  O   UNL     1       1.027  -0.453   1.808  0.00  0.00    -0.274 OA
ATOM     25  N   UNL     1       2.771   0.013   0.518  0.00  0.00    -0.282 N 
ATOM     26  H   UNL     1       3.104   0.387  -0.313  0.00  0.00    +0.155 HD
BRANCH  25  27
ATOM     27  C   UNL     1       3.670  -0.446   1.490  0.00  0.00    +0.069 A 
ATOM     28  C   UNL     1       3.243  -1.335   2.467  0.00  0.00    +0.029 A 
ATOM     29  C   UNL     1       4.130  -1.786   3.425  0.00  0.00    +0.040 A 
ATOM     30  C   UNL     1       5.445  -1.353   3.412  0.00  0.00    +0.126 A 
ATOM     31  C   UNL     1       5.875  -0.466   2.440  0.00  0.00    +0.078 A 
ATOM     32  C   UNL     1       4.992  -0.016   1.475  0.00  0.00    +0.147 A 
ATOM     33  F   UNL     1       5.412   0.845   0.522  0.00  0.00    -0.203 F 
ATOM     34  F   UNL     1       6.310  -1.796   4.350  0.00  0.00    -0.205 F 
ENDBRANCH  25  27
ENDBRANCH  22  23
ENDBRANCH  20  22
ENDBRANCH   1  20
TORSDOF 6
