REMARK  Name = ZINC41067787
REMARK  5 active torsions:
REMARK  status: ('A' for Active; 'I' for Inactive)
REMARK    1  A    between atoms: C_1  and  C_2
REMARK    2  A    between atoms: C_4  and  N_9
REMARK    3  A    between atoms: N_9  and  S_10
REMARK    4  A    between atoms: S_10  and  C_13
REMARK    5  A    between atoms: C_15  and  N_18
REMARK                            x       y       z     vdW  Elec       q    Type
REMARK                         _______ _______ _______ _____ _____    ______ ____
ROOT
ATOM      1  S   UNL     1       0.050  -4.426  -2.424  0.00  0.00    +0.098 S 
ATOM      2  O   UNL     1       1.304  -4.817  -1.881  0.00  0.00    -0.148 OA
ATOM      3  O   UNL     1      -1.187  -4.851  -1.869  0.00  0.00    -0.148 OA
ENDROOT
BRANCH   1   4
ATOM      4  C   UNL     1       0.049  -4.941  -4.109  0.00  0.00    +0.149 A 
ATOM      5  C   UNL     1       1.102  -5.181  -4.929  0.00  0.00    +0.059 A 
ATOM      6  C   UNL     1       0.860  -5.581  -6.233  0.00  0.00    +0.034 A 
ATOM      7  C   UNL     1      -0.427  -5.721  -6.648  0.00  0.00    +0.069 A 
ATOM      8  S   UNL     1      -1.340  -5.288  -5.176  0.00  0.00    -0.075 S 
BRANCH   6   9
ATOM      9  N   UNL     1       1.928  -5.839  -7.113  0.00  0.00    -0.358 N 
ATOM     10  H   UNL     1       2.843  -5.737  -6.808  0.00  0.00    +0.142 HD
ATOM     11  H   UNL     1       1.749  -6.119  -8.024  0.00  0.00    +0.142 HD
ENDBRANCH   6   9
ENDBRANCH   1   4
BRANCH   1  12
ATOM     12  N   UNL     1       0.028  -2.770  -2.418  0.00  0.00    -0.097 NA
BRANCH  12  16
ATOM     13  C   UNL     1      -0.018   1.503   0.010  0.00  0.00    +0.045 C 
ATOM     14  C   UNL     1       0.002  -0.004   0.002  0.00  0.00    -0.035 A 
ATOM     15  C   UNL     1       0.006  -0.687  -1.198  0.00  0.00    +0.031 A 
ATOM     16  C   UNL     1       0.025  -2.076  -1.205  0.00  0.00    +0.075 A 
ATOM     17  C   UNL     1       0.040  -2.774  -0.004  0.00  0.00    +0.028 A 
ATOM     18  C   UNL     1       0.036  -2.085   1.193  0.00  0.00    +0.017 A 
ATOM     19  C   UNL     1       0.023  -0.701   1.197  0.00  0.00    +0.021 A 
ATOM     20 BR   UNL     1       0.026   0.238   2.838  0.00  0.00    -0.050 Br
ENDBRANCH  12  16
ENDBRANCH   1  12
TORSDOF 4
