REMARK  Name = ZINC11936339
REMARK  6 active torsions:
REMARK  status: ('A' for Active; 'I' for Inactive)
REMARK    1  A    between atoms: C_1  and  C_2
REMARK    2  A    between atoms: C_4  and  C_8
REMARK    3  A    between atoms: C_8  and  N_50
REMARK    4  A    between atoms: C_12  and  C_15
REMARK    5  A    between atoms: N_17  and  C_18
REMARK    6  A    between atoms: C_21  and  C_24
REMARK                            x       y       z     vdW  Elec       q    Type
REMARK                         _______ _______ _______ _____ _____    ______ ____
ROOT
ATOM      1  C   UNL     1       0.180   3.934   2.113  0.00  0.00    -0.078 C 
ATOM      2  C   UNL     1       0.464   4.207   3.592  0.00  0.00    -0.018 C 
ATOM      3  C   UNL     1       1.148   5.570   3.732  0.00  0.00    +0.009 C 
ATOM      4  C   UNL     1       2.433   5.575   2.900  0.00  0.00    +0.059 C 
ATOM      5  C   UNL     1       2.092   5.263   1.441  0.00  0.00    -0.066 C 
ATOM      6  N   UNL     1       1.459   3.928   1.372  0.00  0.00    +0.384 N 
ATOM      7  H   UNL     1       2.088   3.239   1.799  0.00  0.00    -0.081 HD
ENDROOT
BRANCH   4   8
ATOM      8  C   UNL     1       3.082   6.933   2.985  0.00  0.00    +0.218 C 
ATOM      9  O   UNL     1       3.255   7.586   1.978  0.00  0.00    -0.275 OA
ATOM     10  N   UNL     1       3.470   7.420   4.180  0.00  0.00    -0.285 N 
ATOM     11  H   UNL     1       3.264   6.933   4.993  0.00  0.00    +0.155 HD
BRANCH  10  12
ATOM     12  C   UNL     1       4.171   8.629   4.248  0.00  0.00    +0.033 A 
ATOM     13  C   UNL     1       5.051   8.980   3.231  0.00  0.00    +0.024 A 
ATOM     14  C   UNL     1       5.739  10.173   3.294  0.00  0.00    +0.012 A 
ATOM     15  C   UNL     1       5.560  11.023   4.384  0.00  0.00    +0.001 A 
ATOM     16  C   UNL     1       4.681  10.667   5.406  0.00  0.00    +0.012 A 
ATOM     17  C   UNL     1       3.991   9.475   5.336  0.00  0.00    +0.024 A 
BRANCH  15  18
ATOM     18  C   UNL     1       6.304  12.304   4.457  0.00  0.00    +0.078 A 
ATOM     19  C   UNL     1       7.172  12.674   3.465  0.00  0.00    +0.075 A 
ATOM     20  S   UNL     1       7.738  14.248   4.093  0.00  0.00    -0.083 S 
ATOM     21  C   UNL     1       6.802  14.261   5.555  0.00  0.00    +0.156 A 
ATOM     22  N   UNL     1       6.146  13.129   5.480  0.00  0.00    -0.247 NA
ENDBRANCH  15  18
ENDBRANCH  10  12
ENDBRANCH   4   8
BRANCH   6  23
ATOM     23  C   UNL     1       1.224   3.554  -0.038  0.00  0.00    -0.023 C 
BRANCH  23  27
ATOM     24  C   UNL     1       1.268  -1.522  -0.444  0.00  0.00    +0.067 C 
ATOM     25  C   UNL     1       0.787  -0.105  -0.266  0.00  0.00    +0.060 A 
ATOM     26  C   UNL     1       1.588   1.042  -0.286  0.00  0.00    +0.045 A 
ATOM     27  C   UNL     1       0.785   2.114  -0.091  0.00  0.00    +0.020 A 
ATOM     28  N   UNL     1      -0.479   1.661   0.048  0.00  0.00    -0.283 N 
ATOM     29  H   UNL     1      -1.291   2.223   0.204  0.00  0.00    +0.188 HD
ATOM     30  N   UNL     1      -0.452   0.265  -0.066  0.00  0.00    -0.179 NA
ENDBRANCH  23  27
ENDBRANCH   6  23
TORSDOF 5
