REMARK  Name = ZINC40914138
REMARK  10 active torsions:
REMARK  status: ('A' for Active; 'I' for Inactive)
REMARK    1  A    between atoms: C_1  and  C_2
REMARK    2  A    between atoms: C_2  and  O_3
REMARK    3  A    between atoms: O_3  and  C_4
REMARK    4  A    between atoms: C_6  and  C_20
REMARK    5  A    between atoms: C_9  and  O_10
REMARK    6  A    between atoms: O_10  and  C_11
REMARK    7  A    between atoms: C_11  and  C_12
REMARK    8  A    between atoms: C_22  and  C_31
REMARK    9  A    between atoms: C_23  and  C_30
REMARK   10  A    between atoms: C_31  and  C_33
REMARK                            x       y       z     vdW  Elec       q    Type
REMARK                         _______ _______ _______ _____ _____    ______ ____
ROOT
ATOM      1  C   UNL     1      -1.623  -1.921   0.371  0.00  0.00    +0.163 A 
ATOM      2  C   UNL     1      -0.491  -2.719   0.316  0.00  0.00    +0.055 A 
ATOM      3  C   UNL     1      -0.617  -4.089   0.180  0.00  0.00    -0.014 A 
ATOM      4  C   UNL     1      -1.870  -4.666   0.099  0.00  0.00    +0.025 A 
ATOM      5  C   UNL     1      -3.004  -3.875   0.152  0.00  0.00    +0.063 A 
ATOM      6  C   UNL     1      -2.884  -2.501   0.295  0.00  0.00    +0.176 A 
ATOM      7 BR   UNL     1      -4.717  -4.669   0.039  0.00  0.00    -0.046 Br
ENDROOT
BRANCH   3   8
ATOM      8  C   UNL     1       0.615  -4.955   0.121  0.00  0.00    +0.176 C 
ATOM      9  C   UNL     1       0.592  -5.939   1.260  0.00  0.00    +0.040 C 
ATOM     10  C   UNL     1       0.356  -7.255   1.088  0.00  0.00    +0.016 C 
ATOM     11  N   UNL     1       0.129  -7.799  -0.148  0.00  0.00    -0.287 N 
ATOM     12  C   UNL     1       0.406  -7.010  -1.256  0.00  0.00    +0.218 A 
ATOM     13  N   UNL     1       0.640  -5.679  -1.147  0.00  0.00    -0.221 N 
ATOM     14  N   UNL     1       0.888  -5.212  -2.437  0.00  0.00    -0.156 NA
ATOM     15  C   UNL     1       0.790  -6.245  -3.237  0.00  0.00    +0.247 A 
ATOM     16  N   UNL     1       0.496  -7.333  -2.517  0.00  0.00    -0.201 NA
ATOM     17  C   UNL     1       0.343  -8.156   2.295  0.00  0.00    +0.061 C 
ATOM     18  H   UNL     1      -0.213  -8.702  -0.245  0.00  0.00    +0.155 HD
BRANCH   9  19
ATOM     19  C   UNL     1       0.828  -5.466   2.559  0.00  0.00    +0.160 C 
ATOM     20  O   UNL     1      -0.061  -5.497   3.387  0.00  0.00    -0.293 OA
ATOM     21  C   UNL     1       2.183  -4.919   2.927  0.00  0.00    +0.091 C 
ENDBRANCH   9  19
ENDBRANCH   3   8
BRANCH   1  22
ATOM     22  O   UNL     1      -1.500  -0.573   0.504  0.00  0.00    -0.489 OA
BRANCH  22  24
ATOM     23  C   UNL     1      -0.236   1.476   0.723  0.00  0.00    +0.048 C 
ATOM     24  C   UNL     1      -0.173  -0.046   0.576  0.00  0.00    +0.226 C 
ENDBRANCH  22  24
ENDBRANCH   1  22
BRANCH   6  25
ATOM     25  O   UNL     1      -3.998  -1.723   0.354  0.00  0.00    -0.483 OA
BRANCH  25  26
ATOM     26  C   UNL     1      -4.510  -1.228  -0.885  0.00  0.00    +0.266 C 
BRANCH  26  27
ATOM     27  C   UNL     1      -5.736  -0.392  -0.625  0.00  0.00    +0.008 A 
ATOM     28  C   UNL     1      -6.185  -0.208   0.670  0.00  0.00    +0.008 A 
ATOM     29  C   UNL     1      -7.309   0.559   0.909  0.00  0.00    +0.000 A 
ATOM     30  C   UNL     1      -7.986   1.143  -0.145  0.00  0.00    +0.001 A 
ATOM     31  C   UNL     1      -7.538   0.960  -1.440  0.00  0.00    +0.020 A 
ATOM     32  C   UNL     1      -6.409   0.197  -1.680  0.00  0.00    +0.047 A 
ATOM     33 CL   UNL     1      -5.842  -0.027  -3.305  0.00  0.00    -0.083 Cl
ENDBRANCH  26  27
ENDBRANCH  25  26
ENDBRANCH   6  25
TORSDOF 7
