REMARK  Name = ZINC21314081
REMARK  6 active torsions:
REMARK  status: ('A' for Active; 'I' for Inactive)
REMARK    1  A    between atoms: C_1  and  C_2
REMARK    2  A    between atoms: C_5  and  N_8
REMARK    3  A    between atoms: N_21  and  C_22
REMARK    4  A    between atoms: C_22  and  C_23
REMARK    5  A    between atoms: N_32  and  C_37
REMARK    6  A    between atoms: N_35  and  C_36
REMARK                            x       y       z     vdW  Elec       q    Type
REMARK                         _______ _______ _______ _____ _____    ______ ____
ROOT
ATOM      1  N   UNL     1       1.239   1.365   3.162  0.00  0.00    -0.269 N 
ATOM      2  C   UNL     1       2.314   0.604   3.447  0.00  0.00    +0.307 C 
ATOM      3  O   UNL     1       2.774   0.599   4.573  0.00  0.00    -0.252 OA
ATOM      4  N   UNL     1       2.880  -0.151   2.485  0.00  0.00    -0.282 N 
ATOM      5  C   UNL     1       2.409  -0.079   1.094  0.00  0.00    +0.128 C 
ATOM      6  C   UNL     1       3.627   0.151   0.184  0.00  0.00    +0.127 C 
ATOM      7  N   UNL     1       4.631  -0.889   0.446  0.00  0.00    -0.298 N 
ATOM      8  C   UNL     1       5.133  -0.810   1.825  0.00  0.00    +0.127 C 
ATOM      9  C   UNL     1       3.981  -1.075   2.800  0.00  0.00    +0.128 C 
ATOM     10  C   UNL     1       5.664  -0.817  -0.460  0.00  0.00    +0.201 A 
ATOM     11  N   UNL     1       6.447   0.228  -0.640  0.00  0.00    -0.196 NA
ATOM     12  C   UNL     1       7.345  -0.035  -1.590  0.00  0.00    +0.170 A 
ATOM     13  C   UNL     1       7.109  -1.328  -2.045  0.00  0.00    +0.153 A 
ATOM     14  N   UNL     1       6.032  -1.810  -1.312  0.00  0.00    -0.302 N 
ATOM     15  C   UNL     1       7.922  -1.858  -3.062  0.00  0.00    +0.282 A 
ATOM     16  O   UNL     1       7.733  -2.988  -3.476  0.00  0.00    -0.265 OA
ATOM     17  N   UNL     1       8.914  -1.101  -3.576  0.00  0.00    -0.262 N 
ATOM     18  C   UNL     1       9.134   0.147  -3.129  0.00  0.00    +0.333 A 
ATOM     19  O   UNL     1      10.038   0.800  -3.615  0.00  0.00    -0.246 OA
ATOM     20  N   UNL     1       8.379   0.693  -2.157  0.00  0.00    -0.280 N 
ATOM     21  C   UNL     1       8.651   2.057  -1.697  0.00  0.00    +0.155 C 
ATOM     22  C   UNL     1       9.764  -1.648  -4.636  0.00  0.00    +0.157 C 
ATOM     23  H   UNL     1       0.870   1.429   2.127  0.00  0.00    +0.156 HD
ENDROOT
BRANCH   1  28
ATOM     24  C   UNL     1      -1.383   4.236   7.293  0.00  0.00    +0.044 C 
ATOM     25  C   UNL     1      -0.686   3.473   6.196  0.00  0.00    -0.050 A 
ATOM     26  C   UNL     1      -1.425   2.909   5.172  0.00  0.00    +0.005 A 
ATOM     27  C   UNL     1      -0.790   2.209   4.164  0.00  0.00    +0.023 A 
ATOM     28  C   UNL     1       0.592   2.073   4.181  0.00  0.00    +0.035 A 
ATOM     29  C   UNL     1       1.331   2.636   5.213  0.00  0.00    +0.023 A 
ATOM     30  C   UNL     1       0.690   3.340   6.214  0.00  0.00    +0.005 A 
ENDBRANCH   1  28
BRANCH  14  31
ATOM     31  C   UNL     1       5.413  -3.132  -1.433  0.00  0.00    +0.162 C 
BRANCH  31  32
ATOM     32  C   UNL     1       5.780  -3.971  -0.236  0.00  0.00    -0.009 A 
ATOM     33  C   UNL     1       4.974  -3.964   0.887  0.00  0.00    +0.007 A 
ATOM     34  C   UNL     1       5.311  -4.732   1.985  0.00  0.00    +0.000 A 
ATOM     35  C   UNL     1       6.454  -5.510   1.961  0.00  0.00    +0.001 A 
ATOM     36  C   UNL     1       7.261  -5.518   0.839  0.00  0.00    +0.020 A 
ATOM     37  C   UNL     1       6.922  -4.752  -0.263  0.00  0.00    +0.046 A 
ATOM     38 CL   UNL     1       7.931  -4.767  -1.675  0.00  0.00    -0.083 Cl
ENDBRANCH  31  32
ENDBRANCH  14  31
TORSDOF 3
