REMARK  Name = ZINC39400132
REMARK  10 active torsions:
REMARK  status: ('A' for Active; 'I' for Inactive)
REMARK    1  A    between atoms: C_1  and  C_2
REMARK    2  A    between atoms: C_7  and  N_8
REMARK    3  A    between atoms: C_10  and  C_24
REMARK    4  A    between atoms: C_12  and  C_15
REMARK    5  A    between atoms: C_18  and  O_22
REMARK    6  A    between atoms: O_22  and  C_23
REMARK    7  A    between atoms: C_24  and  N_25
REMARK    8  A    between atoms: N_25  and  C_26
REMARK    9  A    between atoms: N_25  and  C_27
REMARK   10  A    between atoms: C_27  and  C_28
REMARK                            x       y       z     vdW  Elec       q    Type
REMARK                         _______ _______ _______ _____ _____    ______ ____
ROOT
ATOM      1  N   UNL     1      -1.359  -0.776   1.954  0.00  0.00    -0.266 N 
ATOM      2  C   UNL     1      -1.978  -0.671   3.285  0.00  0.00    +0.127 C 
ATOM      3  C   UNL     1      -0.976   0.138   4.143  0.00  0.00    +0.014 C 
ATOM      4  C   UNL     1       0.333  -0.045   3.328  0.00  0.00    +0.106 C 
ATOM      5  N   UNL     1      -0.177  -0.082   1.935  0.00  0.00    -0.232 NA
ATOM      6  H   UNL     1      -0.311   0.852   1.578  0.00  0.00    +0.145 HD
ENDROOT
BRANCH   1  13
ATOM      7  C   UNL     1      -1.743   0.613  -0.498  0.00  0.00    +0.046 C 
ATOM      8  C   UNL     1      -2.097  -0.844  -0.343  0.00  0.00    -0.028 A 
ATOM      9  C   UNL     1      -2.619  -1.547  -1.411  0.00  0.00    +0.005 A 
ATOM     10  C   UNL     1      -2.944  -2.883  -1.268  0.00  0.00    +0.000 A 
ATOM     11  C   UNL     1      -2.747  -3.521  -0.057  0.00  0.00    +0.002 A 
ATOM     12  C   UNL     1      -2.225  -2.824   1.015  0.00  0.00    +0.025 A 
ATOM     13  C   UNL     1      -1.892  -1.482   0.874  0.00  0.00    +0.047 A 
ENDBRANCH   1  13
BRANCH   4  14
ATOM     14  C   UNL     1       1.264   1.122   3.534  0.00  0.00    -0.026 A 
ATOM     15  C   UNL     1       1.056   2.301   2.844  0.00  0.00    +0.009 A 
ATOM     16  C   UNL     1       1.908   3.373   3.030  0.00  0.00    +0.049 A 
ATOM     17  C   UNL     1       2.973   3.266   3.911  0.00  0.00    +0.155 A 
ATOM     18  C   UNL     1       3.182   2.080   4.604  0.00  0.00    +0.165 A 
ATOM     19  C   UNL     1       2.322   1.012   4.417  0.00  0.00    +0.047 A 
ATOM     20  F   UNL     1       4.219   1.972   5.463  0.00  0.00    -0.202 F 
BRANCH  17  21
ATOM     21  O   UNL     1       3.813   4.319   4.095  0.00  0.00    -0.492 OA
ATOM     22  C   UNL     1       3.538   5.506   3.349  0.00  0.00    +0.277 C 
ENDBRANCH  17  21
ENDBRANCH   4  14
BRANCH   3  23
ATOM     23  C   UNL     1      -1.378   1.612   4.216  0.00  0.00    -0.072 C 
BRANCH  23  24
ATOM     24  N   UNL     1      -2.640   1.739   4.958  0.00  0.00    +0.381 N 
ATOM     25  C   UNL     1      -2.433   1.323   6.351  0.00  0.00    -0.096 C 
ATOM     26  H   UNL     1      -3.341   1.151   4.532  0.00  0.00    -0.082 HD
BRANCH  24  27
ATOM     27  C   UNL     1      -3.088   3.138   4.926  0.00  0.00    -0.028 C 
BRANCH  27  28
ATOM     28  C   UNL     1      -4.515   3.228   5.470  0.00  0.00    +0.204 C 
ATOM     29  N   UNL     1      -4.550   2.796   6.873  0.00  0.00    -0.266 NA
ATOM     30  C   UNL     1      -5.335   1.774   6.938  0.00  0.00    +0.126 C 
ATOM     31  C   UNL     1      -5.865   1.466   5.600  0.00  0.00    +0.126 C 
ATOM     32  N   UNL     1      -5.395   2.306   4.740  0.00  0.00    -0.266 NA
ENDBRANCH  27  28
ENDBRANCH  24  27
ENDBRANCH  23  24
ENDBRANCH   3  23
TORSDOF 7
