REMARK  Name = ZINC21505760
REMARK  5 active torsions:
REMARK  status: ('A' for Active; 'I' for Inactive)
REMARK    1  A    between atoms: C_1  and  C_2
REMARK    2  A    between atoms: C_4  and  C_7
REMARK    3  A    between atoms: C_7  and  S_8
REMARK    4  A    between atoms: S_8  and  N_11
REMARK    5  A    between atoms: C_19  and  N_21
REMARK                            x       y       z     vdW  Elec       q    Type
REMARK                         _______ _______ _______ _____ _____    ______ ____
ROOT
ATOM      1  N   UNL     1      -2.447   3.842   0.056  0.00  0.00    -0.207 N 
ATOM      2  C   UNL     1      -3.699   3.109  -0.175  0.00  0.00    +0.131 C 
ATOM      3  C   UNL     1      -3.617   1.786   0.598  0.00  0.00    +0.025 C 
ATOM      4  C   UNL     1      -2.473   0.950   0.026  0.00  0.00    +0.039 C 
ATOM      5  C   UNL     1      -1.205   1.761  -0.037  0.00  0.00    -0.023 A 
ATOM      6  C   UNL     1      -1.231   3.147  -0.021  0.00  0.00    +0.054 A 
ATOM      7  C   UNL     1      -0.044   3.868  -0.085  0.00  0.00    +0.027 A 
ATOM      8  C   UNL     1       1.166   3.206  -0.156  0.00  0.00    +0.024 A 
ATOM      9  C   UNL     1       1.194   1.818  -0.164  0.00  0.00    +0.025 A 
ATOM     10  C   UNL     1       0.009   1.099  -0.102  0.00  0.00    +0.028 A 
ENDROOT
BRANCH   1  11
ATOM     11  S   UNL     1      -2.471   5.461   0.400  0.00  0.00    +0.051 S 
ATOM     12  O   UNL     1      -3.803   5.723   0.821  0.00  0.00    -0.155 OA
ATOM     13  O   UNL     1      -1.379   5.659   1.287  0.00  0.00    -0.155 OA
BRANCH  11  14
ATOM     14  C   UNL     1      -2.144   6.280  -1.185  0.00  0.00    +0.247 C 
BRANCH  14  18
ATOM     15  C   UNL     1      -0.796  11.105  -0.286  0.00  0.00    +0.089 C 
ATOM     16  C   UNL     1      -1.546   9.836  -0.599  0.00  0.00    +0.135 A 
ATOM     17  C   UNL     1      -1.031   8.585  -0.664  0.00  0.00    +0.072 A 
ATOM     18  C   UNL     1      -2.143   7.774  -0.988  0.00  0.00    +0.107 A 
ATOM     19  N   UNL     1      -3.164   8.575  -1.088  0.00  0.00    -0.081 NA
ATOM     20  O   UNL     1      -2.853   9.723  -0.870  0.00  0.00    -0.360 OA
ENDBRANCH  14  18
ENDBRANCH  11  14
ENDBRANCH   1  11
BRANCH   9  21
ATOM     21  N   UNL     1       2.419   1.144  -0.234  0.00  0.00    -0.358 N 
ATOM     22  H   UNL     1       2.442   0.044  -0.240  0.00  0.00    +0.142 HD
ATOM     23  H   UNL     1       3.359   1.714  -0.284  0.00  0.00    +0.142 HD
ENDBRANCH   9  21
TORSDOF 4
