REMARK  Name = ZINC63573018
REMARK  7 active torsions:
REMARK  status: ('A' for Active; 'I' for Inactive)
REMARK    1  A    between atoms: C_1  and  C_2
REMARK    2  A    between atoms: C_7  and  N_8
REMARK    3  A    between atoms: C_17  and  O_34
REMARK    4  A    between atoms: C_24  and  C_26
REMARK    5  A    between atoms: C_29  and  O_32
REMARK    6  A    between atoms: O_32  and  C_33
REMARK    7  A    between atoms: O_34  and  C_35
REMARK                            x       y       z     vdW  Elec       q    Type
REMARK                         _______ _______ _______ _____ _____    ______ ____
ROOT
ATOM      1  N   UNL     1       0.139   0.307   2.507  0.00  0.00    -0.269 N 
ATOM      2  C   UNL     1      -0.003  -0.472   3.598  0.00  0.00    +0.307 C 
ATOM      3  O   UNL     1      -0.053  -1.681   3.479  0.00  0.00    -0.252 OA
ATOM      4  N   UNL     1      -0.090   0.090   4.820  0.00  0.00    -0.276 N 
ATOM      5  C   UNL     1      -0.146   1.550   4.945  0.00  0.00    +0.114 C 
ATOM      6  C   UNL     1       1.017   2.034   5.829  0.00  0.00    +0.052 C 
ATOM      7  C   UNL     1       1.059   1.119   7.028  0.00  0.00    -0.035 C 
ATOM      8  C   UNL     1       1.072   1.378   8.329  0.00  0.00    +0.003 A 
ATOM      9  C   UNL     1       1.160   2.640   9.080  0.00  0.00    +0.055 A 
ATOM     10  C   UNL     1       1.127   2.547  10.438  0.00  0.00    +0.121 A 
ATOM     11  C   UNL     1       1.015   1.337  11.138  0.00  0.00    +0.047 A 
ATOM     12  C   UNL     1       0.936   0.117  10.548  0.00  0.00    +0.029 A 
ATOM     13  C   UNL     1       0.970   0.087   9.079  0.00  0.00    +0.043 A 
ATOM     14  N   UNL     1       0.935  -0.916   8.256  0.00  0.00    -0.375 N 
ATOM     15  C   UNL     1       1.072  -0.399   6.893  0.00  0.00    +0.131 C 
ATOM     16  C   UNL     1      -0.133  -0.769   6.014  0.00  0.00    +0.134 C 
ATOM     17  H   UNL     1       0.242   1.266   2.606  0.00  0.00    +0.156 HD
ATOM     18  H   UNL     1       0.835  -1.849   8.502  0.00  0.00    +0.160 HD
ENDROOT
BRANCH   1  25
ATOM     19  C   UNL     1      -0.790   1.877   0.324  0.00  0.00    +0.045 C 
ATOM     20  C   UNL     1      -0.306   0.462   0.138  0.00  0.00    -0.029 A 
ATOM     21  C   UNL     1      -0.300  -0.106  -1.121  0.00  0.00    +0.006 A 
ATOM     22  C   UNL     1       0.143  -1.404  -1.293  0.00  0.00    +0.020 A 
ATOM     23  C   UNL     1       0.582  -2.139  -0.205  0.00  0.00    +0.043 A 
ATOM     24  C   UNL     1       0.579  -1.575   1.057  0.00  0.00    +0.043 A 
ATOM     25  C   UNL     1       0.139  -0.269   1.231  0.00  0.00    +0.039 A 
ATOM     26 CL   UNL     1       1.137  -3.769  -0.425  0.00  0.00    -0.083 Cl
ENDBRANCH   1  25
BRANCH  16  27
ATOM     27  C   UNL     1      -1.414  -0.527   6.770  0.00  0.00    -0.024 A 
ATOM     28  C   UNL     1      -2.287  -1.575   7.001  0.00  0.00    +0.009 A 
ATOM     29  C   UNL     1      -3.462  -1.356   7.693  0.00  0.00    +0.046 A 
ATOM     30  C   UNL     1      -3.767  -0.084   8.157  0.00  0.00    +0.120 A 
ATOM     31  C   UNL     1      -2.889   0.965   7.925  0.00  0.00    +0.046 A 
ATOM     32  C   UNL     1      -1.712   0.740   7.236  0.00  0.00    +0.009 A 
BRANCH  30  33
ATOM     33  O   UNL     1      -4.922   0.133   8.838  0.00  0.00    -0.495 OA
ATOM     34  C   UNL     1      -5.170   1.468   9.286  0.00  0.00    +0.277 C 
ENDBRANCH  30  33
ENDBRANCH  16  27
BRANCH  10  35
ATOM     35  O   UNL     1       1.208   3.697  11.158  0.00  0.00    -0.495 OA
ATOM     36  C   UNL     1       1.171   3.574  12.582  0.00  0.00    +0.277 C 
ENDBRANCH  10  35
TORSDOF 4
