REMARK  Name = ZINC36027174
REMARK  6 active torsions:
REMARK  status: ('A' for Active; 'I' for Inactive)
REMARK    1  A    between atoms: C_1  and  C_2
REMARK    2  A    between atoms: N_6  and  C_24
REMARK    3  A    between atoms: N_11  and  S_14
REMARK    4  A    between atoms: S_14  and  C_17
REMARK    5  A    between atoms: C_24  and  C_26
REMARK    6  A    between atoms: C_24  and  C_27
REMARK                            x       y       z     vdW  Elec       q    Type
REMARK                         _______ _______ _______ _____ _____    ______ ____
ROOT
ATOM      1  C   UNL     1      -2.400  -0.278   6.476  0.00  0.00    -0.004 C 
ATOM      2  C   UNL     1      -1.360  -0.304   5.354  0.00  0.00    +0.016 C 
ATOM      3  C   UNL     1      -2.030  -0.115   4.010  0.00  0.00    +0.201 C 
ATOM      4  O   UNL     1      -2.417   0.940   3.553  0.00  0.00    -0.277 OA
ATOM      5  N   UNL     1      -2.123  -1.318   3.406  0.00  0.00    -0.307 N 
ATOM      6  C   UNL     1      -1.549  -2.348   4.276  0.00  0.00    +0.006 C 
ATOM      7  N   UNL     1      -0.719  -1.638   5.276  0.00  0.00    +0.401 N 
ATOM      8  C   UNL     1      -0.675  -3.301   3.462  0.00  0.00    +0.023 C 
ATOM      9  C   UNL     1      -1.535  -4.002   2.405  0.00  0.00    +0.109 C 
ATOM     10  N   UNL     1      -2.678  -4.639   3.073  0.00  0.00    -0.177 NA
ATOM     11  C   UNL     1      -3.538  -3.820   3.939  0.00  0.00    +0.109 C 
ATOM     12  C   UNL     1      -2.661  -3.121   4.983  0.00  0.00    +0.023 C 
ATOM     13  H   UNL     1       0.234  -1.557   4.955  0.00  0.00    -0.082 HD
ATOM     14  H   UNL     1      -0.757  -2.105   6.169  0.00  0.00    -0.082 HD
ENDROOT
BRANCH  10  15
ATOM     15  S   UNL     1      -2.993  -6.250   2.853  0.00  0.00    +0.061 S 
ATOM     16  O   UNL     1      -4.376  -6.434   3.123  0.00  0.00    -0.153 OA
ATOM     17  O   UNL     1      -2.404  -6.613   1.612  0.00  0.00    -0.153 OA
BRANCH  15  18
ATOM     18  C   UNL     1      -2.115  -7.128   4.103  0.00  0.00    +0.106 A 
ATOM     19  C   UNL     1      -0.820  -7.553   3.869  0.00  0.00    +0.031 A 
ATOM     20  C   UNL     1      -0.130  -8.241   4.849  0.00  0.00    +0.040 A 
ATOM     21  C   UNL     1      -0.736  -8.505   6.066  0.00  0.00    +0.124 A 
ATOM     22  C   UNL     1      -2.032  -8.078   6.299  0.00  0.00    +0.040 A 
ATOM     23  C   UNL     1      -2.718  -7.386   5.320  0.00  0.00    +0.031 A 
ATOM     24  F   UNL     1      -0.062  -9.178   7.024  0.00  0.00    -0.205 F 
ENDBRANCH  15  18
ENDBRANCH  10  15
BRANCH   5  25
ATOM     25  C   UNL     1      -2.707  -1.557   2.083  0.00  0.00    +0.101 C 
ATOM     26  C   UNL     1      -1.654  -1.290   1.005  0.00  0.00    +0.033 C 
BRANCH  25  27
ATOM     27  C   UNL     1      -3.881  -0.634   1.879  0.00  0.00    -0.027 A 
ATOM     28  C   UNL     1      -4.093  -0.050   0.644  0.00  0.00    +0.005 A 
ATOM     29  C   UNL     1      -5.170   0.796   0.456  0.00  0.00    +0.000 A 
ATOM     30  C   UNL     1      -6.034   1.058   1.502  0.00  0.00    +0.000 A 
ATOM     31  C   UNL     1      -5.822   0.473   2.737  0.00  0.00    +0.000 A 
ATOM     32  C   UNL     1      -4.748  -0.376   2.924  0.00  0.00    +0.005 A 
ENDBRANCH  25  27
ENDBRANCH   5  25
TORSDOF 4
