REMARK  Name = ZINC31044908
REMARK  6 active torsions:
REMARK  status: ('A' for Active; 'I' for Inactive)
REMARK    1  A    between atoms: C_1  and  C_2
REMARK    2  A    between atoms: C_5  and  N_9
REMARK    3  A    between atoms: C_10  and  C_12
REMARK    4  A    between atoms: N_17  and  C_19
REMARK    5  A    between atoms: C_19  and  C_20
REMARK    6  A    between atoms: C_22  and  C_25
REMARK                            x       y       z     vdW  Elec       q    Type
REMARK                         _______ _______ _______ _____ _____    ______ ____
ROOT
ATOM      1  C   UNL     1      -2.904  -2.639  -2.873  0.00  0.00    +0.059 C 
ATOM      2  C   UNL     1      -3.418  -1.403  -3.616  0.00  0.00    +0.009 C 
ATOM      3  C   UNL     1      -2.375  -0.286  -3.516  0.00  0.00    -0.018 C 
ATOM      4  C   UNL     1      -2.099   0.017  -2.042  0.00  0.00    -0.078 C 
ATOM      5  N   UNL     1      -1.609  -1.196  -1.375  0.00  0.00    +0.386 N 
ATOM      6  C   UNL     1      -2.613  -2.267  -1.417  0.00  0.00    -0.065 C 
ATOM      7  H   UNL     1      -0.723  -1.546  -1.924  0.00  0.00    -0.081 HD
ENDROOT
BRANCH   1   9
ATOM      8  N   UNL     1      -4.366  -4.211  -4.101  0.00  0.00    -0.285 N 
ATOM      9  C   UNL     1      -3.950  -3.723  -2.916  0.00  0.00    +0.219 C 
ATOM     10  O   UNL     1      -4.417  -4.157  -1.884  0.00  0.00    -0.275 OA
ATOM     11  H   UNL     1      -4.000  -3.766  -5.038  0.00  0.00    +0.155 HD
BRANCH   8  16
ATOM     12  C   UNL     1      -8.012  -8.556  -4.256  0.00  0.00    +0.045 C 
ATOM     13  C   UNL     1      -7.043  -7.402  -4.215  0.00  0.00    -0.032 A 
ATOM     14  C   UNL     1      -7.141  -6.455  -3.213  0.00  0.00    +0.006 A 
ATOM     15  C   UNL     1      -6.255  -5.396  -3.172  0.00  0.00    +0.023 A 
ATOM     16  C   UNL     1      -5.265  -5.283  -4.140  0.00  0.00    +0.035 A 
ATOM     17  C   UNL     1      -5.172  -6.232  -5.148  0.00  0.00    +0.043 A 
ATOM     18  C   UNL     1      -6.058  -7.293  -5.181  0.00  0.00    +0.046 A 
ATOM     19 CL   UNL     1      -5.940  -8.484  -6.438  0.00  0.00    -0.083 Cl
ENDBRANCH   8  16
ENDBRANCH   1   9
BRANCH   5  20
ATOM     20  C   UNL     1      -1.203  -0.909   0.007  0.00  0.00    +0.022 C 
BRANCH  20  21
ATOM     21  C   UNL     1      -0.008   0.009  -0.001  0.00  0.00    +0.211 A 
ATOM     22  N   UNL     1      -0.034   1.319   0.010  0.00  0.00    -0.193 NA
ATOM     23  C   UNL     1       1.261   1.708  -0.003  0.00  0.00    +0.202 A 
ATOM     24  N   UNL     1       1.990   0.622  -0.022  0.00  0.00    -0.056 NA
ATOM     25  O   UNL     1       1.276  -0.359  -0.021  0.00  0.00    -0.340 OA
BRANCH  23  26
ATOM     26  C   UNL     1       1.762   3.105   0.001  0.00  0.00    +0.023 A 
ATOM     27  C   UNL     1       0.863   4.169   0.015  0.00  0.00    +0.013 A 
ATOM     28  C   UNL     1       1.333   5.466   0.024  0.00  0.00    +0.021 A 
ATOM     29  C   UNL     1       2.696   5.711   0.009  0.00  0.00    +0.041 A 
ATOM     30  C   UNL     1       3.593   4.657  -0.011  0.00  0.00    +0.021 A 
ATOM     31  C   UNL     1       3.132   3.356  -0.015  0.00  0.00    +0.013 A 
ATOM     32 CL   UNL     1       3.282   7.345   0.014  0.00  0.00    -0.084 Cl
ENDBRANCH  23  26
ENDBRANCH  20  21
ENDBRANCH   5  20
TORSDOF 5
