REMARK  Name = ZINC13046734
REMARK  11 active torsions:
REMARK  status: ('A' for Active; 'I' for Inactive)
REMARK    1  A    between atoms: C_1  and  C_2
REMARK    2  A    between atoms: C_5  and  C_31
REMARK    3  A    between atoms: C_6  and  N_8
REMARK    4  A    between atoms: C_9  and  C_11
REMARK    5  A    between atoms: C_11  and  C_13
REMARK    6  A    between atoms: C_11  and  S_14
REMARK    7  A    between atoms: S_14  and  C_15
REMARK    8  A    between atoms: C_19  and  C_29
REMARK    9  A    between atoms: N_25  and  C_26
REMARK   10  A    between atoms: C_26  and  C_27
REMARK   11  A    between atoms: C_27  and  O_28
REMARK                            x       y       z     vdW  Elec       q    Type
REMARK                         _______ _______ _______ _____ _____    ______ ____
ROOT
ATOM      1  C   UNL     1      -1.200   3.407   0.061  0.00  0.00    +0.173 A 
ATOM      2  N   UNL     1      -1.176   2.097   0.064  0.00  0.00    -0.223 NA
ATOM      3  C   UNL     1      -0.009   1.410   0.054  0.00  0.00    +0.080 A 
ATOM      4  C   UNL     1       0.014   0.012   0.051  0.00  0.00    +0.043 A 
ATOM      5  C   UNL     1       1.235  -0.650   0.047  0.00  0.00    +0.065 A 
ATOM      6  C   UNL     1       2.435   0.072   0.044  0.00  0.00    +0.016 A 
ATOM      7  C   UNL     1       2.425   1.438   0.047  0.00  0.00    +0.016 A 
ATOM      8  C   UNL     1       1.210   2.123   0.051  0.00  0.00    +0.065 A 
ATOM      9  C   UNL     1       1.153   3.594   0.054  0.00  0.00    +0.262 A 
ATOM     10  O   UNL     1       2.169   4.264   0.052  0.00  0.00    -0.267 OA
ATOM     11  N   UNL     1      -0.069   4.173   0.058  0.00  0.00    -0.285 N 
ENDROOT
BRANCH   5  12
ATOM     12  C   UNL     1       1.268  -2.129   0.043  0.00  0.00    +0.387 C 
ATOM     13  O   UNL     1       0.230  -2.760   0.045  0.00  0.00    -0.241 OA
ATOM     14  O   UNL     1       2.449  -2.776   0.039  0.00  0.00    -0.241 OA
ENDBRANCH   5  12
BRANCH   1  15
ATOM     15  S   UNL     1      -2.764   4.218   0.068  0.00  0.00    -0.075 S 
BRANCH  15  16
ATOM     16  C   UNL     1      -3.864   2.781   0.070  0.00  0.00    +0.137 C 
ATOM     17  C   UNL     1      -3.694   2.008  -1.240  0.00  0.00    +0.029 C 
BRANCH  16  19
ATOM     18  N   UNL     1      -6.223   2.415   0.718  0.00  0.00    -0.284 N 
ATOM     19  C   UNL     1      -5.293   3.241   0.200  0.00  0.00    +0.230 C 
ATOM     20  O   UNL     1      -5.606   4.356  -0.162  0.00  0.00    -0.274 OA
ATOM     21  H   UNL     1      -5.991   1.498   0.932  0.00  0.00    +0.155 HD
BRANCH  18  27
ATOM     22  C   UNL     1      -9.287   6.161   1.583  0.00  0.00    +0.044 C 
ATOM     23  C   UNL     1      -9.037   4.691   1.368  0.00  0.00    -0.049 A 
ATOM     24  C   UNL     1     -10.093   3.799   1.397  0.00  0.00    +0.004 A 
ATOM     25  C   UNL     1      -9.868   2.449   1.200  0.00  0.00    +0.005 A 
ATOM     26  C   UNL     1      -8.587   1.988   0.969  0.00  0.00    -0.029 A 
ATOM     27  C   UNL     1      -7.523   2.880   0.946  0.00  0.00    +0.037 A 
ATOM     28  C   UNL     1      -7.753   4.235   1.143  0.00  0.00    +0.027 A 
ATOM     29  C   UNL     1      -8.343   0.517   0.748  0.00  0.00    +0.045 C 
ENDBRANCH  18  27
ENDBRANCH  16  19
ENDBRANCH  15  16
ENDBRANCH   1  15
BRANCH  11  30
ATOM     30  C   UNL     1      -0.181   5.634   0.061  0.00  0.00    +0.155 C 
BRANCH  30  31
ATOM     31  C   UNL     1      -0.225   6.144  -1.381  0.00  0.00    +0.177 C 
BRANCH  31  32
ATOM     32  O   UNL     1      -1.415   5.675  -2.017  0.00  0.00    -0.393 OA
ATOM     33  H   UNL     1      -1.509   5.962  -2.935  0.00  0.00    +0.209 HD
ENDBRANCH  31  32
ENDBRANCH  30  31
ENDBRANCH  11  30
TORSDOF 8
