REMARK  Name = ZINC64678406
REMARK  7 active torsions:
REMARK  status: ('A' for Active; 'I' for Inactive)
REMARK    1  A    between atoms: C_1  and  C_2
REMARK    2  A    between atoms: C_7  and  C_12
REMARK    3  A    between atoms: C_15  and  C_18
REMARK    4  A    between atoms: C_18  and  C_19
REMARK    5  A    between atoms: C_19  and  N_20
REMARK    6  A    between atoms: N_20  and  C_21
REMARK    7  A    between atoms: C_22  and  C_24
REMARK                            x       y       z     vdW  Elec       q    Type
REMARK                         _______ _______ _______ _____ _____    ______ ____
ROOT
ATOM      1  C   UNL     1      -0.991  -5.196   1.920  0.00  0.00    +0.318 C 
ATOM      2  N   UNL     1      -1.037  -6.499   1.238  0.00  0.00    -0.291 N 
ATOM      3  C   UNL     1      -1.029  -7.463   2.219  0.00  0.00    +0.139 C 
ATOM      4  N   UNL     1      -0.986  -6.941   3.391  0.00  0.00    -0.072 NA
ATOM      5  O   UNL     1      -0.960  -5.525   3.318  0.00  0.00    -0.367 OA
ATOM      6  H   UNL     1      -1.067  -6.649   0.280  0.00  0.00    +0.151 HD
ENDROOT
BRANCH   1  13
ATOM      7  C   UNL     1       0.361   1.496   0.122  0.00  0.00    +0.044 C 
ATOM      8  C   UNL     1       0.332  -0.010   0.099  0.00  0.00    -0.050 A 
ATOM      9  C   UNL     1       0.297  -0.673  -1.135  0.00  0.00    +0.005 A 
ATOM     10  C   UNL     1       0.270  -2.019  -1.240  0.00  0.00    +0.026 A 
ATOM     11  C   UNL     1       0.275  -2.831  -0.072  0.00  0.00    +0.043 A 
ATOM     12  N   UNL     1       0.252  -4.132   0.086  0.00  0.00    -0.373 N 
ATOM     13  C   UNL     1       0.271  -4.428   1.523  0.00  0.00    +0.165 C 
ATOM     14  C   UNL     1       0.310  -3.088   2.223  0.00  0.00    +0.012 C 
ATOM     15  C   UNL     1       0.311  -2.154   1.244  0.00  0.00    -0.004 A 
ATOM     16  C   UNL     1       0.346  -0.687   1.270  0.00  0.00    +0.013 A 
ATOM     17  H   UNL     1       0.226  -4.789  -0.627  0.00  0.00    +0.160 HD
ENDBRANCH   1  13
BRANCH   3  18
ATOM     18  C   UNL     1      -1.068  -8.945   1.952  0.00  0.00    +0.094 C 
BRANCH  18  19
ATOM     19  C   UNL     1      -1.046  -9.704   3.281  0.00  0.00    +0.115 C 
BRANCH  19  20
ATOM     20  N   UNL     1      -1.083 -11.145   3.021  0.00  0.00    -0.300 N 
ATOM     21  C   UNL     1       0.166 -11.892   2.855  0.00  0.00    +0.132 C 
ATOM     22  C   UNL     1      -2.267 -11.784   2.934  0.00  0.00    +0.246 C 
ATOM     23  O   UNL     1      -3.303 -11.149   2.966  0.00  0.00    -0.270 OA
BRANCH  22  24
ATOM     24  C   UNL     1      -2.304 -13.255   2.802  0.00  0.00    +0.037 A 
ATOM     25  C   UNL     1      -1.353 -14.042   3.453  0.00  0.00    +0.014 A 
ATOM     26  C   UNL     1      -1.393 -15.415   3.325  0.00  0.00    +0.016 A 
ATOM     27  C   UNL     1      -2.375 -16.013   2.553  0.00  0.00    +0.018 A 
ATOM     28  C   UNL     1      -3.321 -15.237   1.905  0.00  0.00    +0.016 A 
ATOM     29  C   UNL     1      -3.295 -13.864   2.029  0.00  0.00    +0.014 A 
ATOM     30 BR   UNL     1      -2.423 -17.895   2.383  0.00  0.00    -0.050 Br
ENDBRANCH  22  24
ENDBRANCH  19  20
ENDBRANCH  18  19
ENDBRANCH   3  18
TORSDOF 5
