REMARK  Name = ZINC21314355
REMARK  10 active torsions:
REMARK  status: ('A' for Active; 'I' for Inactive)
REMARK    1  A    between atoms: C_1  and  C_2
REMARK    2  A    between atoms: C_5  and  C_8
REMARK    3  A    between atoms: C_8  and  N_9
REMARK    4  A    between atoms: N_17  and  C_20
REMARK    5  A    between atoms: C_20  and  N_22
REMARK    6  A    between atoms: N_22  and  C_23
REMARK    7  A    between atoms: C_25  and  C_30
REMARK    8  A    between atoms: C_27  and  C_29
REMARK    9  A    between atoms: N_31  and  C_38
REMARK   10  A    between atoms: N_34  and  C_37
REMARK                            x       y       z     vdW  Elec       q    Type
REMARK                         _______ _______ _______ _____ _____    ______ ____
ROOT
ATOM      1  N   UNL     1       1.689   4.494   0.407  0.00  0.00    -0.302 N 
ATOM      2  C   UNL     1       0.759   3.706   1.072  0.00  0.00    +0.153 A 
ATOM      3  C   UNL     1      -0.261   4.561   1.477  0.00  0.00    +0.170 A 
ATOM      4  N   UNL     1       0.059   5.790   1.067  0.00  0.00    -0.196 NA
ATOM      5  C   UNL     1       1.212   5.766   0.431  0.00  0.00    +0.201 A 
ATOM      6  N   UNL     1       1.837   6.860  -0.123  0.00  0.00    -0.298 N 
ATOM      7  C   UNL     1       2.324   7.773   0.919  0.00  0.00    +0.127 C 
ATOM      8  C   UNL     1       3.166   8.878   0.274  0.00  0.00    +0.126 C 
ATOM      9  N   UNL     1       2.369   9.514  -0.787  0.00  0.00    -0.309 N 
ATOM     10  C   UNL     1       1.734   8.649  -1.793  0.00  0.00    +0.126 C 
ATOM     11  C   UNL     1       0.948   7.553  -1.066  0.00  0.00    +0.127 C 
ATOM     12  N   UNL     1      -1.336   4.035   2.174  0.00  0.00    -0.280 N 
ATOM     13  C   UNL     1      -1.385   2.716   2.443  0.00  0.00    +0.333 A 
ATOM     14  O   UNL     1      -2.339   2.270   3.051  0.00  0.00    -0.246 OA
ATOM     15  N   UNL     1      -0.402   1.882   2.062  0.00  0.00    -0.262 N 
ATOM     16  C   UNL     1       0.669   2.337   1.380  0.00  0.00    +0.282 A 
ATOM     17  O   UNL     1       1.551   1.569   1.035  0.00  0.00    -0.265 OA
ATOM     18  C   UNL     1      -0.500   0.457   2.385  0.00  0.00    +0.157 C 
ATOM     19  C   UNL     1      -2.424   4.912   2.613  0.00  0.00    +0.155 C 
ENDROOT
BRANCH   9  20
ATOM     20  C   UNL     1       2.225  10.853  -0.836  0.00  0.00    +0.137 C 
ATOM     21  S   UNL     1       1.163  11.558  -1.978  0.00  0.00    -0.018 S 
BRANCH  20  22
ATOM     22  N   UNL     1       2.917  11.636   0.015  0.00  0.00    -0.297 N 
ATOM     23  H   UNL     1       3.549  11.181   0.792  0.00  0.00    +0.154 HD
BRANCH  22  24
ATOM     24  C   UNL     1       2.830  13.029  -0.089  0.00  0.00    +0.033 A 
ATOM     25  C   UNL     1       3.977  13.806   0.008  0.00  0.00    +0.026 A 
ATOM     26  C   UNL     1       3.889  15.180  -0.100  0.00  0.00    -0.048 A 
ATOM     27  C   UNL     1       2.660  15.783  -0.295  0.00  0.00    +0.006 A 
ATOM     28  C   UNL     1       1.516  15.012  -0.387  0.00  0.00    -0.048 A 
ATOM     29  C   UNL     1       1.597  13.637  -0.285  0.00  0.00    +0.026 A 
ATOM     30  C   UNL     1       0.178  15.673  -0.600  0.00  0.00    +0.044 C 
ATOM     31  C   UNL     1       5.134  16.024   0.000  0.00  0.00    +0.044 C 
ENDBRANCH  22  24
ENDBRANCH  20  22
ENDBRANCH   9  20
BRANCH   1  32
ATOM     32  C   UNL     1       2.941   4.040  -0.203  0.00  0.00    +0.160 C 
BRANCH  32  37
ATOM     33  C   UNL     1       2.052   2.888  -5.796  0.00  0.00    +0.044 C 
ATOM     34  C   UNL     1       2.285   3.189  -4.338  0.00  0.00    -0.050 A 
ATOM     35  C   UNL     1       2.666   4.458  -3.946  0.00  0.00    +0.004 A 
ATOM     36  C   UNL     1       2.878   4.734  -2.608  0.00  0.00    +0.005 A 
ATOM     37  C   UNL     1       2.710   3.740  -1.662  0.00  0.00    -0.028 A 
ATOM     38  C   UNL     1       2.334   2.469  -2.055  0.00  0.00    +0.005 A 
ATOM     39  C   UNL     1       2.118   2.194  -3.392  0.00  0.00    +0.004 A 
ENDBRANCH  32  37
ENDBRANCH   1  32
TORSDOF 5
