REMARK  Name = ZINC48755739
REMARK  3 active torsions:
REMARK  status: ('A' for Active; 'I' for Inactive)
REMARK    1  A    between atoms: C_1  and  C_2
REMARK    2  A    between atoms: C_9  and  C_11
REMARK    3  A    between atoms: N_13  and  C_14
REMARK                            x       y       z     vdW  Elec       q    Type
REMARK                         _______ _______ _______ _____ _____    ______ ____
ROOT
ATOM      1  C   UNL     1       2.462  -0.187   2.931  0.00  0.00    +0.303 C 
ATOM      2  O   UNL     1       2.604  -1.385   3.063  0.00  0.00    -0.265 OA
ATOM      3  N   UNL     1       3.106   0.663   3.755  0.00  0.00    -0.276 N 
ATOM      4  H   UNL     1       3.048   1.620   3.607  0.00  0.00    +0.155 HD
ENDROOT
BRANCH   1  12
ATOM      5  C   UNL     1       0.066   1.512  -0.064  0.00  0.00    +0.030 C 
ATOM      6  C   UNL     1       0.065  -0.018  -0.047  0.00  0.00    +0.099 C 
ATOM      7  C   UNL     1      -1.373  -0.532   0.080  0.00  0.00    +0.182 C 
ATOM      8  O   UNL     1      -1.351  -1.947   0.282  0.00  0.00    -0.376 OA
ATOM      9  C   UNL     1      -0.700  -2.356   1.487  0.00  0.00    +0.179 C 
ATOM     10  C   UNL     1       0.773  -1.936   1.432  0.00  0.00    +0.136 C 
ATOM     11  N   UNL     1       0.835  -0.501   1.110  0.00  0.00    -0.287 N 
ATOM     12  C   UNL     1       1.574   0.346   1.854  0.00  0.00    +0.302 C 
ATOM     13  O   UNL     1       1.519   1.541   1.649  0.00  0.00    -0.265 OA
ENDBRANCH   1  12
BRANCH   3  14
ATOM     14  C   UNL     1       3.857   0.166   4.824  0.00  0.00    +0.052 A 
ATOM     15  C   UNL     1       4.528  -1.044   4.699  0.00  0.00    +0.026 A 
ATOM     16  C   UNL     1       5.270  -1.533   5.757  0.00  0.00    +0.016 A 
ATOM     17  C   UNL     1       5.346  -0.819   6.939  0.00  0.00    +0.015 A 
ATOM     18  C   UNL     1       4.679   0.387   7.067  0.00  0.00    +0.036 A 
ATOM     19  C   UNL     1       3.940   0.884   6.011  0.00  0.00    +0.063 A 
ATOM     20 CL   UNL     1       3.110   2.401   6.169  0.00  0.00    -0.082 Cl
ATOM     21  I   UNL     1       6.472  -1.565   8.541  0.00  0.00    -0.044 I 
ENDBRANCH   3  14
TORSDOF 2
