REMARK  Name = ZINC00830262
REMARK  4 active torsions:
REMARK  status: ('A' for Active; 'I' for Inactive)
REMARK    1  A    between atoms: C_6  and  N_7
REMARK    2  A    between atoms: C_8  and  C_10
REMARK    3  A    between atoms: C_14  and  C_23
REMARK    4  A    between atoms: C_16  and  C_19
REMARK                            x       y       z     vdW  Elec       q    Type
REMARK                         _______ _______ _______ _____ _____    ______ ____
ROOT
ATOM      1  C   UNL     1       0.002  -0.004   0.009  0.00  0.00    +0.164 A 
ATOM      2  C   UNL     1       1.335  -0.432  -0.007  0.00  0.00    +0.094 A 
ATOM      3  C   UNL     1       2.138   0.699   0.001  0.00  0.00    +0.171 A 
ATOM      4  N   UNL     1       3.468   0.858  -0.008  0.00  0.00    -0.226 NA
ATOM      5  C   UNL     1       4.004   2.067   0.004  0.00  0.00    +0.082 A 
ATOM      6  C   UNL     1       3.170   3.212   0.025  0.00  0.00    +0.061 A 
ATOM      7  C   UNL     1       1.829   3.054   0.034  0.00  0.00    +0.149 A 
ATOM      8  N   UNL     1       1.303   1.789   0.021  0.00  0.00    -0.208 N 
ATOM      9  N   UNL     1      -0.016   1.320   0.026  0.00  0.00    -0.159 NA
ATOM     10 BR   UNL     1       1.931  -2.227  -0.035  0.00  0.00    -0.044 Br
ENDROOT
BRANCH   5  11
ATOM     11  C   UNL     1       5.469   2.224  -0.006  0.00  0.00    +0.039 A 
ATOM     12  C   UNL     1       6.442   1.256  -0.026  0.00  0.00    +0.033 A 
ATOM     13  C   UNL     1       7.761   1.646  -0.031  0.00  0.00    +0.026 A 
ATOM     14  C   UNL     1       8.061   2.973  -0.017  0.00  0.00    +0.061 A 
ATOM     15  S   UNL     1       6.441   3.722  -0.002  0.00  0.00    -0.094 S 
ATOM     16 BR   UNL     1       9.141   0.353  -0.060  0.00  0.00    -0.050 Br
ENDBRANCH   5  11
BRANCH   1  18
ATOM     17  N   UNL     1      -2.422  -0.344   0.023  0.00  0.00    -0.280 N 
ATOM     18  C   UNL     1      -1.186  -0.882   0.006  0.00  0.00    +0.270 C 
ATOM     19  O   UNL     1      -1.049  -2.090  -0.011  0.00  0.00    -0.268 OA
ATOM     20  H   UNL     1      -2.532   0.616   0.104  0.00  0.00    +0.155 HD
BRANCH  17  26
ATOM     21  C   UNL     1      -4.675  -0.731  -0.755  0.00  0.00    +0.027 A 
ATOM     22  C   UNL     1      -5.785  -1.549  -0.859  0.00  0.00    +0.051 A 
ATOM     23  C   UNL     1      -5.778  -2.806  -0.278  0.00  0.00    +0.166 A 
ATOM     24  C   UNL     1      -4.650  -3.249   0.408  0.00  0.00    +0.168 A 
ATOM     25  C   UNL     1      -3.537  -2.432   0.508  0.00  0.00    +0.072 A 
ATOM     26  C   UNL     1      -3.547  -1.172  -0.077  0.00  0.00    +0.037 A 
ATOM     27  O   UNL     1      -4.893  -4.506   0.883  0.00  0.00    -0.453 OA
ATOM     28  C   UNL     1      -6.323  -4.666   0.833  0.00  0.00    +0.466 C 
ATOM     29  O   UNL     1      -6.729  -3.786  -0.233  0.00  0.00    -0.453 OA
ENDBRANCH  17  26
ENDBRANCH   1  18
BRANCH   7  30
ATOM     30  C   UNL     1       0.920   4.256   0.056  0.00  0.00    +0.434 C 
ATOM     31  F   UNL     1       0.649   4.611   1.382  0.00  0.00    -0.164 F 
ATOM     32  F   UNL     1       1.546   5.325  -0.595  0.00  0.00    -0.164 F 
ATOM     33  F   UNL     1      -0.277   3.947  -0.599  0.00  0.00    -0.164 F 
ENDBRANCH   7  30
TORSDOF 4
