REMARK  Name = ZINC50479252
REMARK  5 active torsions:
REMARK  status: ('A' for Active; 'I' for Inactive)
REMARK    1  A    between atoms: C_1  and  C_2
REMARK    2  A    between atoms: C_5  and  C_8
REMARK    3  A    between atoms: C_19  and  C_21
REMARK    4  A    between atoms: C_24  and  O_27
REMARK    5  A    between atoms: O_27  and  C_28
REMARK                            x       y       z     vdW  Elec       q    Type
REMARK                         _______ _______ _______ _____ _____    ______ ____
ROOT
ATOM      1  C   UNL     1       0.074  -3.954  -0.280  0.00  0.00    +0.154 C 
ATOM      2  C   UNL     1       1.313  -4.614   0.353  0.00  0.00    +0.113 C 
ATOM      3  C   UNL     1       1.059  -5.372   1.646  0.00  0.00    +0.065 C 
ATOM      4  C   UNL     1       2.237  -5.730   2.443  0.00  0.00    +0.040 A 
ATOM      5  C   UNL     1       2.177  -6.702   3.440  0.00  0.00    +0.033 A 
ATOM      6  C   UNL     1       3.308  -6.999   4.173  0.00  0.00    +0.042 A 
ATOM      7  C   UNL     1       4.497  -6.334   3.917  0.00  0.00    +0.023 A 
ATOM      8  C   UNL     1       4.569  -5.372   2.929  0.00  0.00    +0.048 A 
ATOM      9  C   UNL     1       3.445  -5.059   2.178  0.00  0.00    +0.130 A 
ATOM     10  O   UNL     1       3.520  -4.127   1.198  0.00  0.00    -0.483 OA
ATOM     11  C   UNL     1       2.319  -3.522   0.714  0.00  0.00    +0.215 C 
ATOM     12 CL   UNL     1       3.243  -8.209   5.416  0.00  0.00    -0.084 Cl
ATOM     13  N   UNL     1      -0.152  -5.614   2.025  0.00  0.00    -0.215 NA
ATOM     14  C   UNL     1      -1.262  -5.147   1.400  0.00  0.00    +0.249 A 
ATOM     15  N   UNL     1      -1.214  -4.333   0.320  0.00  0.00    -0.221 N 
ATOM     16  N   UNL     1      -2.539  -4.023  -0.012  0.00  0.00    -0.156 NA
ATOM     17  C   UNL     1      -3.301  -4.667   0.834  0.00  0.00    +0.247 A 
ATOM     18  N   UNL     1      -2.546  -5.347   1.676  0.00  0.00    -0.198 NA
ENDROOT
BRANCH   1  23
ATOM     19  C   UNL     1       0.658   1.779   0.149  0.00  0.00    +0.044 C 
ATOM     20  C   UNL     1       0.506   0.284   0.037  0.00  0.00    -0.050 A 
ATOM     21  C   UNL     1      -0.417  -0.378   0.825  0.00  0.00    +0.004 A 
ATOM     22  C   UNL     1      -0.557  -1.749   0.723  0.00  0.00    +0.006 A 
ATOM     23  C   UNL     1       0.226  -2.459  -0.169  0.00  0.00    -0.022 A 
ATOM     24  C   UNL     1       1.148  -1.797  -0.957  0.00  0.00    +0.006 A 
ATOM     25  C   UNL     1       1.285  -0.425  -0.858  0.00  0.00    +0.004 A 
ENDBRANCH   1  23
BRANCH  11  26
ATOM     26  C   UNL     1       1.736  -2.635   1.784  0.00  0.00    -0.006 A 
ATOM     27  C   UNL     1       1.089  -3.197   2.869  0.00  0.00    +0.011 A 
ATOM     28  C   UNL     1       0.553  -2.386   3.851  0.00  0.00    +0.046 A 
ATOM     29  C   UNL     1       0.667  -1.007   3.748  0.00  0.00    +0.120 A 
ATOM     30  C   UNL     1       1.318  -0.446   2.659  0.00  0.00    +0.046 A 
ATOM     31  C   UNL     1       1.856  -1.261   1.682  0.00  0.00    +0.011 A 
BRANCH  29  32
ATOM     32  O   UNL     1       0.140  -0.207   4.713  0.00  0.00    -0.495 OA
ATOM     33  C   UNL     1       0.295   1.203   4.541  0.00  0.00    +0.277 C 
ENDBRANCH  29  32
ENDBRANCH  11  26
TORSDOF 3
