REMARK  Name = ZINC20515073
REMARK  16 active torsions:
REMARK  status: ('A' for Active; 'I' for Inactive)
REMARK    1  A    between atoms: C_1  and  C_2
REMARK    2  A    between atoms: C_2  and  C_3
REMARK    3  A    between atoms: C_3  and  C_4
REMARK    4  A    between atoms: C_4  and  N_5
REMARK    5  A    between atoms: N_5  and  C_6
REMARK    6  A    between atoms: N_5  and  C_10
REMARK    7  A    between atoms: C_6  and  C_7
REMARK    8  A    between atoms: C_7  and  C_8
REMARK    9  A    between atoms: C_8  and  C_9
REMARK   10  A    between atoms: C_10  and  C_11
REMARK   11  A    between atoms: C_11  and  C_12
REMARK   12  A    between atoms: C_12  and  N_13
REMARK   13  A    between atoms: C_14  and  C_16
REMARK   14  A    between atoms: C_19  and  C_21
REMARK   15  A    between atoms: C_21  and  S_22
REMARK   16  A    between atoms: S_22  and  C_24
REMARK                            x       y       z     vdW  Elec       q    Type
REMARK                         _______ _______ _______ _____ _____    ______ ____
ROOT
ATOM      1  N   UNL     1       3.455   3.296   1.342  0.00  0.00    -0.309 N 
ATOM      2  C   UNL     1       2.208   2.961   1.728  0.00  0.00    +0.279 C 
ATOM      3  O   UNL     1       1.372   3.827   1.906  0.00  0.00    -0.267 OA
ATOM      4  H   UNL     1       4.210   2.513   1.181  0.00  0.00    +0.149 HD
ENDROOT
BRANCH   2   5
ATOM      5  C   UNL     1       1.857   1.551   1.933  0.00  0.00    +0.189 A 
ATOM      6  C   UNL     1       0.638   1.076   2.321  0.00  0.00    +0.055 A 
ATOM      7  C   UNL     1       0.753  -0.322   2.390  0.00  0.00    +0.046 A 
ATOM      8  C   UNL     1       2.022  -0.634   2.045  0.00  0.00    +0.118 A 
ATOM      9  O   UNL     1       2.684   0.497   1.770  0.00  0.00    -0.454 OA
BRANCH   8  10
ATOM     10  C   UNL     1       2.597  -2.025   1.981  0.00  0.00    +0.183 C 
BRANCH  10  11
ATOM     11  S   UNL     1       2.353  -2.704   0.317  0.00  0.00    +0.061 S 
ATOM     12  O   UNL     1       0.970  -2.954   0.105  0.00  0.00    -0.252 OA
BRANCH  11  13
ATOM     13  C   UNL     1       3.069  -4.312   0.403  0.00  0.00    +0.039 A 
ATOM     14  C   UNL     1       4.404  -4.491   0.092  0.00  0.00    +0.020 A 
ATOM     15  C   UNL     1       4.968  -5.751   0.164  0.00  0.00    +0.039 A 
ATOM     16  C   UNL     1       4.192  -6.835   0.538  0.00  0.00    +0.123 A 
ATOM     17  C   UNL     1       2.854  -6.656   0.844  0.00  0.00    +0.039 A 
ATOM     18  C   UNL     1       2.293  -5.394   0.776  0.00  0.00    +0.020 A 
ATOM     19  F   UNL     1       4.741  -8.068   0.604  0.00  0.00    -0.205 F 
ENDBRANCH  11  13
ENDBRANCH  10  11
ENDBRANCH   8  10
ENDBRANCH   2   5
BRANCH   1  20
ATOM     20  C   UNL     1       3.804   4.704   1.138  0.00  0.00    +0.103 C 
BRANCH  20  21
ATOM     21  C   UNL     1       5.269   4.808   0.706  0.00  0.00    +0.000 C 
BRANCH  21  22
ATOM     22  C   UNL     1       5.634   6.279   0.493  0.00  0.00    -0.077 C 
BRANCH  22  23
ATOM     23  N   UNL     1       7.040   6.379   0.079  0.00  0.00    +0.380 N 
ATOM     24  H   UNL     1       7.647   5.818   0.805  0.00  0.00    -0.082 HD
BRANCH  23  25
ATOM     25  C   UNL     1       7.243   5.773  -1.244  0.00  0.00    -0.079 C 
BRANCH  25  26
ATOM     26  C   UNL     1       6.392   6.511  -2.280  0.00  0.00    -0.019 C 
BRANCH  26  28
ATOM     27  C   UNL     1       5.730   6.598  -4.687  0.00  0.00    +0.004 C 
ATOM     28  C   UNL     1       6.580   5.859  -3.651  0.00  0.00    -0.005 C 
ENDBRANCH  26  28
ENDBRANCH  25  26
ENDBRANCH  23  25
BRANCH  23  29
ATOM     29  C   UNL     1       7.495   7.776   0.093  0.00  0.00    -0.079 C 
BRANCH  29  30
ATOM     30  C   UNL     1       9.023   7.815   0.045  0.00  0.00    -0.019 C 
BRANCH  30  31
ATOM     31  C   UNL     1       9.497   9.269   0.059  0.00  0.00    -0.005 C 
ATOM     32  C   UNL     1      11.026   9.308   0.011  0.00  0.00    +0.004 C 
ENDBRANCH  30  31
ENDBRANCH  29  30
ENDBRANCH  23  29
ENDBRANCH  22  23
ENDBRANCH  21  22
ENDBRANCH  20  21
ENDBRANCH   1  20
TORSDOF 14
