REMARK  Name = ZINC60331352
REMARK  9 active torsions:
REMARK  status: ('A' for Active; 'I' for Inactive)
REMARK    1  A    between atoms: C_1  and  C_2
REMARK    2  A    between atoms: C_2  and  N_3
REMARK    3  A    between atoms: N_6  and  C_9
REMARK    4  A    between atoms: C_14  and  C_15
REMARK    5  A    between atoms: C_15  and  C_17
REMARK    6  A    between atoms: C_15  and  N_18
REMARK    7  A    between atoms: C_19  and  C_21
REMARK    8  A    between atoms: C_28  and  C_30
REMARK    9  A    between atoms: C_33  and  C_36
REMARK                            x       y       z     vdW  Elec       q    Type
REMARK                         _______ _______ _______ _____ _____    ______ ____
ROOT
ATOM      1  N   UNL     1      -7.577  -3.239   0.090  0.00  0.00    -0.308 N 
ATOM      2  C   UNL     1      -8.190  -2.980   1.263  0.00  0.00    +0.218 C 
ATOM      3  O   UNL     1      -7.830  -2.041   1.940  0.00  0.00    -0.275 OA
ATOM      4  H   UNL     1      -7.864  -3.990  -0.452  0.00  0.00    +0.149 HD
ENDROOT
BRANCH   2   5
ATOM      5  C   UNL     1      -9.321  -3.859   1.731  0.00  0.00    +0.092 C 
ATOM      6  C   UNL     1      -9.836  -3.352   3.080  0.00  0.00    +0.016 C 
ATOM      7  C   UNL     1     -11.006  -4.223   3.541  0.00  0.00    +0.020 C 
ATOM      8  C   UNL     1     -10.525  -5.667   3.719  0.00  0.00    +0.108 C 
ATOM      9  N   UNL     1      -9.897  -6.113   2.467  0.00  0.00    -0.297 N 
ATOM     10  C   UNL     1      -8.820  -5.298   1.887  0.00  0.00    +0.120 C 
ATOM     11  C   UNL     1     -10.300  -7.248   1.863  0.00  0.00    +0.247 C 
ATOM     12  O   UNL     1      -9.849  -7.551   0.776  0.00  0.00    -0.270 OA
BRANCH  11  13
ATOM     13  C   UNL     1     -11.292  -8.124   2.522  0.00  0.00    +0.037 A 
ATOM     14  C   UNL     1     -12.312  -8.715   1.774  0.00  0.00    +0.013 A 
ATOM     15  C   UNL     1     -13.234  -9.532   2.396  0.00  0.00    +0.004 A 
ATOM     16  C   UNL     1     -13.149  -9.765   3.757  0.00  0.00    -0.050 A 
ATOM     17  C   UNL     1     -12.141  -9.182   4.504  0.00  0.00    +0.004 A 
ATOM     18  C   UNL     1     -11.209  -8.368   3.894  0.00  0.00    +0.013 A 
ATOM     19  C   UNL     1     -14.160 -10.659   4.429  0.00  0.00    +0.044 C 
ENDBRANCH  11  13
ENDBRANCH   2   5
BRANCH   1  20
ATOM     20  C   UNL     1      -6.476  -2.385  -0.365  0.00  0.00    +0.102 C 
ATOM     21  C   UNL     1      -7.045  -1.169  -1.099  0.00  0.00    +0.033 C 
BRANCH  20  27
ATOM     22  C   UNL     1      -4.257  -2.805  -1.456  0.00  0.00    +0.035 A 
ATOM     23  C   UNL     1      -3.439  -3.530  -2.314  0.00  0.00    +0.026 A 
ATOM     24  C   UNL     1      -3.954  -4.604  -3.013  0.00  0.00    +0.040 A 
ATOM     25  C   UNL     1      -5.284  -4.959  -2.859  0.00  0.00    +0.124 A 
ATOM     26  C   UNL     1      -6.100  -4.238  -2.005  0.00  0.00    +0.045 A 
ATOM     27  C   UNL     1      -5.589  -3.166  -1.300  0.00  0.00    -0.004 A 
ATOM     28  F   UNL     1      -5.785  -6.010  -3.544  0.00  0.00    -0.205 F 
BRANCH  22  32
ATOM     29  N   UNL     1      -1.911   0.183   0.180  0.00  0.00    +0.382 N 
ATOM     30  C   UNL     1      -2.374   0.249  -1.212  0.00  0.00    -0.060 C 
ATOM     31  C   UNL     1      -3.778  -0.359  -1.311  0.00  0.00    +0.086 C 
ATOM     32  N   UNL     1      -3.738  -1.718  -0.747  0.00  0.00    -0.333 N 
ATOM     33  C   UNL     1      -3.137  -1.899   0.583  0.00  0.00    +0.086 C 
ATOM     34  C   UNL     1      -1.764  -1.218   0.593  0.00  0.00    -0.060 C 
ATOM     35  H   UNL     1      -2.583   0.640   0.778  0.00  0.00    -0.082 HD
BRANCH  29  37
ATOM     36  C   UNL     1      -0.790   2.352  -0.015  0.00  0.00    -0.017 C 
ATOM     37  C   UNL     1      -0.614   0.864   0.295  0.00  0.00    -0.082 C 
ENDBRANCH  29  37
ENDBRANCH  22  32
ENDBRANCH  20  27
ENDBRANCH   1  20
TORSDOF 6
