REMARK  Name = ZINC46747674
REMARK  6 active torsions:
REMARK  status: ('A' for Active; 'I' for Inactive)
REMARK    1  A    between atoms: C_1  and  C_2
REMARK    2  A    between atoms: N_4  and  C_5
REMARK    3  A    between atoms: N_4  and  C_6
REMARK    4  A    between atoms: C_6  and  C_7
REMARK    5  A    between atoms: C_12  and  N_13
REMARK    6  A    between atoms: C_14  and  C_16
REMARK                            x       y       z     vdW  Elec       q    Type
REMARK                         _______ _______ _______ _____ _____    ______ ____
ROOT
ATOM      1  N   UNL     1      -3.627  -2.502   1.306  0.00  0.00    -0.279 N 
ATOM      2  C   UNL     1      -4.752  -2.171   1.970  0.00  0.00    +0.284 C 
ATOM      3  O   UNL     1      -4.733  -2.058   3.181  0.00  0.00    -0.266 OA
ATOM      4  H   UNL     1      -3.621  -2.511   0.337  0.00  0.00    +0.155 HD
ENDROOT
BRANCH   2   5
ATOM      5  C   UNL     1      -6.002  -1.947   1.231  0.00  0.00    +0.191 A 
ATOM      6  C   UNL     1      -7.191  -1.606   1.791  0.00  0.00    +0.063 A 
ATOM      7  C   UNL     1      -8.142  -1.489   0.686  0.00  0.00    +0.022 A 
ATOM      8  C   UNL     1      -9.500  -1.173   0.598  0.00  0.00    +0.012 A 
ATOM      9  C   UNL     1     -10.113  -1.150  -0.622  0.00  0.00    +0.002 A 
ATOM     10  C   UNL     1      -9.396  -1.439  -1.776  0.00  0.00    +0.019 A 
ATOM     11  C   UNL     1      -8.055  -1.753  -1.711  0.00  0.00    +0.061 A 
ATOM     12  C   UNL     1      -7.409  -1.782  -0.479  0.00  0.00    +0.150 A 
ATOM     13  O   UNL     1      -6.141  -2.043  -0.108  0.00  0.00    -0.449 OA
ATOM     14 BR   UNL     1      -7.096  -2.143  -3.293  0.00  0.00    -0.046 Br
ENDBRANCH   2   5
BRANCH   1  20
ATOM     15  C   UNL     1      -1.221  -2.677   1.423  0.00  0.00    -0.009 A 
ATOM     16  C   UNL     1      -0.078  -2.998   2.129  0.00  0.00    +0.007 A 
ATOM     17  C   UNL     1      -0.174  -3.479   3.422  0.00  0.00    +0.000 A 
ATOM     18  C   UNL     1      -1.414  -3.639   4.013  0.00  0.00    +0.002 A 
ATOM     19  C   UNL     1      -2.561  -3.320   3.313  0.00  0.00    +0.023 A 
ATOM     20  C   UNL     1      -2.468  -2.832   2.016  0.00  0.00    +0.038 A 
BRANCH  15  21
ATOM     21  C   UNL     1      -1.116  -2.154   0.014  0.00  0.00    +0.144 C 
BRANCH  21  25
ATOM     22  C   UNL     1      -0.038   1.519   0.061  0.00  0.00    +0.109 C 
ATOM     23  C   UNL     1      -0.001   0.013   0.042  0.00  0.00    +0.213 C 
ATOM     24  O   UNL     1       1.063  -0.568   0.035  0.00  0.00    -0.276 OA
ATOM     25  N   UNL     1      -1.152  -0.690   0.033  0.00  0.00    -0.300 N 
ATOM     26  C   UNL     1      -2.438   0.011   0.041  0.00  0.00    +0.132 C 
ENDBRANCH  21  25
ENDBRANCH  15  21
ENDBRANCH   1  20
TORSDOF 4
