REMARK  Name = ZINC39863296
REMARK  6 active torsions:
REMARK  status: ('A' for Active; 'I' for Inactive)
REMARK    1  A    between atoms: C_1  and  C_2
REMARK    2  A    between atoms: C_6  and  N_8
REMARK    3  A    between atoms: N_10  and  C_24
REMARK    4  A    between atoms: C_14  and  C_15
REMARK    5  A    between atoms: C_14  and  C_16
REMARK    6  A    between atoms: C_20  and  N_22
REMARK                            x       y       z     vdW  Elec       q    Type
REMARK                         _______ _______ _______ _____ _____    ______ ____
ROOT
ATOM      1  N   UNL     1      -0.251  -2.621   2.428  0.00  0.00    -0.206 NA
ATOM      2  C   UNL     1      -0.004  -1.933   3.522  0.00  0.00    +0.170 C 
ATOM      3  N   UNL     1       0.139  -0.571   3.663  0.00  0.00    -0.249 N 
ATOM      4  C   UNL     1       0.387  -0.037   4.847  0.00  0.00    +0.259 C 
ATOM      5  O   UNL     1       0.516   1.165   4.989  0.00  0.00    -0.269 OA
ATOM      6  C   UNL     1       0.501  -0.967   5.989  0.00  0.00    +0.081 C 
ATOM      7  C   UNL     1       0.746  -0.699   7.296  0.00  0.00    -0.024 C 
ATOM      8  C   UNL     1       0.947   0.724   7.748  0.00  0.00    +0.045 C 
ATOM      9  S   UNL     1       0.219  -2.539   5.187  0.00  0.00    -0.048 S 
ATOM     10  C   UNL     1       0.014   0.296   2.488  0.00  0.00    +0.140 C 
ENDROOT
BRANCH   1  16
ATOM     11  C   UNL     1      -2.818  -0.403  -0.925  0.00  0.00    +0.065 C 
ATOM     12  C   UNL     1      -1.491  -0.912  -0.426  0.00  0.00    +0.041 A 
ATOM     13  C   UNL     1      -0.359  -0.730  -1.196  0.00  0.00    +0.023 A 
ATOM     14  C   UNL     1       0.865  -1.200  -0.734  0.00  0.00    +0.005 A 
ATOM     15  C   UNL     1       0.908  -1.840   0.489  0.00  0.00    +0.048 A 
ATOM     16  C   UNL     1      -0.276  -1.992   1.218  0.00  0.00    +0.155 A 
ATOM     17  N   UNL     1      -1.426  -1.521   0.742  0.00  0.00    -0.233 NA
ENDBRANCH   1  16
BRANCH   7  18
ATOM     18  C   UNL     1       0.816  -1.797   8.271  0.00  0.00    -0.019 A 
ATOM     19  C   UNL     1      -0.319  -2.569   8.543  0.00  0.00    +0.008 A 
ATOM     20  C   UNL     1      -0.249  -3.598   9.458  0.00  0.00    +0.002 A 
ATOM     21  C   UNL     1       0.939  -3.872  10.110  0.00  0.00    +0.023 A 
ATOM     22  C   UNL     1       2.074  -3.112   9.848  0.00  0.00    +0.025 A 
ATOM     23  C   UNL     1       2.019  -2.079   8.926  0.00  0.00    +0.031 A 
BRANCH  22  24
ATOM     24  N   UNL     1       3.271  -3.393  10.511  0.00  0.00    -0.358 N 
ATOM     25  H   UNL     1       3.311  -4.119  11.153  0.00  0.00    +0.142 HD
ATOM     26  H   UNL     1       4.063  -2.863  10.328  0.00  0.00    +0.142 HD
ENDBRANCH  22  24
ENDBRANCH   7  18
TORSDOF 3
