REMARK  Name = ZINC34755298
REMARK  7 active torsions:
REMARK  status: ('A' for Active; 'I' for Inactive)
REMARK    1  A    between atoms: C_1  and  C_2
REMARK    2  A    between atoms: C_4  and  C_9
REMARK    3  A    between atoms: C_12  and  C_23
REMARK    4  A    between atoms: N_19  and  C_20
REMARK    5  A    between atoms: C_20  and  C_21
REMARK    6  A    between atoms: C_20  and  C_22
REMARK    7  A    between atoms: N_28  and  C_31
REMARK                            x       y       z     vdW  Elec       q    Type
REMARK                         _______ _______ _______ _____ _____    ______ ____
ROOT
ATOM      1  C   UNL     1       0.440  -2.448  -2.629  0.00  0.00    +0.037 C 
ATOM      2  C   UNL     1       1.650  -3.368  -2.815  0.00  0.00    +0.024 C 
ATOM      3  C   UNL     1       1.419  -4.278  -4.023  0.00  0.00    +0.093 C 
ATOM      4  C   UNL     1       0.184  -5.149  -3.773  0.00  0.00    +0.122 C 
ATOM      5  N   UNL     1      -0.953  -4.275  -3.450  0.00  0.00    -0.284 N 
ATOM      6  C   UNL     1      -0.807  -3.297  -2.363  0.00  0.00    +0.117 C 
ATOM      7  C   UNL     1      -2.108  -4.369  -4.138  0.00  0.00    +0.302 C 
ATOM      8  O   UNL     1      -2.249  -5.241  -4.973  0.00  0.00    -0.253 OA
ATOM      9  N   UNL     1      -3.107  -3.495  -3.900  0.00  0.00    -0.297 N 
ATOM     10  H   UNL     1      -2.969  -2.756  -3.288  0.00  0.00    +0.150 HD
ENDROOT
BRANCH   1  14
ATOM     11  C   UNL     1       0.914   2.176  -0.775  0.00  0.00    +0.047 C 
ATOM     12  C   UNL     1       0.908   0.683  -0.572  0.00  0.00    -0.015 A 
ATOM     13  C   UNL     1       0.687  -0.160  -1.645  0.00  0.00    +0.010 A 
ATOM     14  C   UNL     1       0.682  -1.530  -1.458  0.00  0.00    -0.042 A 
ATOM     15  C   UNL     1       0.898  -2.058  -0.199  0.00  0.00    +0.007 A 
ATOM     16  C   UNL     1       1.120  -1.217   0.875  0.00  0.00    +0.039 A 
ATOM     17  C   UNL     1       1.130   0.155   0.689  0.00  0.00    +0.126 A 
ATOM     18  F   UNL     1       1.352   0.978   1.737  0.00  0.00    -0.205 F 
ENDBRANCH   1  14
BRANCH   3  19
ATOM     19  C   UNL     1       2.624  -5.160  -4.226  0.00  0.00    +0.220 C 
ATOM     20  O   UNL     1       2.626  -6.293  -3.794  0.00  0.00    -0.275 OA
ATOM     21  N   UNL     1       3.700  -4.689  -4.886  0.00  0.00    -0.298 N 
ATOM     22  C   UNL     1       3.674  -3.356  -5.504  0.00  0.00    +0.126 C 
ATOM     23  C   UNL     1       4.856  -2.542  -4.963  0.00  0.00    +0.124 C 
ATOM     24  N   UNL     1       6.077  -3.352  -5.078  0.00  0.00    -0.325 N 
ATOM     25  C   UNL     1       6.103  -4.685  -4.460  0.00  0.00    +0.124 C 
ATOM     26  C   UNL     1       4.923  -5.497  -4.997  0.00  0.00    +0.126 C 
BRANCH  24  27
ATOM     27  C   UNL     1       7.193  -2.864  -5.764  0.00  0.00    +0.065 A 
ATOM     28  C   UNL     1       8.167  -2.145  -5.084  0.00  0.00    +0.026 A 
ATOM     29  C   UNL     1       9.270  -1.664  -5.764  0.00  0.00    +0.002 A 
ATOM     30  C   UNL     1       9.404  -1.897  -7.120  0.00  0.00    +0.003 A 
ATOM     31  C   UNL     1       8.437  -2.612  -7.802  0.00  0.00    +0.040 A 
ATOM     32  C   UNL     1       7.334  -3.102  -7.127  0.00  0.00    +0.144 A 
ATOM     33  F   UNL     1       6.391  -3.806  -7.791  0.00  0.00    -0.204 F 
ENDBRANCH  24  27
ENDBRANCH   3  19
BRANCH   9  34
ATOM     34  C   UNL     1      -4.400  -3.663  -4.567  0.00  0.00    +0.068 C 
ATOM     35  C   UNL     1      -5.496  -3.003  -3.727  0.00  0.00    +0.027 C 
ATOM     36  C   UNL     1      -4.351  -3.005  -5.948  0.00  0.00    +0.027 C 
ENDBRANCH   9  34
TORSDOF 4
