REMARK  Name = ZINC13407168
REMARK  8 active torsions:
REMARK  status: ('A' for Active; 'I' for Inactive)
REMARK    1  A    between atoms: C_1  and  C_2
REMARK    2  A    between atoms: C_4  and  C_32
REMARK    3  A    between atoms: C_5  and  N_9
REMARK    4  A    between atoms: C_13  and  S_15
REMARK    5  A    between atoms: S_15  and  C_16
REMARK    6  A    between atoms: C_16  and  C_17
REMARK    7  A    between atoms: C_23  and  C_31
REMARK    8  A    between atoms: C_24  and  C_28
REMARK                            x       y       z     vdW  Elec       q    Type
REMARK                         _______ _______ _______ _____ _____    ______ ____
ROOT
ATOM      1  S   UNL     1       1.737  -7.902   4.083  0.00  0.00    -0.089 S 
ENDROOT
BRANCH   1   6
ATOM      2  N   UNL     1       0.059  -4.169  -0.023  0.00  0.00    -0.291 N 
ATOM      3  C   UNL     1       0.485  -4.866   1.102  0.00  0.00    +0.187 A 
ATOM      4  N   UNL     1       0.818  -4.407   2.293  0.00  0.00    -0.125 NA
ATOM      5  N   UNL     1       1.218  -5.281   3.277  0.00  0.00    -0.133 NA
ATOM      6  C   UNL     1       1.267  -6.575   3.024  0.00  0.00    +0.160 A 
ATOM      7  S   UNL     1       0.723  -6.622   1.323  0.00  0.00    -0.024 S 
ATOM      8  H   UNL     1      -0.081  -4.639  -0.860  0.00  0.00    +0.154 HD
BRANCH   2  13
ATOM      9  C   UNL     1      -0.867   1.419   0.284  0.00  0.00    +0.044 C 
ATOM     10  C   UNL     1      -0.621  -0.066   0.203  0.00  0.00    -0.049 A 
ATOM     11  C   UNL     1      -1.668  -0.950   0.387  0.00  0.00    +0.008 A 
ATOM     12  C   UNL     1      -1.446  -2.311   0.313  0.00  0.00    -0.028 A 
ATOM     13  C   UNL     1      -0.169  -2.792   0.052  0.00  0.00    +0.054 A 
ATOM     14  C   UNL     1       0.881  -1.901  -0.134  0.00  0.00    +0.063 A 
ATOM     15  C   UNL     1       0.651  -0.540  -0.063  0.00  0.00    +0.025 A 
ATOM     16 CL   UNL     1       2.479  -2.496  -0.460  0.00  0.00    -0.082 Cl
ATOM     17  C   UNL     1      -2.588  -3.273   0.516  0.00  0.00    +0.046 C 
ENDBRANCH   2  13
ENDBRANCH   1   6
BRANCH   1  18
ATOM     18  C   UNL     1       2.153  -7.088   5.649  0.00  0.00    +0.150 C 
BRANCH  18  19
ATOM     19  C   UNL     1       2.578  -8.124   6.658  0.00  0.00    +0.121 A 
ATOM     20  N   UNL     1       2.929  -7.724   7.904  0.00  0.00    -0.310 N 
ATOM     21  H   UNL     1       2.900  -6.780   8.126  0.00  0.00    +0.170 HD
ATOM     22  C   UNL     1       3.315  -8.611   8.843  0.00  0.00    +0.260 A 
ATOM     23  O   UNL     1       3.627  -8.241   9.960  0.00  0.00    -0.267 OA
ATOM     24  C   UNL     1       3.349 -10.047   8.479  0.00  0.00    +0.076 A 
ATOM     25  C   UNL     1       3.708 -11.144   9.263  0.00  0.00    -0.015 A 
ATOM     26  C   UNL     1       3.668 -12.408   8.720  0.00  0.00    +0.106 A 
ATOM     27  S   UNL     1       3.113 -12.102   7.052  0.00  0.00    -0.062 S 
ATOM     28  C   UNL     1       2.962 -10.336   7.150  0.00  0.00    +0.116 A 
ATOM     29  N   UNL     1       2.592  -9.381   6.306  0.00  0.00    -0.226 NA
ATOM     30  C   UNL     1       4.137 -10.946  10.694  0.00  0.00    +0.046 C 
BRANCH  26  31
ATOM     31  C   UNL     1       3.989 -13.646   9.334  0.00  0.00    +0.393 C 
ATOM     32  O   UNL     1       4.358 -13.673  10.501  0.00  0.00    -0.240 OA
ATOM     33  O   UNL     1       3.896 -14.688   8.696  0.00  0.00    -0.240 OA
ENDBRANCH  26  31
ENDBRANCH  18  19
ENDBRANCH   1  18
TORSDOF 5
