REMARK  Name = ZINC63294549
REMARK  4 active torsions:
REMARK  status: ('A' for Active; 'I' for Inactive)
REMARK    1  A    between atoms: C_5  and  C_21
REMARK    2  A    between atoms: C_10  and  C_11
REMARK    3  A    between atoms: N_13  and  C_14
REMARK    4  A    between atoms: C_14  and  C_15
REMARK                            x       y       z     vdW  Elec       q    Type
REMARK                         _______ _______ _______ _____ _____    ______ ____
ROOT
ATOM      1  C   UNL     1      -0.018   1.456   0.010  0.00  0.00    +0.015 A 
ATOM      2  C   UNL     1       1.115   2.183   0.003  0.00  0.00    +0.028 A 
ATOM      3  C   UNL     1       2.419   1.508  -0.013  0.00  0.00    +0.060 A 
ATOM      4  N   UNL     1       3.641   1.964  -0.022  0.00  0.00    -0.356 N 
ATOM      5  C   UNL     1       4.543   0.806  -0.037  0.00  0.00    +0.281 C 
ATOM      6  N   UNL     1       3.686  -0.386  -0.035  0.00  0.00    -0.356 N 
ATOM      7  C   UNL     1       2.449   0.022  -0.021  0.00  0.00    +0.061 A 
ATOM      8  C   UNL     1       1.170  -0.703  -0.013  0.00  0.00    +0.040 A 
ATOM      9  C   UNL     1       0.002  -0.004   0.002  0.00  0.00    +0.039 A 
ATOM     10  H   UNL     1       3.986  -1.308  -0.044  0.00  0.00    +0.162 HD
ATOM     11  H   UNL     1       3.905   2.897  -0.020  0.00  0.00    +0.162 HD
ENDROOT
BRANCH   9  12
ATOM     12  C   UNL     1      -1.280  -0.742   0.011  0.00  0.00    +0.244 C 
ATOM     13  O   UNL     1      -1.281  -1.958   0.004  0.00  0.00    -0.270 OA
ATOM     14  N   UNL     1      -2.446  -0.067   0.026  0.00  0.00    -0.307 N 
ATOM     15  H   UNL     1      -2.445   0.903   0.031  0.00  0.00    +0.149 HD
BRANCH  14  16
ATOM     16  C   UNL     1      -3.716  -0.799   0.035  0.00  0.00    +0.140 C 
BRANCH  16  17
ATOM     17  C   UNL     1      -4.860   0.182   0.051  0.00  0.00    -0.027 A 
ATOM     18  C   UNL     1      -5.383   0.641   1.250  0.00  0.00    +0.025 A 
ATOM     19  C   UNL     1      -6.433   1.540   1.226  0.00  0.00    +0.111 A 
ATOM     20  N   UNL     1      -6.936   1.960   0.082  0.00  0.00    -0.263 NA
ATOM     21  C   UNL     1      -6.463   1.544  -1.077  0.00  0.00    +0.111 A 
ATOM     22  C   UNL     1      -5.411   0.650  -1.132  0.00  0.00    +0.025 A 
ENDBRANCH  16  17
ENDBRANCH  14  16
ENDBRANCH   9  12
BRANCH   5  23
ATOM     23  C   UNL     1       5.432   0.817   1.208  0.00  0.00    +0.428 C 
ATOM     24  F   UNL     1       4.630   0.794   2.354  0.00  0.00    -0.167 F 
ATOM     25  F   UNL     1       6.263  -0.308   1.198  0.00  0.00    -0.167 F 
ATOM     26  F   UNL     1       6.216   1.976   1.211  0.00  0.00    -0.167 F 
ENDBRANCH   5  23
TORSDOF 4
