REMARK  Name = ZINC39780265
REMARK  8 active torsions:
REMARK  status: ('A' for Active; 'I' for Inactive)
REMARK    1  A    between atoms: C_4  and  C_7
REMARK    2  A    between atoms: C_9  and  C_17
REMARK    3  A    between atoms: C_17  and  C_19
REMARK    4  A    between atoms: C_19  and  S_20
REMARK    5  A    between atoms: S_20  and  C_21
REMARK    6  A    between atoms: C_24  and  S_27
REMARK    7  A    between atoms: S_27  and  C_28
REMARK    8  A    between atoms: C_28  and  C_29
REMARK                            x       y       z     vdW  Elec       q    Type
REMARK                         _______ _______ _______ _____ _____    ______ ____
ROOT
ATOM      1  C   UNL     1       4.247  -0.425   2.511  0.00  0.00    +0.172 C 
ATOM      2  O   UNL     1       4.150   0.784   2.454  0.00  0.00    -0.291 OA
ENDROOT
BRANCH   1   4
ATOM      3  C   UNL     1       3.711  -0.707  -0.038  0.00  0.00    +0.144 C 
ATOM      4  C   UNL     1       4.049  -1.204   1.351  0.00  0.00    +0.031 C 
ATOM      5  C   UNL     1       4.122  -2.581   1.246  0.00  0.00    +0.007 A 
ATOM      6  C   UNL     1       4.398  -3.604   2.183  0.00  0.00    +0.010 A 
ATOM      7  C   UNL     1       4.405  -4.899   1.795  0.00  0.00    +0.001 A 
ATOM      8  C   UNL     1       4.143  -5.291   0.472  0.00  0.00    +0.002 A 
ATOM      9  C   UNL     1       3.868  -4.394  -0.498  0.00  0.00    +0.026 A 
ATOM     10  C   UNL     1       3.841  -2.961  -0.161  0.00  0.00    +0.044 A 
ATOM     11  N   UNL     1       3.611  -1.900  -0.884  0.00  0.00    -0.373 N 
ATOM     12  H   UNL     1       3.405  -1.900  -1.831  0.00  0.00    +0.161 HD
BRANCH   3  16
ATOM     13  C   UNL     1      -0.017   1.378   0.010  0.00  0.00    +0.000 A 
ATOM     14  C   UNL     1       1.171   2.086   0.002  0.00  0.00    +0.000 A 
ATOM     15  C   UNL     1       2.377   1.411  -0.013  0.00  0.00    +0.006 A 
ATOM     16  C   UNL     1       2.396   0.029  -0.020  0.00  0.00    -0.021 A 
ATOM     17  C   UNL     1       1.208  -0.679  -0.012  0.00  0.00    +0.006 A 
ATOM     18  C   UNL     1       0.002  -0.004   0.002  0.00  0.00    +0.000 A 
ENDBRANCH   3  16
ENDBRANCH   1   4
BRANCH   1  19
ATOM     19  C   UNL     1       4.579  -1.093   3.820  0.00  0.00    +0.155 C 
BRANCH  19  20
ATOM     20  S   UNL     1       4.772   0.166   5.111  0.00  0.00    -0.090 S 
BRANCH  20  21
ATOM     21  C   UNL     1       5.153  -0.762   6.559  0.00  0.00    +0.151 C 
ATOM     22  N   UNL     1       5.274  -2.049   6.675  0.00  0.00    -0.172 NA
ATOM     23  N   UNL     1       5.577  -2.676   7.863  0.00  0.00    -0.244 N 
ATOM     24  C   UNL     1       5.759  -1.774   9.024  0.00  0.00    +0.211 C 
ATOM     25  S   UNL     1       5.469  -0.151   8.207  0.00  0.00    -0.063 S 
ATOM     26  H   UNL     1       5.664  -3.639   7.935  0.00  0.00    +0.170 HD
BRANCH  24  27
ATOM     27  S   UNL     1       4.527  -2.102  10.314  0.00  0.00    -0.117 S 
BRANCH  27  28
ATOM     28  C   UNL     1       2.938  -1.804   9.490  0.00  0.00    +0.167 C 
BRANCH  28  29
ATOM     29  C   UNL     1       1.814  -2.044  10.464  0.00  0.00    +0.220 C 
ATOM     30  O   UNL     1       2.060  -2.382  11.602  0.00  0.00    -0.275 OA
ATOM     31  N   UNL     1       0.535  -1.882  10.070  0.00  0.00    -0.329 N 
ATOM     32  H   UNL     1       0.339  -1.611   9.160  0.00  0.00    +0.145 HD
ATOM     33  H   UNL     1      -0.189  -2.037  10.697  0.00  0.00    +0.145 HD
ENDBRANCH  28  29
ENDBRANCH  27  28
ENDBRANCH  24  27
ENDBRANCH  20  21
ENDBRANCH  19  20
ENDBRANCH   1  19
TORSDOF 8
