REMARK  Name = ZINC40886798
REMARK  3 active torsions:
REMARK  status: ('A' for Active; 'I' for Inactive)
REMARK    1  A    between atoms: C_8  and  C_19
REMARK    2  A    between atoms: C_10  and  O_11
REMARK    3  A    between atoms: O_11  and  C_12
REMARK                            x       y       z     vdW  Elec       q    Type
REMARK                         _______ _______ _______ _____ _____    ______ ____
ROOT
ATOM      1  C   UNL     1      -0.013   1.371   0.047  0.00  0.00    +0.001 A 
ATOM      2  C   UNL     1       1.173   2.101  -0.001  0.00  0.00    +0.001 A 
ATOM      3  C   UNL     1       2.384   1.475  -0.017  0.00  0.00    +0.014 A 
ATOM      4  C   UNL     1       2.438   0.075   0.016  0.00  0.00    +0.044 A 
ATOM      5  C   UNL     1       1.231  -0.668   0.065  0.00  0.00    -0.011 A 
ATOM      6  C   UNL     1       0.003   0.009   0.080  0.00  0.00    +0.009 A 
ATOM      7  C   UNL     1       1.314  -2.073   0.098  0.00  0.00    +0.033 A 
ATOM      8  C   UNL     1       2.543  -2.658   0.081  0.00  0.00    +0.060 A 
ATOM      9  N   UNL     1       3.660  -1.944   0.035  0.00  0.00    -0.216 NA
ATOM     10  C   UNL     1       3.662  -0.627   0.002  0.00  0.00    +0.228 A 
ENDROOT
BRANCH   8  11
ATOM     11  C   UNL     1       2.637  -4.162   0.115  0.00  0.00    +0.164 C 
ATOM     12 CL   UNL     1       2.631  -4.803  -1.570  0.00  0.00    -0.119 Cl
ENDBRANCH   8  11
BRANCH  10  13
ATOM     13  O   UNL     1       4.834   0.051  -0.045  0.00  0.00    -0.437 OA
BRANCH  13  14
ATOM     14  C   UNL     1       5.987  -0.662   0.045  0.00  0.00    +0.131 A 
ATOM     15  C   UNL     1       6.455  -1.368  -1.054  0.00  0.00    +0.049 A 
ATOM     16  C   UNL     1       7.627  -2.093  -0.962  0.00  0.00    +0.042 A 
ATOM     17  C   UNL     1       8.336  -2.115   0.228  0.00  0.00    +0.124 A 
ATOM     18  C   UNL     1       7.871  -1.411   1.326  0.00  0.00    +0.042 A 
ATOM     19  C   UNL     1       6.702  -0.681   1.234  0.00  0.00    +0.049 A 
ATOM     20  F   UNL     1       9.482  -2.825   0.317  0.00  0.00    -0.205 F 
ENDBRANCH  13  14
ENDBRANCH  10  13
TORSDOF 3
