REMARK  Name = ZINC49545712
REMARK  5 active torsions:
REMARK  status: ('A' for Active; 'I' for Inactive)
REMARK    1  A    between atoms: N_4  and  C_6
REMARK    2  A    between atoms: C_7  and  C_18
REMARK    3  A    between atoms: N_10  and  C_11
REMARK    4  A    between atoms: N_20  and  C_21
REMARK    5  A    between atoms: C_24  and  C_27
REMARK                            x       y       z     vdW  Elec       q    Type
REMARK                         _______ _______ _______ _____ _____    ______ ____
ROOT
ATOM      1  C   UNL     1       1.978  -1.639   0.196  0.00  0.00    +0.153 A 
ATOM      2  C   UNL     1       2.864  -2.209  -0.711  0.00  0.00    +0.099 A 
ATOM      3  C   UNL     1       2.832  -3.607  -0.499  0.00  0.00    +0.150 A 
ATOM      4  N   UNL     1       1.989  -3.854   0.464  0.00  0.00    -0.172 NA
ATOM      5  N   UNL     1       1.447  -2.648   0.920  0.00  0.00    -0.215 N 
ENDROOT
BRANCH   5   6
ATOM      6  C   UNL     1       0.508  -2.510   1.952  0.00  0.00    +0.068 A 
ATOM      7  C   UNL     1       0.553  -1.403   2.789  0.00  0.00    +0.029 A 
ATOM      8  C   UNL     1      -0.374  -1.270   3.805  0.00  0.00    +0.017 A 
ATOM      9  C   UNL     1      -1.346  -2.237   3.987  0.00  0.00    +0.018 A 
ATOM     10  C   UNL     1      -1.393  -3.340   3.154  0.00  0.00    +0.017 A 
ATOM     11  C   UNL     1      -0.472  -3.476   2.134  0.00  0.00    +0.029 A 
ATOM     12 BR   UNL     1      -2.613  -2.050   5.379  0.00  0.00    -0.050 Br
ENDBRANCH   5   6
BRANCH   1  16
ATOM     13  C   UNL     1       0.587   1.597   0.583  0.00  0.00    +0.019 A 
ATOM     14  C   UNL     1       1.964   1.890   0.508  0.00  0.00    +0.019 A 
ATOM     15  C   UNL     1       2.620   0.723   0.357  0.00  0.00    +0.092 A 
ATOM     16  N   UNL     1       1.697  -0.286   0.336  0.00  0.00    -0.307 N 
ATOM     17  C   UNL     1       0.451   0.260   0.476  0.00  0.00    +0.092 A 
ENDBRANCH   1  16
BRANCH   2  18
ATOM     18  C   UNL     1       3.679  -1.494  -1.703  0.00  0.00    +0.253 C 
ATOM     19  O   UNL     1       3.614  -0.282  -1.785  0.00  0.00    -0.270 OA
ATOM     20  N   UNL     1       4.499  -2.181  -2.523  0.00  0.00    -0.281 N 
ATOM     21  H   UNL     1       4.609  -3.138  -2.408  0.00  0.00    +0.155 HD
BRANCH  20  22
ATOM     22  C   UNL     1       5.188  -1.517  -3.536  0.00  0.00    +0.034 A 
ATOM     23  C   UNL     1       6.457  -1.949  -3.911  0.00  0.00    +0.024 A 
ATOM     24  C   UNL     1       7.141  -1.295  -4.911  0.00  0.00    +0.015 A 
ATOM     25  C   UNL     1       6.559  -0.197  -5.550  0.00  0.00    +0.037 A 
ATOM     26  C   UNL     1       5.284   0.234  -5.171  0.00  0.00    +0.015 A 
ATOM     27  C   UNL     1       4.604  -0.427  -4.174  0.00  0.00    +0.024 A 
BRANCH  25  28
ATOM     28  C   UNL     1       7.289   0.507  -6.622  0.00  0.00    +0.242 C 
ATOM     29  O   UNL     1       8.398   0.132  -6.951  0.00  0.00    -0.270 OA
ATOM     30  N   UNL     1       6.727   1.566  -7.238  0.00  0.00    -0.325 N 
ATOM     31  H   UNL     1       5.842   1.866  -6.976  0.00  0.00    +0.145 HD
ATOM     32  H   UNL     1       7.207   2.029  -7.943  0.00  0.00    +0.145 HD
ENDBRANCH  25  28
ENDBRANCH  20  22
ENDBRANCH   2  18
TORSDOF 5
