REMARK  Name = ZINC39466536
REMARK  7 active torsions:
REMARK  status: ('A' for Active; 'I' for Inactive)
REMARK    1  A    between atoms: C_1  and  C_2
REMARK    2  A    between atoms: N_4  and  C_5
REMARK    3  A    between atoms: C_8  and  C_10
REMARK    4  A    between atoms: C_10  and  N_11
REMARK    5  A    between atoms: C_26  and  C_28
REMARK    6  A    between atoms: C_33  and  O_34
REMARK    7  A    between atoms: O_34  and  C_35
REMARK                            x       y       z     vdW  Elec       q    Type
REMARK                         _______ _______ _______ _____ _____    ______ ____
ROOT
ATOM      1  N   UNL     1       0.075  -6.599  -1.412  0.00  0.00    +0.389 N 
ATOM      2  C   UNL     1       1.125  -5.802  -2.067  0.00  0.00    -0.077 C 
ATOM      3  C   UNL     1       1.161  -6.170  -3.548  0.00  0.00    -0.012 C 
ATOM      4  C   UNL     1       1.518  -7.647  -3.729  0.00  0.00    +0.023 C 
ATOM      5  C   UNL     1       0.957  -8.080  -5.108  0.00  0.00    +0.065 C 
ATOM      6  C   UNL     1       1.049  -6.981  -6.120  0.00  0.00    -0.017 C 
ATOM      7  C   UNL     1       0.019  -6.688  -6.909  0.00  0.00    -0.004 C 
ATOM      8  C   UNL     1      -1.256  -7.398  -6.838  0.00  0.00    +0.001 C 
ATOM      9  C   UNL     1      -1.525  -8.220  -5.792  0.00  0.00    +0.023 C 
ATOM     10  C   UNL     1      -0.498  -8.383  -4.805  0.00  0.00    +0.043 C 
ATOM     11  N   UNL     1      -0.647  -8.650  -3.545  0.00  0.00    -0.285 NA
ATOM     12  C   UNL     1       0.643  -8.532  -2.817  0.00  0.00    +0.100 C 
ATOM     13  C   UNL     1       0.484  -8.007  -1.427  0.00  0.00    -0.008 C 
ATOM     14  H   UNL     1      -0.795  -6.493  -1.911  0.00  0.00    -0.080 HD
ENDROOT
BRANCH  13  15
ATOM     15  C   UNL     1      -0.549  -8.826  -0.699  0.00  0.00    -0.017 A 
ATOM     16  C   UNL     1      -1.852  -8.375  -0.610  0.00  0.00    +0.005 A 
ATOM     17  C   UNL     1      -2.801  -9.127   0.059  0.00  0.00    +0.000 A 
ATOM     18  C   UNL     1      -2.448 -10.331   0.640  0.00  0.00    +0.004 A 
ATOM     19  C   UNL     1      -1.147 -10.786   0.554  0.00  0.00    +0.046 A 
ATOM     20  C   UNL     1      -0.194 -10.037  -0.121  0.00  0.00    +0.122 A 
BRANCH  20  21
ATOM     21  O   UNL     1       1.085 -10.485  -0.212  0.00  0.00    -0.495 OA
ATOM     22  C   UNL     1       1.379 -11.740   0.406  0.00  0.00    +0.277 C 
ENDBRANCH  20  21
ENDBRANCH  13  15
BRANCH   1  23
ATOM     23  C   UNL     1      -0.093  -6.148  -0.024  0.00  0.00    -0.035 C 
BRANCH  23  27
ATOM     24  C   UNL     1      -1.137  -2.091   0.002  0.00  0.00    +0.072 A 
ATOM     25  C   UNL     1      -2.183  -2.963   0.001  0.00  0.00    +0.031 A 
ATOM     26  C   UNL     1      -1.919  -4.321  -0.007  0.00  0.00    +0.011 A 
ATOM     27  C   UNL     1      -0.631  -4.741  -0.015  0.00  0.00    -0.025 A 
ATOM     28  S   UNL     1       0.265  -3.196  -0.018  0.00  0.00    -0.080 S 
BRANCH  24  32
ATOM     29  C   UNL     1      -0.018   1.503   0.010  0.00  0.00    +0.109 C 
ATOM     30  C   UNL     1       0.002  -0.004   0.002  0.00  0.00    +0.214 C 
ATOM     31  O   UNL     1       1.061  -0.596  -0.011  0.00  0.00    -0.276 OA
ATOM     32  N   UNL     1      -1.156  -0.694   0.009  0.00  0.00    -0.280 N 
ATOM     33  H   UNL     1      -2.002  -0.220   0.020  0.00  0.00    +0.155 HD
ENDBRANCH  24  32
ENDBRANCH  23  27
ENDBRANCH   1  23
TORSDOF 5
