REMARK  Name = ZINC08969669
REMARK  6 active torsions:
REMARK  status: ('A' for Active; 'I' for Inactive)
REMARK    1  A    between atoms: C_3  and  S_6
REMARK    2  A    between atoms: S_6  and  C_9
REMARK    3  A    between atoms: C_9  and  C_11
REMARK    4  A    between atoms: C_9  and  C_23
REMARK    5  A    between atoms: C_11  and  N_12
REMARK    6  A    between atoms: C_13  and  C_15
REMARK                            x       y       z     vdW  Elec       q    Type
REMARK                         _______ _______ _______ _____ _____    ______ ____
ROOT
ATOM      1  C   UNL     1      -2.893   4.532   1.806  0.00  0.00    +0.183 C 
ENDROOT
BRANCH   1   2
ATOM      2  C   UNL     1      -1.672   5.118   2.466  0.00  0.00    -0.018 A 
ATOM      3  C   UNL     1      -0.483   4.412   2.468  0.00  0.00    +0.009 A 
ATOM      4  C   UNL     1       0.640   4.946   3.072  0.00  0.00    +0.050 A 
ATOM      5  C   UNL     1       0.576   6.191   3.677  0.00  0.00    +0.166 A 
ATOM      6  C   UNL     1      -0.621   6.902   3.675  0.00  0.00    +0.167 A 
ATOM      7  C   UNL     1      -1.741   6.363   3.063  0.00  0.00    +0.055 A 
ATOM      8  O   UNL     1      -0.427   8.086   4.326  0.00  0.00    -0.453 OA
ATOM      9  C   UNL     1       1.001   8.271   4.368  0.00  0.00    +0.466 C 
ATOM     10  O   UNL     1       1.521   6.929   4.330  0.00  0.00    -0.453 OA
ENDBRANCH   1   2
BRANCH   1  11
ATOM     11  S   UNL     1      -2.551   4.243   0.049  0.00  0.00    +0.011 S 
ATOM     12  O   UNL     1      -2.046   5.427  -0.553  0.00  0.00    -0.168 OA
ATOM     13  O   UNL     1      -3.625   3.528  -0.548  0.00  0.00    -0.168 OA
BRANCH  11  16
ATOM     14  C   UNL     1      -0.013   1.076   0.008  0.00  0.00    +0.009 A 
ATOM     15  C   UNL     1      -1.213   1.761   0.017  0.00  0.00    +0.035 A 
ATOM     16  C   UNL     1      -1.196   3.116   0.030  0.00  0.00    +0.126 A 
ATOM     17  S   UNL     1       0.555   3.464   0.015  0.00  0.00    -0.078 S 
ATOM     18  C   UNL     1       1.146   1.780   0.001  0.00  0.00    +0.047 A 
ENDBRANCH  11  16
ENDBRANCH   1  11
BRANCH   1  19
ATOM     19  C   UNL     1      -3.251   3.206   2.481  0.00  0.00    +0.136 C 
BRANCH  19  20
ATOM     20  N   UNL     1      -4.438   2.636   1.840  0.00  0.00    -0.309 N 
ATOM     21  C   UNL     1      -4.939   1.461   2.271  0.00  0.00    +0.244 C 
ATOM     22  O   UNL     1      -4.405   0.875   3.193  0.00  0.00    -0.270 OA
ATOM     23  H   UNL     1      -4.864   3.104   1.104  0.00  0.00    +0.149 HD
BRANCH  21  24
ATOM     24  C   UNL     1      -6.136   0.886   1.624  0.00  0.00    +0.038 A 
ATOM     25  C   UNL     1      -6.755   1.560   0.569  0.00  0.00    +0.014 A 
ATOM     26  C   UNL     1      -7.869   1.017  -0.034  0.00  0.00    +0.022 A 
ATOM     27  C   UNL     1      -8.382  -0.190   0.411  0.00  0.00    +0.059 A 
ATOM     28  C   UNL     1      -7.777  -0.862   1.461  0.00  0.00    +0.060 A 
ATOM     29  C   UNL     1      -6.657  -0.330   2.069  0.00  0.00    +0.034 A 
ATOM     30 CL   UNL     1      -8.426  -2.374   2.012  0.00  0.00    -0.082 Cl
ATOM     31 CL   UNL     1      -9.789  -0.865  -0.350  0.00  0.00    -0.082 Cl
ENDBRANCH  21  24
ENDBRANCH  19  20
ENDBRANCH   1  19
TORSDOF 6
