REMARK  Name = ZINC40730117
REMARK  6 active torsions:
REMARK  status: ('A' for Active; 'I' for Inactive)
REMARK    1  A    between atoms: C_4  and  C_7
REMARK    2  A    between atoms: C_7  and  C_8
REMARK    3  A    between atoms: C_7  and  N_14
REMARK    4  A    between atoms: C_21  and  N_35
REMARK    5  A    between atoms: C_22  and  N_26
REMARK    6  A    between atoms: C_29  and  C_32
REMARK                            x       y       z     vdW  Elec       q    Type
REMARK                         _______ _______ _______ _____ _____    ______ ____
ROOT
ATOM      1  N   UNL     1       3.586  -1.998  -0.794  0.00  0.00    -0.289 NA
ATOM      2  C   UNL     1       2.554  -2.823  -0.151  0.00  0.00    +0.104 C 
ATOM      3  C   UNL     1       2.277  -4.056  -1.017  0.00  0.00    +0.122 C 
ATOM      4  N   UNL     1       3.553  -4.743  -1.272  0.00  0.00    -0.311 N 
ATOM      5  C   UNL     1       4.679  -3.951  -1.789  0.00  0.00    +0.122 C 
ATOM      6  C   UNL     1       4.861  -2.721  -0.893  0.00  0.00    +0.104 C 
ATOM      7  C   UNL     1       3.689  -6.105  -1.032  0.00  0.00    +0.147 A 
ATOM      8  C   UNL     1       3.322  -7.037  -2.005  0.00  0.00    +0.106 A 
ATOM      9  C   UNL     1       3.480  -8.392  -1.712  0.00  0.00    +0.147 A 
ATOM     10  N   UNL     1       3.973  -8.743  -0.526  0.00  0.00    -0.219 NA
ATOM     11  C   UNL     1       4.307  -7.831   0.364  0.00  0.00    +0.225 A 
ATOM     12  N   UNL     1       4.178  -6.541   0.126  0.00  0.00    -0.219 NA
ENDROOT
BRANCH   9  13
ATOM     13  N   UNL     1       3.130  -9.361  -2.645  0.00  0.00    -0.314 N 
ATOM     14  C   UNL     1       4.135  -9.919  -3.559  0.00  0.00    +0.107 C 
ATOM     15  C   UNL     1       4.114 -11.447  -3.443  0.00  0.00    +0.034 C 
ATOM     16  C   UNL     1       2.692 -11.954  -3.688  0.00  0.00    +0.105 C 
ATOM     17  C   UNL     1       1.752 -11.375  -2.628  0.00  0.00    +0.034 C 
ATOM     18  C   UNL     1       1.747  -9.852  -2.731  0.00  0.00    +0.107 C 
BRANCH  16  19
ATOM     19  C   UNL     1       2.674 -13.458  -3.608  0.00  0.00    +0.359 C 
ATOM     20  O   UNL     1       1.669 -14.037  -3.231  0.00  0.00    -0.246 OA
ATOM     21  O   UNL     1       3.664 -14.097  -3.920  0.00  0.00    -0.246 OA
ENDBRANCH  16  19
ENDBRANCH   9  13
BRANCH   8  22
ATOM     22  N   UNL     1       2.806  -6.622  -3.244  0.00  0.00    -0.353 N 
ATOM     23  H   UNL     1       2.772  -5.677  -3.463  0.00  0.00    +0.143 HD
ATOM     24  H   UNL     1       2.484  -7.279  -3.880  0.00  0.00    +0.143 HD
ENDBRANCH   8  22
BRANCH   1  25
ATOM     25  C   UNL     1       3.758  -0.723  -0.085  0.00  0.00    +0.117 C 
BRANCH  25  29
ATOM     26  C   UNL     1       6.605   1.688  -2.166  0.00  0.00    +0.000 A 
ATOM     27  C   UNL     1       6.657   1.591  -0.788  0.00  0.00    +0.000 A 
ATOM     28  C   UNL     1       5.735   0.811  -0.115  0.00  0.00    +0.005 A 
ATOM     29  C   UNL     1       4.762   0.128  -0.819  0.00  0.00    -0.026 A 
ATOM     30  C   UNL     1       4.709   0.225  -2.197  0.00  0.00    +0.005 A 
ATOM     31  C   UNL     1       5.631   1.004  -2.871  0.00  0.00    +0.000 A 
ENDBRANCH  25  29
BRANCH  25  32
ATOM     32  C   UNL     1       2.437  -0.001  -0.023  0.00  0.00    -0.026 A 
ATOM     33  C   UNL     1       1.645   0.089  -1.153  0.00  0.00    +0.005 A 
ATOM     34  C   UNL     1       0.433   0.752  -1.096  0.00  0.00    +0.000 A 
ATOM     35  C   UNL     1       0.013   1.324   0.091  0.00  0.00    +0.000 A 
ATOM     36  C   UNL     1       0.804   1.233   1.220  0.00  0.00    +0.000 A 
ATOM     37  C   UNL     1       2.014   0.567   1.165  0.00  0.00    +0.005 A 
ENDBRANCH  25  32
ENDBRANCH   1  25
TORSDOF 6
