REMARK  Name = ZINC26603926
REMARK  7 active torsions:
REMARK  status: ('A' for Active; 'I' for Inactive)
REMARK    1  A    between atoms: C_1  and  C_2
REMARK    2  A    between atoms: C_2  and  N_3
REMARK    3  A    between atoms: N_3  and  C_4
REMARK    4  A    between atoms: C_11  and  C_13
REMARK    5  A    between atoms: C_13  and  N_14
REMARK    6  A    between atoms: C_18  and  C_20
REMARK    7  A    between atoms: N_22  and  C_23
REMARK                            x       y       z     vdW  Elec       q    Type
REMARK                         _______ _______ _______ _____ _____    ______ ____
ROOT
ATOM      1  N   UNL     1      -0.373  -0.021   0.465  0.00  0.00    +0.393 N 
ATOM      2  C   UNL     1       0.170  -0.344   1.802  0.00  0.00    -0.077 C 
ATOM      3  C   UNL     1       0.826  -1.733   1.700  0.00  0.00    -0.020 C 
ATOM      4  C   UNL     1       0.648  -2.157   0.224  0.00  0.00    -0.008 C 
ATOM      5  C   UNL     1       0.440  -0.804  -0.501  0.00  0.00    +0.020 C 
ATOM      6  H   UNL     1      -1.443  -0.268   0.394  0.00  0.00    -0.080 HD
ENDROOT
BRANCH   5   7
ATOM      7  C   UNL     1      -0.314  -1.003  -1.791  0.00  0.00    +0.204 C 
ATOM      8  O   UNL     1      -1.429  -0.544  -1.919  0.00  0.00    -0.277 OA
ATOM      9  N   UNL     1       0.252  -1.691  -2.803  0.00  0.00    -0.286 N 
ATOM     10  H   UNL     1       1.235  -2.164  -2.664  0.00  0.00    +0.155 HD
BRANCH   9  11
ATOM     11  C   UNL     1      -0.412  -1.803  -4.030  0.00  0.00    +0.053 A 
ATOM     12  C   UNL     1      -1.797  -1.889  -4.066  0.00  0.00    +0.044 A 
ATOM     13  C   UNL     1      -2.450  -1.994  -5.280  0.00  0.00    +0.043 A 
ATOM     14  C   UNL     1      -1.724  -2.025  -6.458  0.00  0.00    +0.021 A 
ATOM     15  C   UNL     1      -0.344  -1.945  -6.425  0.00  0.00    +0.023 A 
ATOM     16  C   UNL     1       0.314  -1.835  -5.214  0.00  0.00    +0.062 A 
ATOM     17 CL   UNL     1       2.047  -1.734  -5.174  0.00  0.00    -0.082 Cl
ATOM     18 CL   UNL     1      -4.183  -2.094  -5.327  0.00  0.00    -0.083 Cl
ENDBRANCH   9  11
ENDBRANCH   5   7
BRANCH   1  19
ATOM     19  C   UNL     1      -0.276   1.418   0.190  0.00  0.00    +0.020 C 
BRANCH  19  21
ATOM     20  N   UNL     1      -1.330   3.505   1.000  0.00  0.00    -0.273 N 
ATOM     21  C   UNL     1      -1.184   2.171   1.128  0.00  0.00    +0.203 C 
ATOM     22  O   UNL     1      -1.784   1.577   1.999  0.00  0.00    -0.277 OA
BRANCH  20  23
ATOM     23  C   UNL     1      -2.091   4.219   1.933  0.00  0.00    +0.036 A 
ATOM     24  C   UNL     1      -3.414   3.868   2.165  0.00  0.00    +0.026 A 
ATOM     25  C   UNL     1      -4.162   4.571   3.090  0.00  0.00    +0.040 A 
ATOM     26  C   UNL     1      -3.596   5.631   3.777  0.00  0.00    +0.124 A 
ATOM     27  C   UNL     1      -2.278   5.986   3.543  0.00  0.00    +0.040 A 
ATOM     28  C   UNL     1      -1.526   5.283   2.623  0.00  0.00    +0.026 A 
ATOM     29  F   UNL     1      -4.331   6.320   4.678  0.00  0.00    -0.205 F 
ENDBRANCH  20  23
BRANCH  20  31
ATOM     30  C   UNL     1      -1.649   4.245  -1.310  0.00  0.00    +0.025 C 
ATOM     31  C   UNL     1      -0.691   4.207  -0.117  0.00  0.00    +0.110 C 
ENDBRANCH  20  31
ENDBRANCH  19  21
ENDBRANCH   1  19
TORSDOF 6
