REMARK  Name = ZINC51036125
REMARK  7 active torsions:
REMARK  status: ('A' for Active; 'I' for Inactive)
REMARK    1  A    between atoms: C_1  and  C_2
REMARK    2  A    between atoms: C_2  and  C_3
REMARK    3  A    between atoms: C_3  and  C_5
REMARK    4  A    between atoms: C_3  and  N_24
REMARK    5  A    between atoms: C_5  and  C_7
REMARK    6  A    between atoms: C_5  and  S_13
REMARK    7  A    between atoms: S_13  and  C_14
REMARK                            x       y       z     vdW  Elec       q    Type
REMARK                         _______ _______ _______ _____ _____    ______ ____
ROOT
ATOM      1  C   UNL     1      -1.435  -2.040  -0.253  0.00  0.00    +0.075 C 
ENDROOT
BRANCH   1   2
ATOM      2  C   UNL     1      -2.897  -2.355  -0.444  0.00  0.00    +0.003 A 
ATOM      3  C   UNL     1      -3.674  -3.240   0.226  0.00  0.00    +0.013 A 
ATOM      4  C   UNL     1      -5.005  -3.363  -0.124  0.00  0.00    +0.023 A 
ATOM      5  C   UNL     1      -5.495  -2.593  -1.127  0.00  0.00    +0.055 A 
ATOM      6  S   UNL     1      -4.055  -1.651  -1.606  0.00  0.00    -0.085 S 
ATOM      7 BR   UNL     1      -7.248  -2.528  -1.832  0.00  0.00    -0.043 Br
ENDBRANCH   1   2
BRANCH   1   8
ATOM      8  C   UNL     1      -1.274  -0.563   0.112  0.00  0.00    -0.057 C 
BRANCH   8   9
ATOM      9  N   UNL     1      -2.062  -0.269   1.317  0.00  0.00    +0.381 N 
ATOM     10  H   UNL     1      -1.956   0.705   1.558  0.00  0.00    -0.090 HD
ATOM     11  H   UNL     1      -3.035  -0.467   1.139  0.00  0.00    -0.090 HD
ATOM     12  H   UNL     1      -1.736  -0.842   2.080  0.00  0.00    -0.090 HD
ENDBRANCH   8   9
BRANCH   8  14
ATOM     13  C   UNL     1       0.381   1.239   0.616  0.00  0.00    +0.002 C 
ATOM     14  C   UNL     1       0.201  -0.262   0.382  0.00  0.00    -0.018 C 
ENDBRANCH   8  14
ENDBRANCH   1   8
BRANCH   1  15
ATOM     15  S   UNL     1      -0.537  -2.384  -1.792  0.00  0.00    -0.097 S 
BRANCH  15  16
ATOM     16  C   UNL     1      -0.611  -4.137  -1.946  0.00  0.00    +0.126 A 
ATOM     17  C   UNL     1      -0.112  -4.776  -3.084  0.00  0.00    +0.117 A 
ATOM     18  C   UNL     1      -0.193  -6.175  -3.160  0.00  0.00    +0.182 A 
ATOM     19  N   UNL     1       0.350  -6.534  -4.339  0.00  0.00    -0.216 NA
ATOM     20  H   UNL     1       0.694  -3.449  -4.505  0.00  0.00    +0.167 HD
ATOM     21  C   UNL     1       0.753  -5.473  -4.981  0.00  0.00    +0.199 A 
ATOM     22  N   UNL     1       0.492  -4.363  -4.253  0.00  0.00    -0.341 N 
ATOM     23  N   UNL     1      -0.746  -6.842  -2.142  0.00  0.00    -0.214 NA
ATOM     24  C   UNL     1      -1.203  -6.199  -1.091  0.00  0.00    +0.224 A 
ATOM     25  N   UNL     1      -1.140  -4.884  -0.980  0.00  0.00    -0.227 NA
ENDBRANCH  15  16
ENDBRANCH   1  15
TORSDOF 6
