REMARK  Name = ZINC43465457
REMARK  12 active torsions:
REMARK  status: ('A' for Active; 'I' for Inactive)
REMARK    1  A    between atoms: C_1  and  C_2
REMARK    2  A    between atoms: C_4  and  O_38
REMARK    3  A    between atoms: C_6  and  O_37
REMARK    4  A    between atoms: C_8  and  O_36
REMARK    5  A    between atoms: C_10  and  O_13
REMARK    6  A    between atoms: O_13  and  C_14
REMARK    7  A    between atoms: C_18  and  O_35
REMARK    8  A    between atoms: C_20  and  O_34
REMARK    9  A    between atoms: C_24  and  C_25
REMARK   10  A    between atoms: C_27  and  O_33
REMARK   11  A    between atoms: C_28  and  O_32
REMARK   12  A    between atoms: C_29  and  O_31
REMARK                            x       y       z     vdW  Elec       q    Type
REMARK                         _______ _______ _______ _____ _____    ______ ____
ROOT
ATOM      1  C   UNL     1       2.870  -2.343   0.229  0.00  0.00    +0.214 A 
ATOM      2  C   UNL     1       3.688  -2.732  -0.864  0.00  0.00    +0.238 A 
ATOM      3  O   UNL     1       3.283  -3.508  -1.715  0.00  0.00    -0.283 OA
ATOM      4  C   UNL     1       5.043  -2.162  -0.931  0.00  0.00    +0.109 A 
ATOM      5  C   UNL     1       5.918  -2.489  -1.976  0.00  0.00    +0.135 A 
ATOM      6  C   UNL     1       7.182  -1.933  -2.004  0.00  0.00    +0.091 A 
ATOM      7  C   UNL     1       7.582  -1.054  -1.002  0.00  0.00    +0.124 A 
ATOM      8  C   UNL     1       6.722  -0.725   0.033  0.00  0.00    +0.092 A 
ATOM      9  C   UNL     1       5.449  -1.273   0.079  0.00  0.00    +0.147 A 
ATOM     10  O   UNL     1       4.600  -0.963   1.081  0.00  0.00    -0.451 OA
ATOM     11  C   UNL     1       3.357  -1.470   1.154  0.00  0.00    +0.181 A 
ENDROOT
BRANCH  11  12
ATOM     12  C   UNL     1       2.493  -1.072   2.280  0.00  0.00    +0.028 A 
ATOM     13  C   UNL     1       2.990  -1.091   3.586  0.00  0.00    +0.061 A 
ATOM     14  C   UNL     1       2.177  -0.717   4.639  0.00  0.00    +0.163 A 
ATOM     15  C   UNL     1       0.863  -0.323   4.401  0.00  0.00    +0.201 A 
ATOM     16  C   UNL     1       0.365  -0.304   3.101  0.00  0.00    +0.163 A 
ATOM     17  C   UNL     1       1.175  -0.670   2.043  0.00  0.00    +0.061 A 
BRANCH  16  18
ATOM     18  O   UNL     1      -0.919   0.082   2.872  0.00  0.00    -0.503 OA
ATOM     19  H   UNL     1      -1.023   1.030   2.715  0.00  0.00    +0.292 HD
ENDBRANCH  16  18
BRANCH  15  20
ATOM     20  O   UNL     1       0.066   0.044   5.439  0.00  0.00    -0.501 OA
ATOM     21  H   UNL     1       0.103   0.988   5.649  0.00  0.00    +0.292 HD
ENDBRANCH  15  20
BRANCH  14  22
ATOM     22  O   UNL     1       2.660  -0.735   5.910  0.00  0.00    -0.503 OA
ATOM     23  H   UNL     1       3.131   0.071   6.164  0.00  0.00    +0.292 HD
ENDBRANCH  14  22
ENDBRANCH  11  12
BRANCH   7  24
ATOM     24  O   UNL     1       8.827  -0.514  -1.040  0.00  0.00    -0.507 OA
ATOM     25  H   UNL     1       8.879   0.322  -1.523  0.00  0.00    +0.292 HD
ENDBRANCH   7  24
BRANCH   5  26
ATOM     26  O   UNL     1       5.526  -3.347  -2.952  0.00  0.00    -0.506 OA
ATOM     27  H   UNL     1       5.103  -2.917  -3.707  0.00  0.00    +0.292 HD
ENDBRANCH   5  26
BRANCH   1  28
ATOM     28  O   UNL     1       1.606  -2.835   0.348  0.00  0.00    -0.453 OA
BRANCH  28  34
ATOM     29  C   UNL     1       1.597  -4.364   4.256  0.00  0.00    +0.041 C 
ATOM     30  C   UNL     1       1.085  -3.942   2.877  0.00  0.00    +0.150 C 
ATOM     31  C   UNL     1      -0.386  -4.340   2.735  0.00  0.00    +0.174 C 
ATOM     32  C   UNL     1      -0.874  -3.968   1.331  0.00  0.00    +0.180 C 
ATOM     33  C   UNL     1       0.018  -4.657   0.294  0.00  0.00    +0.214 C 
ATOM     34  C   UNL     1       1.474  -4.246   0.530  0.00  0.00    +0.339 C 
ATOM     35  O   UNL     1       1.854  -4.592   1.863  0.00  0.00    -0.334 OA
BRANCH  33  36
ATOM     36  O   UNL     1      -0.384  -4.260  -1.019  0.00  0.00    -0.383 OA
ATOM     37  H   UNL     1       0.139  -4.659  -1.728  0.00  0.00    +0.210 HD
ENDBRANCH  33  36
BRANCH  32  38
ATOM     38  O   UNL     1      -2.226  -4.401   1.165  0.00  0.00    -0.386 OA
ATOM     39  H   UNL     1      -2.600  -4.197   0.297  0.00  0.00    +0.210 HD
ENDBRANCH  32  38
BRANCH  31  40
ATOM     40  O   UNL     1      -1.165  -3.647   3.712  0.00  0.00    -0.387 OA
ATOM     41  H   UNL     1      -0.907  -3.833   4.625  0.00  0.00    +0.210 HD
ENDBRANCH  31  40
ENDBRANCH  28  34
ENDBRANCH   1  28
TORSDOF 11
