REMARK  Name = ZINC52842555
REMARK  3 active torsions:
REMARK  status: ('A' for Active; 'I' for Inactive)
REMARK    1  A    between atoms: C_6  and  N_7
REMARK    2  A    between atoms: C_9  and  C_19
REMARK    3  A    between atoms: N_10  and  C_11
REMARK                            x       y       z     vdW  Elec       q    Type
REMARK                         _______ _______ _______ _____ _____    ______ ____
ROOT
ATOM      1  C   UNL     1      -0.017   1.389   0.010  0.00  0.00    +0.025 A 
ATOM      2  C   UNL     1       1.162   2.102   0.002  0.00  0.00    +0.030 A 
ATOM      3  C   UNL     1       2.377   1.432  -0.013  0.00  0.00    +0.074 A 
ATOM      4  C   UNL     1       2.405   0.027  -0.021  0.00  0.00    +0.091 A 
ATOM      5  C   UNL     1       1.204  -0.687  -0.013  0.00  0.00    +0.052 A 
ATOM      6  C   UNL     1       0.002  -0.004   0.002  0.00  0.00    +0.027 A 
ATOM      7  N   UNL     1       3.712  -0.344  -0.036  0.00  0.00    -0.232 NA
ATOM      8  C   UNL     1       4.469   0.715  -0.037  0.00  0.00    +0.118 A 
ATOM      9  N   UNL     1       3.700   1.839  -0.024  0.00  0.00    -0.295 N 
ENDROOT
BRANCH   9  10
ATOM     10  C   UNL     1       4.162   3.163  -0.022  0.00  0.00    +0.062 A 
ATOM     11  C   UNL     1       4.409   3.812   1.181  0.00  0.00    +0.030 A 
ATOM     12  C   UNL     1       4.865   5.115   1.180  0.00  0.00    +0.040 A 
ATOM     13  C   UNL     1       5.075   5.777  -0.018  0.00  0.00    +0.125 A 
ATOM     14  C   UNL     1       4.830   5.133  -1.219  0.00  0.00    +0.055 A 
ATOM     15  C   UNL     1       4.380   3.826  -1.223  0.00  0.00    +0.044 A 
ATOM     16 BR   UNL     1       4.053   2.943  -2.863  0.00  0.00    -0.048 Br
ATOM     17  F   UNL     1       5.520   7.053  -0.016  0.00  0.00    -0.205 F 
ENDBRANCH   9  10
BRANCH   6  18
ATOM     18  N   UNL     1      -1.202  -0.716   0.010  0.00  0.00    -0.358 N 
ATOM     19  H   UNL     1      -2.047  -0.240   0.020  0.00  0.00    +0.142 HD
ATOM     20  H   UNL     1      -1.192  -1.686   0.004  0.00  0.00    +0.142 HD
ENDBRANCH   6  18
BRANCH   8  21
ATOM     21  C   UNL     1       5.975   0.700  -0.052  0.00  0.00    +0.056 C 
ATOM     22  C   UNL     1       6.670  -0.651   0.138  0.00  0.00    +0.012 C 
ATOM     23  C   UNL     1       6.664   0.020  -1.237  0.00  0.00    +0.012 C 
ENDBRANCH   8  21
TORSDOF 3
