REMARK  Name = ZINC20212452
REMARK  10 active torsions:
REMARK  status: ('A' for Active; 'I' for Inactive)
REMARK    1  A    between atoms: C_1  and  C_2
REMARK    2  A    between atoms: C_3  and  C_8
REMARK    3  A    between atoms: C_5  and  C_7
REMARK    4  A    between atoms: C_8  and  N_9
REMARK    5  A    between atoms: C_13  and  C_16
REMARK    6  A    between atoms: C_16  and  N_17
REMARK    7  A    between atoms: C_19  and  C_22
REMARK    8  A    between atoms: C_22  and  C_23
REMARK    9  A    between atoms: C_22  and  C_24
REMARK   10  A    between atoms: C_22  and  O_25
REMARK                            x       y       z     vdW  Elec       q    Type
REMARK                         _______ _______ _______ _____ _____    ______ ____
ROOT
ATOM      1  N   UNL     1       0.222   1.609   0.007  0.00  0.00    +0.383 N 
ATOM      2  C   UNL     1       0.282   0.160  -0.223  0.00  0.00    -0.078 C 
ATOM      3  C   UNL     1       1.137  -0.127  -1.459  0.00  0.00    -0.018 C 
ATOM      4  C   UNL     1       2.545   0.433  -1.241  0.00  0.00    +0.002 C 
ATOM      5  C   UNL     1       2.450   1.934  -0.956  0.00  0.00    -0.006 C 
ATOM      6  C   UNL     1       1.557   2.161   0.266  0.00  0.00    -0.073 C 
ATOM      7  H   UNL     1      -0.163   2.078  -0.911  0.00  0.00    -0.081 HD
ENDROOT
BRANCH   1   8
ATOM      8  C   UNL     1      -0.703   1.930   1.102  0.00  0.00    -0.034 C 
BRANCH   8  11
ATOM      9  C   UNL     1      -1.217  -0.725   2.607  0.00  0.00    +0.066 C 
ATOM     10  C   UNL     1      -0.288   0.347   3.115  0.00  0.00    +0.047 A 
ATOM     11  C   UNL     1      -0.100   1.494   2.413  0.00  0.00    -0.004 A 
ATOM     12  S   UNL     1       1.055   2.345   3.477  0.00  0.00    -0.079 S 
ATOM     13  C   UNL     1       1.171   1.123   4.706  0.00  0.00    +0.076 A 
ATOM     14  N   UNL     1       0.364   0.194   4.248  0.00  0.00    -0.249 NA
ATOM     15  C   UNL     1       1.988   1.128   5.972  0.00  0.00    +0.073 C 
ENDBRANCH   8  11
ENDBRANCH   1   8
BRANCH   5  16
ATOM     16  C   UNL     1       3.848   2.491  -0.678  0.00  0.00    +0.147 C 
BRANCH  16  17
ATOM     17  N   UNL     1       4.668   2.377  -1.887  0.00  0.00    -0.251 N 
ATOM     18  C   UNL     1       5.325   3.390  -2.498  0.00  0.00    +0.136 A 
ATOM     19  C   UNL     1       5.949   2.844  -3.567  0.00  0.00    +0.114 A 
ATOM     20  N   UNL     1       5.649   1.541  -3.558  0.00  0.00    -0.132 NA
ATOM     21  N   UNL     1       4.893   1.295  -2.547  0.00  0.00    -0.065 NA
BRANCH  19  22
ATOM     22  C   UNL     1       6.814   3.563  -4.571  0.00  0.00    +0.105 C 
ATOM     23  C   UNL     1       7.319   2.566  -5.615  0.00  0.00    +0.048 C 
ATOM     24  C   UNL     1       5.992   4.654  -5.262  0.00  0.00    +0.048 C 
BRANCH  22  25
ATOM     25  O   UNL     1       7.927   4.158  -3.901  0.00  0.00    -0.383 OA
ATOM     26  H   UNL     1       8.672   4.729  -4.474  0.00  0.00    +0.211 HD
ENDBRANCH  22  25
ENDBRANCH  19  22
ENDBRANCH  16  17
ENDBRANCH   5  16
TORSDOF 6
