REMARK  Name = ZINC12367135
REMARK  4 active torsions:
REMARK  status: ('A' for Active; 'I' for Inactive)
REMARK    1  A    between atoms: C_1  and  S_2
REMARK    2  A    between atoms: S_2  and  C_3
REMARK    3  A    between atoms: C_6  and  C_8
REMARK    4  A    between atoms: N_13  and  C_14
REMARK                            x       y       z     vdW  Elec       q    Type
REMARK                         _______ _______ _______ _____ _____    ______ ____
ROOT
ATOM      1  C   UNL     1      -5.652  -1.107  -0.183  0.00  0.00    +0.258 C 
ATOM      2  O   UNL     1      -6.757  -1.210   0.318  0.00  0.00    -0.269 OA
ATOM      3  N   UNL     1      -5.381  -1.724  -1.350  0.00  0.00    -0.235 N 
ATOM      4  C   UNL     1      -6.333  -2.457  -1.962  0.00  0.00    +0.310 C 
ATOM      5  O   UNL     1      -7.436  -2.560  -1.461  0.00  0.00    -0.252 OA
ATOM      6  N   UNL     1      -6.062  -3.075  -3.128  0.00  0.00    -0.269 N 
ATOM      7  H   UNL     1      -4.501  -1.642  -1.749  0.00  0.00    +0.159 HD
ATOM      8  H   UNL     1      -5.205  -2.939  -3.562  0.00  0.00    +0.156 HD
ENDROOT
BRANCH   1  12
ATOM      9  C   UNL     1      -2.451   0.958   1.242  0.00  0.00    +0.057 A 
ATOM     10  C   UNL     1      -3.567   1.026   2.073  0.00  0.00    +0.045 A 
ATOM     11  C   UNL     1      -4.742   0.365   1.653  0.00  0.00    -0.016 A 
ATOM     12  C   UNL     1      -4.651  -0.337   0.460  0.00  0.00    +0.079 A 
ATOM     13  S   UNL     1      -2.979  -0.039  -0.070  0.00  0.00    -0.076 S 
ATOM     14  C   UNL     1      -6.030   0.425   2.461  0.00  0.00    +0.042 C 
ATOM     15  C   UNL     1      -5.750   0.526   3.959  0.00  0.00    +0.045 C 
ATOM     16  C   UNL     1      -4.660   1.516   4.231  0.00  0.00    +0.020 A 
ATOM     17  C   UNL     1      -3.611   1.749   3.368  0.00  0.00    +0.172 A 
ATOM     18  O   UNL     1      -2.837   2.655   3.939  0.00  0.00    -0.354 OA
ATOM     19  N   UNL     1      -3.299   3.005   5.011  0.00  0.00    -0.086 NA
ATOM     20  C   UNL     1      -4.413   2.376   5.296  0.00  0.00    +0.161 A 
BRANCH   9  22
ATOM     21  C   UNL     1      -0.027   1.125  -0.017  0.00  0.00    +0.090 C 
ATOM     22  S   UNL     1      -0.872   1.704   1.475  0.00  0.00    -0.121 S 
ENDBRANCH   9  22
ENDBRANCH   1  12
BRANCH   6  23
ATOM     23  C   UNL     1      -7.017  -3.913  -3.715  0.00  0.00    +0.035 A 
ATOM     24  C   UNL     1      -6.615  -5.046  -4.410  0.00  0.00    +0.025 A 
ATOM     25  C   UNL     1      -7.560  -5.875  -4.983  0.00  0.00    +0.022 A 
ATOM     26  C   UNL     1      -8.906  -5.571  -4.874  0.00  0.00    +0.041 A 
ATOM     27  C   UNL     1      -9.309  -4.439  -4.187  0.00  0.00    +0.022 A 
ATOM     28  C   UNL     1      -8.368  -3.610  -3.607  0.00  0.00    +0.025 A 
ATOM     29 CL   UNL     1     -10.091  -6.610  -5.601  0.00  0.00    -0.084 Cl
ENDBRANCH   6  23
TORSDOF 3
