REMARK  Name = ZINC05028022
REMARK  5 active torsions:
REMARK  status: ('A' for Active; 'I' for Inactive)
REMARK    1  A    between atoms: C_1  and  C_2
REMARK    2  A    between atoms: C_9  and  C_12
REMARK    3  A    between atoms: C_12  and  C_23
REMARK    4  A    between atoms: C_13  and  C_14
REMARK    5  A    between atoms: C_17  and  O_21
REMARK                            x       y       z     vdW  Elec       q    Type
REMARK                         _______ _______ _______ _____ _____    ______ ____
ROOT
ATOM      1  C   UNL     1      -1.312   3.476   0.130  0.00  0.00    +0.094 C 
ATOM      2  C   UNL     1      -1.324   2.163  -0.244  0.00  0.00    +0.030 C 
ENDROOT
BRANCH   1  11
ATOM      3  C   UNL     1       5.667   5.860  -0.157  0.00  0.00    +0.044 C 
ATOM      4  C   UNL     1       4.167   5.863  -0.015  0.00  0.00    -0.048 A 
ATOM      5  C   UNL     1       3.503   7.055   0.235  0.00  0.00    +0.005 A 
ATOM      6  C   UNL     1       2.131   7.077   0.369  0.00  0.00    +0.028 A 
ATOM      7  C   UNL     1       1.409   5.897   0.252  0.00  0.00    +0.066 A 
ATOM      8  C   UNL     1       2.082   4.688  -0.001  0.00  0.00    +0.090 A 
ATOM      9  C   UNL     1       3.475   4.691  -0.133  0.00  0.00    +0.033 A 
ATOM     10  N   UNL     1       1.144   3.712  -0.060  0.00  0.00    -0.227 NA
ATOM     11  C   UNL     1      -0.046   4.232   0.129  0.00  0.00    +0.150 A 
ATOM     12  N   UNL     1       0.066   5.583   0.330  0.00  0.00    -0.337 N 
ATOM     13  H   UNL     1      -0.684   6.222   0.501  0.00  0.00    +0.167 HD
ENDBRANCH   1  11
BRANCH   2  14
ATOM     14  C   UNL     1      -0.148   1.576  -0.894  0.00  0.00    -0.021 A 
ATOM     15  C   UNL     1       0.513   2.274  -1.914  0.00  0.00    +0.031 A 
ATOM     16  C   UNL     1       1.620   1.720  -2.517  0.00  0.00    +0.084 A 
ATOM     17  C   UNL     1       2.082   0.470  -2.116  0.00  0.00    +0.149 A 
ATOM     18  C   UNL     1       1.430  -0.226  -1.105  0.00  0.00    +0.061 A 
ATOM     19  C   UNL     1       0.321   0.318  -0.494  0.00  0.00    +0.027 A 
ATOM     20 BR   UNL     1       2.065  -1.924  -0.566  0.00  0.00    -0.046 Br
ATOM     21 CL   UNL     1       2.441   2.582  -3.781  0.00  0.00    -0.080 Cl
BRANCH  17  22
ATOM     22  O   UNL     1       3.174  -0.071  -2.714  0.00  0.00    -0.504 OA
ATOM     23  H   UNL     1       4.011   0.157  -2.287  0.00  0.00    +0.292 HD
ENDBRANCH  17  22
ENDBRANCH   2  14
BRANCH   1  24
ATOM     24  C   UNL     1      -2.530   4.119   0.524  0.00  0.00    +0.103 C 
ATOM     25  N   UNL     1      -3.495   4.630   0.836  0.00  0.00    -0.191 NA
ENDBRANCH   1  24
TORSDOF 4
