REMARK  Name = ZINC59038514
REMARK  8 active torsions:
REMARK  status: ('A' for Active; 'I' for Inactive)
REMARK    1  A    between atoms: C_1  and  C_2
REMARK    2  A    between atoms: C_2  and  O_3
REMARK    3  A    between atoms: O_3  and  C_4
REMARK    4  A    between atoms: C_11  and  S_13
REMARK    5  A    between atoms: S_13  and  C_14
REMARK    6  A    between atoms: C_14  and  C_15
REMARK    7  A    between atoms: N_17  and  C_18
REMARK    8  A    between atoms: C_22  and  C_24
REMARK                            x       y       z     vdW  Elec       q    Type
REMARK                         _______ _______ _______ _____ _____    ______ ____
ROOT
ATOM      1  C   UNL     1       1.899  -8.648   2.989  0.00  0.00    +0.173 C 
ENDROOT
BRANCH   1   2
ATOM      2  C   UNL     1       2.310  -9.946   3.635  0.00  0.00    +0.227 C 
ATOM      3  O   UNL     1       2.929  -9.935   4.677  0.00  0.00    -0.275 OA
ATOM      4  N   UNL     1       1.988 -11.119   3.054  0.00  0.00    -0.285 N 
ATOM      5  H   UNL     1       1.436 -11.130   2.256  0.00  0.00    +0.155 HD
BRANCH   4   6
ATOM      6  C   UNL     1       2.452 -12.321   3.601  0.00  0.00    +0.034 A 
ATOM      7  C   UNL     1       2.796 -13.378   2.765  0.00  0.00    +0.025 A 
ATOM      8  C   UNL     1       3.255 -14.567   3.299  0.00  0.00    +0.022 A 
ATOM      9  C   UNL     1       3.375 -14.715   4.667  0.00  0.00    +0.055 A 
ATOM     10  C   UNL     1       3.032 -13.658   5.516  0.00  0.00    +0.083 A 
ATOM     11  C   UNL     1       2.573 -12.455   4.974  0.00  0.00    +0.040 A 
ATOM     12 CL   UNL     1       3.950 -16.212   5.332  0.00  0.00    -0.083 Cl
BRANCH  10  13
ATOM     13  C   UNL     1       3.158 -13.812   6.977  0.00  0.00    +0.388 C 
ATOM     14  O   UNL     1       2.857 -12.886   7.718  0.00  0.00    -0.241 OA
ATOM     15  O   UNL     1       3.564 -14.865   7.449  0.00  0.00    -0.241 OA
ENDBRANCH  10  13
ENDBRANCH   4   6
ENDBRANCH   1   2
BRANCH   1  16
ATOM     16  S   UNL     1       2.474  -7.259   4.004  0.00  0.00    -0.079 S 
BRANCH  16  24
ATOM     17  C   UNL     1       0.769  -1.826   1.324  0.00  0.00    +0.123 A 
ATOM     18  C   UNL     1       0.218  -2.673   0.367  0.00  0.00    +0.048 A 
ATOM     19  C   UNL     1       0.325  -4.039   0.501  0.00  0.00    +0.033 A 
ATOM     20  C   UNL     1       0.991  -4.580   1.603  0.00  0.00    +0.090 A 
ATOM     21  C   UNL     1       1.546  -3.723   2.567  0.00  0.00    +0.070 A 
ATOM     22  C   UNL     1       1.436  -2.348   2.418  0.00  0.00    +0.073 A 
ATOM     23  N   UNL     1       2.130  -4.540   3.520  0.00  0.00    -0.333 N 
ATOM     24  C   UNL     1       1.923  -5.833   3.127  0.00  0.00    +0.168 A 
ATOM     25  N   UNL     1       1.254  -5.854   2.001  0.00  0.00    -0.222 NA
ATOM     26  H   UNL     1       2.599  -4.250   4.318  0.00  0.00    +0.168 HD
BRANCH  17  27
ATOM     27  O   UNL     1       0.656  -0.478   1.180  0.00  0.00    -0.492 OA
BRANCH  27  29
ATOM     28  C   UNL     1      -0.069   1.524   0.038  0.00  0.00    +0.048 C 
ATOM     29  C   UNL     1      -0.045  -0.005   0.028  0.00  0.00    +0.225 C 
ENDBRANCH  27  29
ENDBRANCH  17  27
ENDBRANCH  16  24
ENDBRANCH   1  16
TORSDOF 7
