REMARK  Name = ZINC63531392
REMARK  9 active torsions:
REMARK  status: ('A' for Active; 'I' for Inactive)
REMARK    1  A    between atoms: C_1  and  O_2
REMARK    2  A    between atoms: O_2  and  C_3
REMARK    3  A    between atoms: C_6  and  C_9
REMARK    4  A    between atoms: C_9  and  N_10
REMARK    5  A    between atoms: C_11  and  C_13
REMARK    6  A    between atoms: C_15  and  S_25
REMARK    7  A    between atoms: C_19  and  O_23
REMARK    8  A    between atoms: O_23  and  C_24
REMARK    9  A    between atoms: S_25  and  C_26
REMARK                            x       y       z     vdW  Elec       q    Type
REMARK                         _______ _______ _______ _____ _____    ______ ____
ROOT
ATOM      1  C   UNL     1       5.632  -3.311  -4.579  0.00  0.00    +0.204 C 
ATOM      2  C   UNL     1       6.104  -4.557  -3.863  0.00  0.00    +0.030 C 
ATOM      3  C   UNL     1       6.920  -5.225  -4.767  0.00  0.00    +0.010 A 
ATOM      4  C   UNL     1       7.644  -6.436  -4.680  0.00  0.00    +0.014 A 
ATOM      5  C   UNL     1       8.375  -6.862  -5.740  0.00  0.00    +0.046 A 
ATOM      6  C   UNL     1       8.431  -6.127  -6.933  0.00  0.00    +0.122 A 
ATOM      7  C   UNL     1       7.756  -4.952  -7.082  0.00  0.00    +0.071 A 
ATOM      8  C   UNL     1       6.975  -4.449  -6.016  0.00  0.00    +0.048 A 
ATOM      9  N   UNL     1       6.240  -3.354  -5.912  0.00  0.00    -0.369 N 
ATOM     10  H   UNL     1       6.123  -2.686  -6.606  0.00  0.00    +0.161 HD
ENDROOT
BRANCH   1  12
ATOM     11  N   UNL     1       3.372  -2.931  -3.649  0.00  0.00    -0.309 N 
ATOM     12  C   UNL     1       4.129  -3.317  -4.694  0.00  0.00    +0.241 C 
ATOM     13  O   UNL     1       3.602  -3.670  -5.728  0.00  0.00    -0.273 OA
ATOM     14  H   UNL     1       3.794  -2.648  -2.822  0.00  0.00    +0.149 HD
BRANCH  11  15
ATOM     15  C   UNL     1       1.911  -2.937  -3.760  0.00  0.00    +0.139 C 
BRANCH  15  19
ATOM     16  C   UNL     1       0.195  -1.598  -0.083  0.00  0.00    +0.120 A 
ATOM     17  C   UNL     1       0.500  -0.684  -1.081  0.00  0.00    +0.046 A 
ATOM     18  C   UNL     1       1.055  -1.119  -2.269  0.00  0.00    +0.009 A 
ATOM     19  C   UNL     1       1.306  -2.465  -2.463  0.00  0.00    -0.030 A 
ATOM     20  C   UNL     1       1.002  -3.378  -1.471  0.00  0.00    +0.009 A 
ATOM     21  C   UNL     1       0.453  -2.947  -0.279  0.00  0.00    +0.046 A 
BRANCH  16  23
ATOM     22  C   UNL     1      -0.590   0.230   1.219  0.00  0.00    +0.277 C 
ATOM     23  O   UNL     1      -0.351  -1.173   1.087  0.00  0.00    -0.495 OA
ENDBRANCH  16  23
ENDBRANCH  15  19
ENDBRANCH  11  15
ENDBRANCH   1  12
BRANCH   6  24
ATOM     24  O   UNL     1       9.176  -6.597  -7.964  0.00  0.00    -0.495 OA
ATOM     25  C   UNL     1       9.865  -7.832  -7.757  0.00  0.00    +0.277 C 
ENDBRANCH   6  24
BRANCH   2  26
ATOM     26  S   UNL     1       5.728  -5.026  -2.316  0.00  0.00    -0.091 S 
BRANCH  26  27
ATOM     27  C   UNL     1       6.522  -3.825  -1.300  0.00  0.00    +0.013 A 
ATOM     28  C   UNL     1       7.357  -2.873  -1.871  0.00  0.00    +0.016 A 
ATOM     29  C   UNL     1       7.978  -1.933  -1.073  0.00  0.00    +0.021 A 
ATOM     30  C   UNL     1       7.769  -1.939   0.295  0.00  0.00    +0.041 A 
ATOM     31  C   UNL     1       6.938  -2.886   0.867  0.00  0.00    +0.021 A 
ATOM     32  C   UNL     1       6.310  -3.825   0.073  0.00  0.00    +0.016 A 
ATOM     33 CL   UNL     1       8.552  -0.756   1.296  0.00  0.00    -0.084 Cl
ENDBRANCH  26  27
ENDBRANCH   2  26
TORSDOF 7
