REMARK  Name = ZINC34657209
REMARK  7 active torsions:
REMARK  status: ('A' for Active; 'I' for Inactive)
REMARK    1  A    between atoms: C_1  and  C_2
REMARK    2  A    between atoms: N_11  and  C_38
REMARK    3  A    between atoms: C_17  and  C_19
REMARK    4  A    between atoms: C_23  and  S_25
REMARK    5  A    between atoms: S_25  and  N_28
REMARK    6  A    between atoms: C_30  and  C_37
REMARK    7  A    between atoms: C_33  and  C_36
REMARK                            x       y       z     vdW  Elec       q    Type
REMARK                         _______ _______ _______ _____ _____    ______ ____
ROOT
ATOM      1  C   UNL     1      -4.130  -0.561  -1.988  0.00  0.00    +0.044 C 
ATOM      2  C   UNL     1      -3.179  -1.648  -1.555  0.00  0.00    -0.050 A 
ATOM      3  C   UNL     1      -2.469  -2.362  -2.502  0.00  0.00    +0.005 A 
ATOM      4  C   UNL     1      -1.596  -3.356  -2.108  0.00  0.00    +0.024 A 
ATOM      5  C   UNL     1      -1.425  -3.645  -0.761  0.00  0.00    +0.040 A 
ATOM      6  C   UNL     1      -2.152  -2.922   0.195  0.00  0.00    -0.023 A 
ATOM      7  C   UNL     1      -3.014  -1.926  -0.211  0.00  0.00    +0.009 A 
ATOM      8  C   UNL     1      -1.764  -3.477   1.522  0.00  0.00    +0.025 C 
ATOM      9  C   UNL     1      -2.804  -3.693   2.594  0.00  0.00    -0.069 C 
ATOM     10  N   UNL     1      -2.097  -4.239   3.772  0.00  0.00    +0.378 N 
ATOM     11  C   UNL     1      -1.399  -5.492   3.488  0.00  0.00    -0.077 C 
ATOM     12  C   UNL     1      -0.404  -5.353   2.318  0.00  0.00    +0.005 C 
ATOM     13  C   UNL     1      -1.235  -4.886   1.136  0.00  0.00    +0.086 C 
ATOM     14  N   UNL     1      -0.590  -4.602  -0.132  0.00  0.00    -0.264 N 
ATOM     15  C   UNL     1       0.554  -5.133  -0.608  0.00  0.00    +0.251 C 
ATOM     16  O   UNL     1       1.197  -5.905   0.077  0.00  0.00    -0.270 OA
ATOM     17  C   UNL     1      -3.075  -4.474   4.843  0.00  0.00    -0.096 C 
ATOM     18  H   UNL     1      -1.425  -3.558   4.092  0.00  0.00    -0.082 HD
ENDROOT
BRANCH  15  19
ATOM     19  C   UNL     1       1.027  -4.776  -1.962  0.00  0.00    +0.039 A 
ATOM     20  C   UNL     1       1.084  -3.438  -2.355  0.00  0.00    +0.013 A 
ATOM     21  C   UNL     1       1.526  -3.111  -3.620  0.00  0.00    +0.003 A 
ATOM     22  C   UNL     1       1.913  -4.107  -4.499  0.00  0.00    +0.028 A 
ATOM     23  C   UNL     1       1.859  -5.436  -4.116  0.00  0.00    +0.106 A 
ATOM     24  C   UNL     1       1.425  -5.776  -2.852  0.00  0.00    +0.041 A 
BRANCH  23  25
ATOM     25  S   UNL     1       2.354  -6.696  -5.244  0.00  0.00    +0.061 S 
ATOM     26  O   UNL     1       1.695  -7.887  -4.836  0.00  0.00    -0.153 OA
ATOM     27  O   UNL     1       2.209  -6.154  -6.549  0.00  0.00    -0.153 OA
BRANCH  25  28
ATOM     28  N   UNL     1       3.974  -6.950  -5.014  0.00  0.00    -0.176 NA
ATOM     29  C   UNL     1       4.968  -6.180  -5.775  0.00  0.00    +0.112 C 
ATOM     30  C   UNL     1       5.944  -5.527  -4.792  0.00  0.00    +0.002 C 
ATOM     31  C   UNL     1       6.544  -6.603  -3.885  0.00  0.00    +0.009 C 
ATOM     32  C   UNL     1       5.428  -7.276  -3.082  0.00  0.00    +0.002 C 
ATOM     33  C   UNL     1       4.446  -7.945  -4.041  0.00  0.00    +0.112 C 
ATOM     34  C   UNL     1       6.033  -8.329  -2.150  0.00  0.00    +0.009 C 
ATOM     35  C   UNL     1       7.064  -4.832  -5.570  0.00  0.00    +0.009 C 
ENDBRANCH  25  28
ENDBRANCH  23  25
ENDBRANCH  15  19
TORSDOF 3
