REMARK  Name = ZINC13683563
REMARK  9 active torsions:
REMARK  status: ('A' for Active; 'I' for Inactive)
REMARK    1  A    between atoms: C_1  and  C_2
REMARK    2  A    between atoms: C_6  and  C_12
REMARK    3  A    between atoms: C_7  and  C_11
REMARK    4  A    between atoms: C_13  and  O_30
REMARK    5  A    between atoms: C_14  and  C_15
REMARK    6  A    between atoms: C_18  and  C_21
REMARK    7  A    between atoms: C_24  and  N_27
REMARK    8  A    between atoms: N_27  and  C_28
REMARK    9  A    between atoms: N_27  and  C_29
REMARK                            x       y       z     vdW  Elec       q    Type
REMARK                         _______ _______ _______ _____ _____    ______ ____
ROOT
ATOM      1  C   UNL     1       0.840   3.107   0.153  0.00  0.00    +0.044 C 
ATOM      2  C   UNL     1       0.859   1.600   0.109  0.00  0.00    -0.035 A 
ATOM      3  C   UNL     1      -0.329   0.903   0.105  0.00  0.00    +0.051 A 
ATOM      4  C   UNL     1      -0.327  -0.486   0.065  0.00  0.00    +0.143 A 
ATOM      5  C   UNL     1       0.896  -1.181   0.027  0.00  0.00    +0.063 A 
ATOM      6  C   UNL     1       0.880  -2.645  -0.015  0.00  0.00    -0.027 A 
ATOM      7  C   UNL     1      -0.324  -3.274  -0.017  0.00  0.00    +0.038 A 
ATOM      8  C   UNL     1      -1.512  -2.514   0.022  0.00  0.00    +0.340 A 
ATOM      9  O   UNL     1      -2.585  -3.091   0.020  0.00  0.00    -0.245 OA
ATOM     10  O   UNL     1      -1.490  -1.173   0.060  0.00  0.00    -0.422 OA
ATOM     11  C   UNL     1      -0.391  -4.779  -0.059  0.00  0.00    +0.051 C 
ATOM     12  C   UNL     1       2.164  -3.432  -0.057  0.00  0.00    +0.045 C 
ATOM     13  C   UNL     1       2.106  -0.474   0.030  0.00  0.00    +0.137 A 
ATOM     14  C   UNL     1       2.082   0.923   0.071  0.00  0.00    +0.043 A 
ENDROOT
BRANCH  14  15
ATOM     15  C   UNL     1       3.346   1.682   0.075  0.00  0.00    +0.072 C 
ATOM     16  N   UNL     1       3.968   2.096  -0.975  0.00  0.00    -0.190 NA
ATOM     17  N   UNL     1       5.144   2.792  -0.703  0.00  0.00    -0.261 N 
ATOM     18  C   UNL     1       5.335   2.852   0.755  0.00  0.00    +0.125 C 
ATOM     19  C   UNL     1       4.109   2.101   1.311  0.00  0.00    +0.086 C 
ATOM     20  H   UNL     1       5.739   3.175  -1.366  0.00  0.00    +0.169 HD
BRANCH  18  21
ATOM     21  C   UNL     1       6.615   2.161   1.150  0.00  0.00    -0.025 A 
ATOM     22  C   UNL     1       6.996   0.995   0.511  0.00  0.00    +0.007 A 
ATOM     23  C   UNL     1       8.171   0.363   0.867  0.00  0.00    +0.023 A 
ATOM     24  C   UNL     1       8.964   0.892   1.877  0.00  0.00    +0.029 A 
ATOM     25  C   UNL     1       8.576   2.060   2.521  0.00  0.00    +0.023 A 
ATOM     26  C   UNL     1       7.402   2.690   2.156  0.00  0.00    +0.007 A 
BRANCH  24  27
ATOM     27  N   UNL     1      10.150   0.252   2.244  0.00  0.00    -0.336 N 
ATOM     28  C   UNL     1      10.923   0.741   3.388  0.00  0.00    +0.129 C 
ATOM     29  C   UNL     1      10.621  -0.909   1.484  0.00  0.00    +0.129 C 
ENDBRANCH  24  27
ENDBRANCH  18  21
ENDBRANCH  14  15
BRANCH  13  30
ATOM     30  O   UNL     1       3.288  -1.139  -0.006  0.00  0.00    -0.505 OA
ATOM     31  H   UNL     1       3.618  -1.306  -0.899  0.00  0.00    +0.292 HD
ENDBRANCH  13  30
TORSDOF 4
