REMARK  Name = ZINC13843469
REMARK  7 active torsions:
REMARK  status: ('A' for Active; 'I' for Inactive)
REMARK    1  A    between atoms: C_1  and  C_2
REMARK    2  A    between atoms: C_7  and  N_8
REMARK    3  A    between atoms: C_9  and  C_11
REMARK    4  A    between atoms: C_11  and  C_12
REMARK    5  A    between atoms: N_16  and  C_30
REMARK    6  A    between atoms: N_18  and  S_19
REMARK    7  A    between atoms: S_19  and  C_22
REMARK                            x       y       z     vdW  Elec       q    Type
REMARK                         _______ _______ _______ _____ _____    ______ ____
ROOT
ATOM      1  C   UNL     1      -0.214  -1.590   6.372  0.00  0.00    +0.149 C 
ATOM      2  C   UNL     1      -0.283  -0.561   7.489  0.00  0.00    +0.239 C 
ATOM      3  O   UNL     1       0.709  -0.021   7.928  0.00  0.00    -0.274 OA
ATOM      4  N   UNL     1      -1.492  -0.292   7.950  0.00  0.00    -0.217 N 
ATOM      5  C   UNL     1      -2.628  -0.905   7.452  0.00  0.00    +0.189 C 
ATOM      6  N   UNL     1      -3.865  -0.728   7.820  0.00  0.00    -0.105 NA
ATOM      7  S   UNL     1      -1.999  -2.000   6.186  0.00  0.00    -0.075 S 
ENDROOT
BRANCH   4   8
ATOM      8  C   UNL     1      -1.628   0.647   8.981  0.00  0.00    +0.043 A 
ATOM      9  C   UNL     1      -1.721   2.000   8.682  0.00  0.00    +0.024 A 
ATOM     10  C   UNL     1      -1.856   2.923   9.700  0.00  0.00    +0.002 A 
ATOM     11  C   UNL     1      -1.897   2.502  11.017  0.00  0.00    +0.000 A 
ATOM     12  C   UNL     1      -1.804   1.155  11.318  0.00  0.00    +0.002 A 
ATOM     13  C   UNL     1      -1.676   0.227  10.304  0.00  0.00    +0.024 A 
ENDBRANCH   4   8
BRANCH   6  14
ATOM     14  S   UNL     1      -4.203  -0.111   9.319  0.00  0.00    +0.101 S 
ATOM     15  O   UNL     1      -3.565  -0.961  10.262  0.00  0.00    -0.146 OA
ATOM     16  O   UNL     1      -3.941   1.285   9.253  0.00  0.00    -0.146 OA
BRANCH  14  17
ATOM     17  C   UNL     1      -5.937  -0.285   9.576  0.00  0.00    +0.113 A 
ATOM     18  C   UNL     1      -6.798   0.723   9.186  0.00  0.00    +0.032 A 
ATOM     19  C   UNL     1      -8.159   0.587   9.386  0.00  0.00    +0.040 A 
ATOM     20  C   UNL     1      -8.659  -0.560   9.978  0.00  0.00    +0.124 A 
ATOM     21  C   UNL     1      -7.796  -1.570  10.368  0.00  0.00    +0.040 A 
ATOM     22  C   UNL     1      -6.436  -1.434  10.162  0.00  0.00    +0.032 A 
ATOM     23  F   UNL     1      -9.989  -0.695  10.175  0.00  0.00    -0.205 F 
ENDBRANCH  14  17
ENDBRANCH   6  14
BRANCH   1  24
ATOM     24  C   UNL     1       0.350  -0.978   5.088  0.00  0.00    +0.120 C 
BRANCH  24  26
ATOM     25  N   UNL     1       0.899  -1.724   2.795  0.00  0.00    -0.285 N 
ATOM     26  C   UNL     1       0.429  -2.037   4.019  0.00  0.00    +0.219 C 
ATOM     27  O   UNL     1       0.069  -3.170   4.259  0.00  0.00    -0.275 OA
ATOM     28  H   UNL     1       1.257  -0.839   2.624  0.00  0.00    +0.155 HD
BRANCH  25  35
ATOM     29  C   UNL     1       0.553  -0.813   0.121  0.00  0.00    +0.045 C 
ATOM     30  C   UNL     1       0.704  -2.276   0.452  0.00  0.00    -0.029 A 
ATOM     31  C   UNL     1       0.681  -3.219  -0.558  0.00  0.00    +0.005 A 
ATOM     32  C   UNL     1       0.820  -4.561  -0.256  0.00  0.00    +0.000 A 
ATOM     33  C   UNL     1       0.981  -4.964   1.057  0.00  0.00    +0.002 A 
ATOM     34  C   UNL     1       1.004  -4.027   2.071  0.00  0.00    +0.023 A 
ATOM     35  C   UNL     1       0.871  -2.677   1.770  0.00  0.00    +0.036 A 
ENDBRANCH  25  35
ENDBRANCH  24  26
ENDBRANCH   1  24
TORSDOF 6
