REMARK  Name = ZINC15162880
REMARK  3 active torsions:
REMARK  status: ('A' for Active; 'I' for Inactive)
REMARK    1  A    between atoms: C_1  and  C_2
REMARK    2  A    between atoms: C_9  and  C_18
REMARK    3  A    between atoms: C_21  and  N_24
REMARK                            x       y       z     vdW  Elec       q    Type
REMARK                         _______ _______ _______ _____ _____    ______ ____
ROOT
ATOM      1  C   UNL     1      -5.045   1.982   3.205  0.00  0.00    +0.045 C 
ATOM      2  C   UNL     1      -5.529   1.158   2.040  0.00  0.00    -0.029 A 
ATOM      3  C   UNL     1      -6.765   0.549   2.096  0.00  0.00    +0.005 A 
ATOM      4  C   UNL     1      -7.208  -0.206   1.026  0.00  0.00    +0.001 A 
ATOM      5  C   UNL     1      -6.414  -0.351  -0.093  0.00  0.00    +0.006 A 
ATOM      6  C   UNL     1      -5.167   0.256  -0.159  0.00  0.00    -0.019 A 
ATOM      7  C   UNL     1      -4.724   1.015   0.910  0.00  0.00    +0.034 A 
ATOM      8  N   UNL     1      -3.470   1.633   0.914  0.00  0.00    -0.336 N 
ATOM      9  C   UNL     1      -2.514   0.980   0.019  0.00  0.00    +0.105 C 
ATOM     10  C   UNL     1      -3.087   0.941  -1.399  0.00  0.00    +0.029 C 
ATOM     11  C   UNL     1      -4.352   0.057  -1.403  0.00  0.00    +0.049 C 
ATOM     12  C   UNL     1      -3.816  -1.354  -1.486  0.00  0.00    -0.023 C 
ATOM     13  C   UNL     1      -2.595  -1.353  -1.960  0.00  0.00    -0.030 C 
ATOM     14  C   UNL     1      -2.146   0.061  -2.269  0.00  0.00    +0.033 C 
ATOM     15  H   UNL     1      -3.096   1.711   1.848  0.00  0.00    +0.147 HD
ENDROOT
BRANCH   9  16
ATOM     16  C   UNL     1      -1.219   1.751   0.017  0.00  0.00    -0.027 A 
ATOM     17  C   UNL     1      -0.013   1.076   0.008  0.00  0.00    +0.008 A 
ATOM     18  C   UNL     1       1.175   1.783   0.000  0.00  0.00    +0.033 A 
ATOM     19  C   UNL     1       1.156   3.165   0.008  0.00  0.00    +0.126 A 
ATOM     20  C   UNL     1      -0.050   3.840   0.022  0.00  0.00    +0.033 A 
ATOM     21  C   UNL     1      -1.238   3.133   0.030  0.00  0.00    +0.008 A 
BRANCH  19  22
ATOM     22  N   UNL     1       2.428   3.923  -0.001  0.00  0.00    +0.056 N 
ATOM     23  O   UNL     1       3.491   3.328  -0.014  0.00  0.00    -0.126 OA
ATOM     24  O   UNL     1       2.411   5.141   0.005  0.00  0.00    -0.126 OA
ENDBRANCH  19  22
ENDBRANCH   9  16
TORSDOF 2
