REMARK  Name = ZINC40703368
REMARK  6 active torsions:
REMARK  status: ('A' for Active; 'I' for Inactive)
REMARK    1  A    between atoms: C_1  and  C_2
REMARK    2  A    between atoms: C_7  and  N_8
REMARK    3  A    between atoms: C_10  and  N_27
REMARK    4  A    between atoms: C_11  and  N_15
REMARK    5  A    between atoms: N_15  and  N_16
REMARK    6  A    between atoms: C_17  and  C_19
REMARK                            x       y       z     vdW  Elec       q    Type
REMARK                         _______ _______ _______ _____ _____    ______ ____
ROOT
ATOM      1  N   UNL     1       0.025  -0.015   2.416  0.00  0.00    -0.298 N 
ATOM      2  C   UNL     1      -0.059  -0.716   3.614  0.00  0.00    +0.149 A 
ATOM      3  C   UNL     1      -0.169  -0.035   4.828  0.00  0.00    +0.107 A 
ATOM      4  C   UNL     1      -0.251  -0.788   6.001  0.00  0.00    +0.161 A 
ATOM      5  N   UNL     1      -0.221  -2.116   5.918  0.00  0.00    -0.217 NA
ATOM      6  C   UNL     1      -0.117  -2.719   4.752  0.00  0.00    +0.225 A 
ATOM      7  N   UNL     1      -0.042  -2.047   3.621  0.00  0.00    -0.219 NA
ATOM      8  H   UNL     1      -0.087   0.949   2.409  0.00  0.00    +0.154 HD
ENDROOT
BRANCH   1  15
ATOM      9  C   UNL     1      -0.934   1.128  -0.006  0.00  0.00    +0.046 C 
ATOM     10  C   UNL     1      -0.180  -0.177   0.016  0.00  0.00    -0.028 A 
ATOM     11  C   UNL     1       0.068  -0.852  -1.163  0.00  0.00    +0.025 A 
ATOM     12  C   UNL     1       0.760  -2.050  -1.143  0.00  0.00    +0.041 A 
ATOM     13  C   UNL     1       1.205  -2.575   0.058  0.00  0.00    +0.022 A 
ATOM     14  C   UNL     1       0.960  -1.905   1.239  0.00  0.00    +0.025 A 
ATOM     15  C   UNL     1       0.270  -0.699   1.222  0.00  0.00    +0.035 A 
ATOM     16 CL   UNL     1       1.071  -2.896  -2.627  0.00  0.00    -0.084 Cl
ENDBRANCH   1  15
BRANCH   3  17
ATOM     17  N   UNL     1      -0.196   1.368   4.868  0.00  0.00    -0.353 N 
ATOM     18  H   UNL     1      -0.139   1.878   4.045  0.00  0.00    +0.143 HD
ATOM     19  H   UNL     1      -0.273   1.828   5.718  0.00  0.00    +0.143 HD
ENDBRANCH   3  17
BRANCH   4  20
ATOM     20  N   UNL     1      -0.361  -0.160   7.236  0.00  0.00    -0.247 N 
ATOM     21  H   UNL     1      -0.382   0.809   7.287  0.00  0.00    +0.172 HD
BRANCH  20  22
ATOM     22  N   UNL     1      -0.442  -0.925   8.406  0.00  0.00    -0.231 N 
ATOM     23  C   UNL     1      -0.549  -0.317   9.604  0.00  0.00    +0.262 C 
ATOM     24  O   UNL     1      -0.575   0.897   9.668  0.00  0.00    -0.269 OA
ATOM     25  H   UNL     1      -0.422  -1.894   8.354  0.00  0.00    +0.173 HD
BRANCH  23  26
ATOM     26  C   UNL     1      -0.635  -1.124  10.838  0.00  0.00    +0.057 A 
ATOM     27  C   UNL     1      -0.600  -2.518  10.767  0.00  0.00    +0.016 A 
ATOM     28  C   UNL     1      -0.679  -3.267  11.922  0.00  0.00    +0.021 A 
ATOM     29  C   UNL     1      -0.794  -2.639  13.152  0.00  0.00    +0.042 A 
ATOM     30  C   UNL     1      -0.831  -1.257  13.230  0.00  0.00    +0.040 A 
ATOM     31  C   UNL     1      -0.746  -0.496  12.081  0.00  0.00    +0.054 A 
ATOM     32 CL   UNL     1      -0.784   1.237  12.180  0.00  0.00    -0.083 Cl
ATOM     33 CL   UNL     1      -0.894  -3.589  14.602  0.00  0.00    -0.083 Cl
ENDBRANCH  23  26
ENDBRANCH  20  22
ENDBRANCH   4  20
TORSDOF 5
