REMARK  Name = ZINC09290835
REMARK  2 active torsions:
REMARK  status: ('A' for Active; 'I' for Inactive)
REMARK    1  A    between atoms: C_1  and  C_2
REMARK    2  A    between atoms: C_14  and  C_16
REMARK                            x       y       z     vdW  Elec       q    Type
REMARK                         _______ _______ _______ _____ _____    ______ ____
ROOT
ATOM      1  C   UNL     1      -4.731   8.523  -3.226  0.00  0.00    +0.109 C 
ATOM      2  C   UNL     1      -4.856   8.171  -1.766  0.00  0.00    +0.212 C 
ATOM      3  O   UNL     1      -5.822   8.543  -1.134  0.00  0.00    -0.276 OA
ATOM      4  N   UNL     1      -3.896   7.443  -1.164  0.00  0.00    -0.301 N 
ATOM      5  C   UNL     1      -2.783   6.882  -1.942  0.00  0.00    +0.113 C 
ATOM      6  C   UNL     1      -2.705   5.375  -1.674  0.00  0.00    +0.089 C 
ATOM      7  C   UNL     1      -2.612   5.131  -0.169  0.00  0.00    +0.196 C 
ATOM      8  C   UNL     1      -3.852   5.686   0.529  0.00  0.00    +0.089 C 
ATOM      9  C   UNL     1      -3.941   7.196   0.284  0.00  0.00    +0.113 C 
ATOM     10  N   UNL     1      -1.408   5.772   0.368  0.00  0.00    -0.206 N 
ATOM     11  C   UNL     1      -0.060   5.327  -0.053  0.00  0.00    +0.136 C 
ATOM     12  C   UNL     1       0.850   5.938   1.020  0.00  0.00    +0.086 C 
ATOM     13  C   UNL     1      -0.060   6.905   1.751  0.00  0.00    +0.068 C 
ATOM     14  N   UNL     1      -1.272   6.764   1.323  0.00  0.00    -0.185 NA
ATOM     15  C   UNL     1      -0.071   3.822   0.006  0.00  0.00    +0.017 A 
ATOM     16  C   UNL     1       1.129   3.136  -0.002  0.00  0.00    +0.009 A 
ATOM     17  C   UNL     1       1.145   1.755   0.010  0.00  0.00    +0.001 A 
ATOM     18  C   UNL     1      -0.049   1.057   0.030  0.00  0.00    +0.004 A 
ATOM     19  C   UNL     1      -1.248   1.736   0.042  0.00  0.00    +0.046 A 
ATOM     20  C   UNL     1      -1.273   3.131   0.045  0.00  0.00    +0.128 A 
ATOM     21  O   UNL     1      -2.489   3.732   0.095  0.00  0.00    -0.467 OA
ENDROOT
BRANCH  13  22
ATOM     22  C   UNL     1       0.370   7.859   2.790  0.00  0.00    -0.002 A 
ATOM     23  C   UNL     1       1.711   7.918   3.177  0.00  0.00    +0.011 A 
ATOM     24  C   UNL     1       2.108   8.816   4.145  0.00  0.00    +0.016 A 
ATOM     25  C   UNL     1       1.178   9.652   4.741  0.00  0.00    +0.018 A 
ATOM     26  C   UNL     1      -0.154   9.594   4.367  0.00  0.00    +0.016 A 
ATOM     27  C   UNL     1      -0.563   8.704   3.396  0.00  0.00    +0.011 A 
ATOM     28 BR   UNL     1       1.730  10.875   6.073  0.00  0.00    -0.050 Br
ENDBRANCH  13  22
TORSDOF 1
