REMARK  Name = ZINC36640303
REMARK  6 active torsions:
REMARK  status: ('A' for Active; 'I' for Inactive)
REMARK    1  A    between atoms: C_6  and  C_7
REMARK    2  A    between atoms: C_13  and  C_15
REMARK    3  A    between atoms: C_15  and  S_16
REMARK    4  A    between atoms: S_16  and  C_17
REMARK    5  A    between atoms: C_20  and  C_23
REMARK    6  A    between atoms: N_21  and  N_22
REMARK                            x       y       z     vdW  Elec       q    Type
REMARK                         _______ _______ _______ _____ _____    ______ ____
ROOT
ATOM      1  C   UNL     1      -1.271  -0.765   0.010  0.00  0.00    +0.080 A 
ATOM      2  C   UNL     1      -1.257  -2.132   0.008  0.00  0.00    +0.076 A 
ATOM      3  S   UNL     1      -3.011  -2.481   0.020  0.00  0.00    -0.060 S 
ATOM      4  C   UNL     1      -3.575  -0.785   0.027  0.00  0.00    +0.165 A 
ATOM      5  N   UNL     1      -2.431  -0.127   0.025  0.00  0.00    -0.225 NA
ATOM      6  N   UNL     1      -4.874  -0.291   0.037  0.00  0.00    -0.264 N 
ATOM      7  C   UNL     1      -5.919  -1.143   0.044  0.00  0.00    +0.229 C 
ATOM      8  O   UNL     1      -5.726  -2.340   0.041  0.00  0.00    -0.275 OA
ATOM      9  H   UNL     1      -5.029   0.666   0.039  0.00  0.00    +0.157 HD
ENDROOT
BRANCH   1  15
ATOM     10  C   UNL     1      -0.017   1.389   0.010  0.00  0.00    +0.011 A 
ATOM     11  C   UNL     1       1.170   2.094   0.002  0.00  0.00    +0.022 A 
ATOM     12  C   UNL     1       2.378   1.419  -0.013  0.00  0.00    +0.059 A 
ATOM     13  C   UNL     1       2.403   0.034  -0.021  0.00  0.00    +0.060 A 
ATOM     14  C   UNL     1       1.221  -0.680  -0.014  0.00  0.00    +0.031 A 
ATOM     15  C   UNL     1       0.002  -0.004   0.002  0.00  0.00    +0.002 A 
ATOM     16 CL   UNL     1       3.922  -0.806  -0.040  0.00  0.00    -0.082 Cl
ATOM     17 CL   UNL     1       3.867   2.311  -0.023  0.00  0.00    -0.082 Cl
ENDBRANCH   1  15
BRANCH   7  18
ATOM     18  C   UNL     1      -7.327  -0.607   0.055  0.00  0.00    +0.173 C 
BRANCH  18  19
ATOM     19  S   UNL     1      -8.501  -1.990   0.062  0.00  0.00    -0.075 S 
BRANCH  19  20
ATOM     20  C   UNL     1     -10.080  -1.209   0.074  0.00  0.00    +0.209 A 
ATOM     21  N   UNL     1     -10.312   0.083   0.072  0.00  0.00    -0.121 NA
ATOM     22  N   UNL     1     -11.579   0.299   0.084  0.00  0.00    -0.123 NA
ATOM     23  C   UNL     1     -12.226  -0.832   0.094  0.00  0.00    +0.255 A 
ATOM     24  N   UNL     1     -11.295  -1.833   0.083  0.00  0.00    -0.220 N 
BRANCH  23  25
ATOM     25  C   UNL     1     -13.723  -1.005   0.110  0.00  0.00    +0.454 C 
ATOM     26  F   UNL     1     -14.336   0.206  -0.231  0.00  0.00    -0.163 F 
ATOM     27  F   UNL     1     -14.088  -1.989  -0.816  0.00  0.00    -0.163 F 
ATOM     28  F   UNL     1     -14.134  -1.392   1.389  0.00  0.00    -0.163 F 
ENDBRANCH  23  25
BRANCH  24  29
ATOM     29  N   UNL     1     -11.530  -3.179   0.083  0.00  0.00    -0.295 N 
ATOM     30  H   UNL     1     -11.586  -3.536   1.025  0.00  0.00    +0.163 HD
ATOM     31  H   UNL     1     -12.366  -3.400  -0.438  0.00  0.00    +0.163 HD
ENDBRANCH  24  29
ENDBRANCH  19  20
ENDBRANCH  18  19
ENDBRANCH   7  18
TORSDOF 6
