REMARK  Name = ZINC20356450
REMARK  7 active torsions:
REMARK  status: ('A' for Active; 'I' for Inactive)
REMARK    1  A    between atoms: C_1  and  C_2
REMARK    2  A    between atoms: C_10  and  C_11
REMARK    3  A    between atoms: C_11  and  O_13
REMARK    4  A    between atoms: O_13  and  C_14
REMARK    5  A    between atoms: N_15  and  C_16
REMARK    6  A    between atoms: C_18  and  C_25
REMARK    7  A    between atoms: C_20  and  C_22
REMARK                            x       y       z     vdW  Elec       q    Type
REMARK                         _______ _______ _______ _____ _____    ______ ____
ROOT
ATOM      1  C   UNL     1      -0.656   1.228   0.015  0.00  0.00    +0.046 C 
ATOM      2  C   UNL     1       0.026  -0.115  -0.050  0.00  0.00    -0.017 A 
ATOM      3  C   UNL     1       0.443  -0.631  -1.283  0.00  0.00    +0.051 A 
ATOM      4  C   UNL     1       0.325  -0.063  -2.587  0.00  0.00    +0.135 A 
ATOM      5  N   UNL     1       0.794  -0.732  -3.627  0.00  0.00    -0.220 NA
ATOM      6  C   UNL     1       1.371  -1.914  -3.504  0.00  0.00    +0.224 A 
ATOM      7  N   UNL     1       1.511  -2.493  -2.326  0.00  0.00    -0.228 NA
ATOM      8  C   UNL     1       1.073  -1.900  -1.235  0.00  0.00    +0.114 A 
ATOM      9  S   UNL     1       1.052  -2.300   0.493  0.00  0.00    -0.062 S 
ATOM     10  C   UNL     1       0.242  -0.827   1.091  0.00  0.00    +0.102 A 
ATOM     11  N   UNL     1      -0.271   1.170  -2.761  0.00  0.00    -0.299 N 
ATOM     12  H   UNL     1      -0.529   1.698  -1.988  0.00  0.00    +0.154 HD
ENDROOT
BRANCH  11  13
ATOM     13  C   UNL     1      -0.504   1.659  -4.050  0.00  0.00    +0.034 A 
ATOM     14  C   UNL     1      -0.802   0.779  -5.080  0.00  0.00    +0.038 A 
ATOM     15  C   UNL     1      -1.036   1.264  -6.370  0.00  0.00    +0.066 A 
ATOM     16  C   UNL     1      -0.968   2.634  -6.621  0.00  0.00    +0.030 A 
ATOM     17  C   UNL     1      -0.668   3.515  -5.583  0.00  0.00    +0.066 A 
ATOM     18  C   UNL     1      -0.441   3.023  -4.295  0.00  0.00    +0.038 A 
BRANCH  17  19
ATOM     19  C   UNL     1      -0.595   4.966  -5.843  0.00  0.00    +0.387 C 
ATOM     20  O   UNL     1      -0.798   5.396  -6.970  0.00  0.00    -0.241 OA
ATOM     21  O   UNL     1      -0.332   5.738  -4.932  0.00  0.00    -0.241 OA
ENDBRANCH  17  19
BRANCH  15  22
ATOM     22  C   UNL     1      -1.353   0.327  -7.465  0.00  0.00    +0.387 C 
ATOM     23  O   UNL     1      -1.411  -0.874  -7.245  0.00  0.00    -0.241 OA
ATOM     24  O   UNL     1      -1.557   0.752  -8.594  0.00  0.00    -0.241 OA
ENDBRANCH  15  22
ENDBRANCH  11  13
BRANCH  10  25
ATOM     25  C   UNL     1      -0.106  -0.470   2.470  0.00  0.00    +0.346 C 
ATOM     26  O   UNL     1      -0.664   0.585   2.703  0.00  0.00    -0.244 OA
BRANCH  25  27
ATOM     27  O   UNL     1       0.192  -1.313   3.480  0.00  0.00    -0.464 OA
ATOM     28  C   UNL     1      -0.176  -0.902   4.798  0.00  0.00    +0.280 C 
ENDBRANCH  25  27
ENDBRANCH  10  25
TORSDOF 5
