REMARK  Name = ZINC24864144
REMARK  9 active torsions:
REMARK  status: ('A' for Active; 'I' for Inactive)
REMARK    1  A    between atoms: C_1  and  C_2
REMARK    2  A    between atoms: C_2  and  N_3
REMARK    3  A    between atoms: N_6  and  S_9
REMARK    4  A    between atoms: S_9  and  C_12
REMARK    5  A    between atoms: C_15  and  N_18
REMARK    6  A    between atoms: C_19  and  C_21
REMARK    7  A    between atoms: C_21  and  C_23
REMARK    8  A    between atoms: C_21  and  O_24
REMARK    9  A    between atoms: O_24  and  C_25
REMARK                            x       y       z     vdW  Elec       q    Type
REMARK                         _______ _______ _______ _____ _____    ______ ____
ROOT
ATOM      1  C   UNL     1      -5.962   7.555   2.246  0.00  0.00    +0.106 A 
ATOM      2  C   UNL     1      -4.867   8.296   1.837  0.00  0.00    +0.030 A 
ATOM      3  C   UNL     1      -3.752   7.659   1.328  0.00  0.00    +0.025 A 
ATOM      4  C   UNL     1      -3.731   6.274   1.227  0.00  0.00    +0.034 A 
ATOM      5  C   UNL     1      -4.833   5.534   1.633  0.00  0.00    +0.025 A 
ATOM      6  C   UNL     1      -5.943   6.176   2.146  0.00  0.00    +0.030 A 
ENDROOT
BRANCH   4   7
ATOM      7  N   UNL     1      -2.603   5.626   0.712  0.00  0.00    -0.282 N 
ATOM      8  C   UNL     1      -1.374   6.138   0.928  0.00  0.00    +0.258 C 
ATOM      9  O   UNL     1      -1.238   7.107   1.644  0.00  0.00    -0.271 OA
ATOM     10  H   UNL     1      -2.718   4.699   0.131  0.00  0.00    +0.155 HD
BRANCH   8  11
ATOM     11  C   UNL     1      -0.170   5.505   0.279  0.00  0.00    +0.256 C 
ATOM     12  C   UNL     1      -0.050   4.050   0.737  0.00  0.00    +0.062 C 
BRANCH  11  13
ATOM     13  O   UNL     1       1.006   6.222   0.658  0.00  0.00    -0.480 OA
BRANCH  13  14
ATOM     14  C   UNL     1       2.068   6.157  -0.188  0.00  0.00    +0.123 A 
ATOM     15  C   UNL     1       2.021   5.326  -1.298  0.00  0.00    +0.046 A 
ATOM     16  C   UNL     1       3.099   5.264  -2.160  0.00  0.00    +0.005 A 
ATOM     17  C   UNL     1       4.224   6.031  -1.918  0.00  0.00    +0.020 A 
ATOM     18  C   UNL     1       4.274   6.861  -0.812  0.00  0.00    +0.044 A 
ATOM     19  C   UNL     1       3.197   6.924   0.054  0.00  0.00    +0.065 A 
ATOM     20 CL   UNL     1       5.687   7.822  -0.511  0.00  0.00    -0.083 Cl
ENDBRANCH  13  14
ENDBRANCH  11  13
ENDBRANCH   8  11
ENDBRANCH   4   7
BRANCH   1  21
ATOM     21  S   UNL     1      -7.382   8.371   2.895  0.00  0.00    +0.061 S 
ATOM     22  O   UNL     1      -8.056   7.424   3.712  0.00  0.00    -0.153 OA
ATOM     23  O   UNL     1      -6.938   9.627   3.391  0.00  0.00    -0.153 OA
BRANCH  21  27
ATOM     24  N   UNL     1      -9.315   8.783  -1.007  0.00  0.00    +0.381 N 
ATOM     25  C   UNL     1      -9.272   7.492  -0.308  0.00  0.00    -0.061 C 
ATOM     26  C   UNL     1      -9.411   7.727   1.200  0.00  0.00    +0.091 C 
ATOM     27  N   UNL     1      -8.386   8.695   1.619  0.00  0.00    -0.180 NA
ATOM     28  C   UNL     1      -8.282   9.961   0.878  0.00  0.00    +0.091 C 
ATOM     29  C   UNL     1      -8.183   9.636  -0.621  0.00  0.00    -0.061 C 
ATOM     30  H   UNL     1     -10.239   9.297  -0.705  0.00  0.00    -0.082 HD
BRANCH  24  32
ATOM     31  C   UNL     1      -9.651   9.931  -3.144  0.00  0.00    -0.017 C 
ATOM     32  C   UNL     1      -9.357   8.592  -2.463  0.00  0.00    -0.082 C 
ENDBRANCH  24  32
ENDBRANCH  21  27
ENDBRANCH   1  21
TORSDOF 7
