REMARK  Name = ZINC63795211
REMARK  4 active torsions:
REMARK  status: ('A' for Active; 'I' for Inactive)
REMARK    1  A    between atoms: C_6  and  C_7
REMARK    2  A    between atoms: N_13  and  C_15
REMARK    3  A    between atoms: C_15  and  C_16
REMARK    4  A    between atoms: N_18  and  C_19
REMARK                            x       y       z     vdW  Elec       q    Type
REMARK                         _______ _______ _______ _____ _____    ______ ____
ROOT
ATOM      1  C   UNL     1      -1.578  -0.983   0.381  0.00  0.00    +0.126 C 
ATOM      2  C   UNL     1      -2.026  -1.522   1.715  0.00  0.00    +0.003 C 
ATOM      3  C   UNL     1      -2.815  -2.600   1.739  0.00  0.00    +0.066 C 
ATOM      4  C   UNL     1      -3.199  -3.201   0.446  0.00  0.00    +0.253 C 
ATOM      5  O   UNL     1      -4.149  -3.956   0.372  0.00  0.00    -0.269 OA
ATOM      6  N   UNL     1      -2.477  -2.896  -0.651  0.00  0.00    -0.224 N 
ATOM      7  N   UNL     1      -1.386  -2.086  -0.565  0.00  0.00    -0.226 NA
ATOM      8  H   UNL     1      -0.558  -2.616  -0.339  0.00  0.00    +0.146 HD
ENDROOT
BRANCH   1  14
ATOM      9  C   UNL     1      -0.277   1.140   0.635  0.00  0.00    +0.007 A 
ATOM     10  C   UNL     1       0.914   1.822   0.793  0.00  0.00    +0.020 A 
ATOM     11  C   UNL     1       2.106   1.124   0.869  0.00  0.00    +0.041 A 
ATOM     12  C   UNL     1       2.104  -0.257   0.786  0.00  0.00    +0.020 A 
ATOM     13  C   UNL     1       0.912  -0.938   0.628  0.00  0.00    +0.007 A 
ATOM     14  C   UNL     1      -0.279  -0.240   0.552  0.00  0.00    -0.025 A 
ATOM     15 CL   UNL     1       3.603   1.980   1.067  0.00  0.00    -0.084 Cl
ENDBRANCH   1  14
BRANCH   6  16
ATOM     16  C   UNL     1      -2.871  -3.445  -1.951  0.00  0.00    +0.223 C 
BRANCH  16  17
ATOM     17  C   UNL     1      -2.278  -4.821  -2.116  0.00  0.00    +0.236 C 
ATOM     18  O   UNL     1      -1.594  -5.296  -1.234  0.00  0.00    -0.274 OA
ATOM     19  N   UNL     1      -2.508  -5.523  -3.243  0.00  0.00    -0.284 N 
ATOM     20  H   UNL     1      -3.114  -5.175  -3.916  0.00  0.00    +0.155 HD
BRANCH  19  21
ATOM     21  C   UNL     1      -1.873  -6.755  -3.442  0.00  0.00    +0.032 C 
ATOM     22  C   UNL     1      -2.633  -7.842  -3.660  0.00  0.00    +0.027 C 
ATOM     23  C   UNL     1      -1.962  -9.156  -3.930  0.00  0.00    +0.160 C 
ATOM     24  C   UNL     1      -0.609  -9.131  -3.244  0.00  0.00    -0.018 C 
ATOM     25  C   UNL     1      -0.532 -10.284  -2.557  0.00  0.00    +0.025 C 
ATOM     26  C   UNL     1      -1.778 -10.950  -2.619  0.00  0.00    +0.106 C 
ATOM     27  N   UNL     1      -2.638 -10.318  -3.369  0.00  0.00    -0.279 NA
ATOM     28  C   UNL     1       0.232  -8.001  -3.274  0.00  0.00    +0.008 C 
ATOM     29  C   UNL     1      -0.410  -6.802  -3.409  0.00  0.00    +0.023 C 
ENDBRANCH  19  21
ENDBRANCH  16  17
ENDBRANCH   6  16
TORSDOF 4
