REMARK  Name = ZINC35399380
REMARK  6 active torsions:
REMARK  status: ('A' for Active; 'I' for Inactive)
REMARK    1  A    between atoms: C_1  and  C_2
REMARK    2  A    between atoms: C_7  and  C_8
REMARK    3  A    between atoms: N_18  and  S_21
REMARK    4  A    between atoms: S_21  and  C_24
REMARK    5  A    between atoms: C_27  and  N_30
REMARK    6  A    between atoms: C_31  and  C_33
REMARK                            x       y       z     vdW  Elec       q    Type
REMARK                         _______ _______ _______ _____ _____    ______ ____
ROOT
ATOM      1  C   UNL     1       0.469   1.578  -0.079  0.00  0.00    +0.044 C 
ATOM      2  C   UNL     1       0.208   0.094  -0.094  0.00  0.00    -0.045 A 
ATOM      3  C   UNL     1       0.231  -0.598  -1.291  0.00  0.00    +0.005 A 
ATOM      4  C   UNL     1      -0.018  -1.958  -1.318  0.00  0.00    +0.025 A 
ATOM      5  C   UNL     1      -0.288  -2.635  -0.139  0.00  0.00    +0.052 A 
ATOM      6  C   UNL     1      -0.290  -1.934   1.071  0.00  0.00    +0.070 A 
ATOM      7  C   UNL     1      -0.049  -0.574   1.090  0.00  0.00    -0.022 A 
ATOM      8  C   UNL     1      -0.071   0.180   2.394  0.00  0.00    +0.046 C 
ATOM      9  N   UNL     1      -0.502  -2.661   2.252  0.00  0.00    -0.316 N 
ATOM     10  C   UNL     1      -0.734  -2.226   3.514  0.00  0.00    +0.092 A 
ATOM     11  C   UNL     1      -0.902  -3.308   4.308  0.00  0.00    +0.020 A 
ATOM     12  C   UNL     1      -0.759  -4.457   3.499  0.00  0.00    +0.025 A 
ATOM     13  C   UNL     1      -0.508  -4.039   2.254  0.00  0.00    +0.047 A 
ATOM     14  C   UNL     1      -0.243  -4.843   1.006  0.00  0.00    +0.075 C 
ATOM     15  N   UNL     1      -0.573  -4.006  -0.157  0.00  0.00    -0.331 N 
ATOM     16  C   UNL     1       1.230  -5.242   0.948  0.00  0.00    +0.049 C 
ATOM     17  C   UNL     1       1.496  -6.018  -0.346  0.00  0.00    +0.112 C 
ATOM     18  N   UNL     1       0.557  -7.146  -0.421  0.00  0.00    -0.176 NA
ATOM     19  C   UNL     1      -0.882  -6.879  -0.293  0.00  0.00    +0.112 C 
ATOM     20  C   UNL     1      -1.122  -6.093   1.001  0.00  0.00    +0.049 C 
ATOM     21  H   UNL     1      -0.989  -4.403  -0.937  0.00  0.00    +0.147 HD
ENDROOT
BRANCH  18  22
ATOM     22  S   UNL     1       1.111  -8.690  -0.647  0.00  0.00    +0.061 S 
ATOM     23  O   UNL     1       0.040  -9.426  -1.222  0.00  0.00    -0.153 OA
ATOM     24  O   UNL     1       2.381  -8.579  -1.274  0.00  0.00    -0.153 OA
BRANCH  22  25
ATOM     25  C   UNL     1       1.396  -9.380   0.949  0.00  0.00    +0.106 A 
ATOM     26  C   UNL     1       2.632  -9.238   1.552  0.00  0.00    +0.030 A 
ATOM     27  C   UNL     1       2.859  -9.777   2.803  0.00  0.00    +0.025 A 
ATOM     28  C   UNL     1       1.843 -10.463   3.456  0.00  0.00    +0.033 A 
ATOM     29  C   UNL     1       0.602 -10.604   2.848  0.00  0.00    +0.025 A 
ATOM     30  C   UNL     1       0.381 -10.058   1.599  0.00  0.00    +0.030 A 
BRANCH  28  31
ATOM     31  N   UNL     1       2.069 -11.011   4.723  0.00  0.00    -0.286 N 
ATOM     32  C   UNL     1       2.879 -10.380   5.596  0.00  0.00    +0.214 C 
ATOM     33  O   UNL     1       3.337  -9.291   5.319  0.00  0.00    -0.276 OA
ATOM     34  C   UNL     1       3.217 -11.026   6.914  0.00  0.00    +0.109 C 
ATOM     35  H   UNL     1       1.643 -11.846   4.974  0.00  0.00    +0.155 HD
ENDBRANCH  28  31
ENDBRANCH  22  25
ENDBRANCH  18  22
TORSDOF 3
