REMARK  Name = ZINC36029194
REMARK  10 active torsions:
REMARK  status: ('A' for Active; 'I' for Inactive)
REMARK    1  A    between atoms: C_1  and  C_2
REMARK    2  A    between atoms: C_2  and  C_3
REMARK    3  A    between atoms: C_2  and  C_4
REMARK    4  A    between atoms: C_4  and  C_5
REMARK    5  A    between atoms: N_9  and  C_27
REMARK    6  A    between atoms: N_14  and  S_17
REMARK    7  A    between atoms: S_17  and  C_20
REMARK    8  A    between atoms: C_27  and  C_28
REMARK    9  A    between atoms: C_28  and  C_29
REMARK   10  A    between atoms: C_28  and  C_30
REMARK                            x       y       z     vdW  Elec       q    Type
REMARK                         _______ _______ _______ _____ _____    ______ ____
ROOT
ATOM      1  C   UNL     1      -0.295  -0.007   2.511  0.00  0.00    +0.019 C 
ATOM      2  C   UNL     1       0.406  -0.675   3.674  0.00  0.00    +0.200 C 
ATOM      3  O   UNL     1       0.880  -1.792   3.669  0.00  0.00    -0.277 OA
ATOM      4  N   UNL     1       0.415   0.181   4.717  0.00  0.00    -0.313 N 
ATOM      5  C   UNL     1      -0.258   1.425   4.335  0.00  0.00    +0.006 C 
ATOM      6  N   UNL     1      -0.315   1.435   2.856  0.00  0.00    +0.401 N 
ATOM      7  C   UNL     1       0.538   2.631   4.830  0.00  0.00    +0.023 C 
ATOM      8  C   UNL     1       0.621   2.591   6.360  0.00  0.00    +0.109 C 
ATOM      9  N   UNL     1      -0.740   2.489   6.904  0.00  0.00    -0.177 NA
ATOM     10  C   UNL     1      -1.612   1.405   6.433  0.00  0.00    +0.109 C 
ATOM     11  C   UNL     1      -1.676   1.454   4.902  0.00  0.00    +0.023 C 
ATOM     12  H   UNL     1       0.492   1.905   2.472  0.00  0.00    -0.082 HD
ATOM     13  H   UNL     1      -1.167   1.867   2.533  0.00  0.00    -0.082 HD
ENDROOT
BRANCH   9  14
ATOM     14  S   UNL     1      -1.282   3.577   8.030  0.00  0.00    +0.061 S 
ATOM     15  O   UNL     1      -2.328   2.935   8.745  0.00  0.00    -0.153 OA
ATOM     16  O   UNL     1      -0.129   4.103   8.674  0.00  0.00    -0.153 OA
BRANCH  14  17
ATOM     17  C   UNL     1      -2.020   4.913   7.149  0.00  0.00    +0.107 A 
ATOM     18  C   UNL     1      -1.252   5.996   6.765  0.00  0.00    +0.028 A 
ATOM     19  C   UNL     1      -1.830   7.044   6.074  0.00  0.00    +0.003 A 
ATOM     20  C   UNL     1      -3.178   7.011   5.768  0.00  0.00    +0.020 A 
ATOM     21  C   UNL     1      -3.947   5.927   6.152  0.00  0.00    +0.043 A 
ATOM     22  C   UNL     1      -3.366   4.875   6.838  0.00  0.00    +0.048 A 
ATOM     23 CL   UNL     1      -5.640   5.884   5.768  0.00  0.00    -0.083 Cl
ENDBRANCH  14  17
ENDBRANCH   9  14
BRANCH   1  24
ATOM     24  C   UNL     1       0.488  -0.234   1.216  0.00  0.00    -0.004 C 
BRANCH  24  26
ATOM     25  C   UNL     1       0.629   0.363  -1.206  0.00  0.00    +0.007 C 
ATOM     26  C   UNL     1      -0.225   0.469   0.059  0.00  0.00    -0.018 C 
ATOM     27  C   UNL     1      -1.581  -0.195  -0.183  0.00  0.00    +0.007 C 
ENDBRANCH  24  26
ENDBRANCH   1  24
BRANCH   4  28
ATOM     28  C   UNL     1       1.007  -0.092   6.029  0.00  0.00    +0.109 C 
BRANCH  28  29
ATOM     29  C   UNL     1       2.480   0.320   6.020  0.00  0.00    +0.000 C 
ATOM     30  C   UNL     1       3.060   0.175   7.428  0.00  0.00    +0.009 C 
ATOM     31  C   UNL     1       3.255  -0.579   5.054  0.00  0.00    +0.009 C 
ENDBRANCH  28  29
ENDBRANCH   4  28
TORSDOF 6
