REMARK  Name = ZINC01396811
REMARK  2 active torsions:
REMARK  status: ('A' for Active; 'I' for Inactive)
REMARK    1  A    between atoms: C_3  and  C_9
REMARK    2  A    between atoms: C_24  and  C_27
REMARK                            x       y       z     vdW  Elec       q    Type
REMARK                         _______ _______ _______ _____ _____    ______ ____
ROOT
ATOM      1  C   UNL     1       2.630  -0.319   1.088  0.00  0.00    +0.250 C 
ATOM      2  O   UNL     1       1.548   0.132   1.409  0.00  0.00    -0.270 OA
ATOM      3  N   UNL     1       3.063  -0.192  -0.182  0.00  0.00    -0.267 N 
ATOM      4  C   UNL     1       4.370  -0.625  -0.725  0.00  0.00    +0.139 C 
ATOM      5  C   UNL     1       4.514   0.240  -2.002  0.00  0.00    +0.181 C 
ATOM      6  O   UNL     1       3.152   0.308  -2.485  0.00  0.00    -0.354 OA
ATOM      7  C   UNL     1       2.332   0.403  -1.311  0.00  0.00    +0.141 C 
ATOM      8  C   UNL     1       1.023  -0.357  -1.534  0.00  0.00    +0.074 C 
ATOM      9  C   UNL     1       0.131  -0.201  -0.300  0.00  0.00    +0.112 C 
ATOM     10  N   UNL     1      -0.135   1.224  -0.065  0.00  0.00    -0.299 N 
ATOM     11  C   UNL     1       1.107   1.960   0.207  0.00  0.00    +0.112 C 
ATOM     12  C   UNL     1       2.029   1.872  -1.011  0.00  0.00    +0.074 C 
ATOM     13  C   UNL     1      -1.045   1.394   0.959  0.00  0.00    +0.218 A 
ATOM     14  N   UNL     1      -1.542   0.323   1.564  0.00  0.00    -0.221 NA
ATOM     15  C   UNL     1      -2.411   0.444   2.550  0.00  0.00    +0.134 A 
ATOM     16  C   UNL     1      -2.814   1.726   2.948  0.00  0.00    +0.088 A 
ATOM     17  C   UNL     1      -2.269   2.830   2.279  0.00  0.00    +0.134 A 
ATOM     18  N   UNL     1      -1.401   2.624   1.306  0.00  0.00    -0.221 NA
ENDROOT
BRANCH   1  21
ATOM     19  C   UNL     1       5.378  -2.364   2.624  0.00  0.00    +0.021 A 
ATOM     20  C   UNL     1       4.597  -1.725   1.685  0.00  0.00    +0.016 A 
ATOM     21  C   UNL     1       3.471  -1.006   2.089  0.00  0.00    +0.055 A 
ATOM     22  C   UNL     1       3.145  -0.934   3.447  0.00  0.00    +0.054 A 
ATOM     23  C   UNL     1       3.932  -1.584   4.377  0.00  0.00    +0.040 A 
ATOM     24  C   UNL     1       5.048  -2.294   3.968  0.00  0.00    +0.042 A 
ATOM     25 CL   UNL     1       6.037  -3.102   5.144  0.00  0.00    -0.083 Cl
ATOM     26 CL   UNL     1       1.751  -0.037   3.961  0.00  0.00    -0.083 Cl
ENDBRANCH   1  21
BRANCH  16  27
ATOM     27  C   UNL     1      -3.758   1.903   4.010  0.00  0.00    +0.102 C 
ATOM     28  N   UNL     1      -4.507   2.043   4.853  0.00  0.00    -0.191 NA
ENDBRANCH  16  27
TORSDOF 2
