REMARK  Name = ZINC63362258
REMARK  6 active torsions:
REMARK  status: ('A' for Active; 'I' for Inactive)
REMARK    1  A    between atoms: C_1  and  C_2
REMARK    2  A    between atoms: C_2  and  C_4
REMARK    3  A    between atoms: C_2  and  N_10
REMARK    4  A    between atoms: C_11  and  C_13
REMARK    5  A    between atoms: C_18  and  N_19
REMARK    6  A    between atoms: C_22  and  C_38
REMARK                            x       y       z     vdW  Elec       q    Type
REMARK                         _______ _______ _______ _____ _____    ______ ____
ROOT
ATOM      1  N   UNL     1       4.888  -0.859   1.215  0.00  0.00    -0.192 N 
ATOM      2  C   UNL     1       5.376   0.376   0.972  0.00  0.00    +0.253 C 
ATOM      3  O   UNL     1       5.248   1.362   1.665  0.00  0.00    -0.272 OA
ATOM      4  C   UNL     1       6.115   0.274  -0.344  0.00  0.00    +0.137 C 
ATOM      5  C   UNL     1       5.469   1.196  -1.385  0.00  0.00    +0.139 C 
ATOM      6  C   UNL     1       5.874   0.656  -2.751  0.00  0.00    -0.034 C 
ATOM      7  C   UNL     1       6.489   1.654  -3.379  0.00  0.00    -0.001 A 
ATOM      8  C   UNL     1       7.044   1.757  -4.738  0.00  0.00    +0.010 A 
ATOM      9  C   UNL     1       7.624   2.944  -5.059  0.00  0.00    +0.001 A 
ATOM     10  C   UNL     1       7.706   4.024  -4.175  0.00  0.00    +0.002 A 
ATOM     11  C   UNL     1       7.217   4.018  -2.909  0.00  0.00    +0.026 A 
ATOM     12  C   UNL     1       6.581   2.825  -2.457  0.00  0.00    +0.043 A 
ATOM     13  N   UNL     1       6.013   2.554  -1.306  0.00  0.00    -0.375 N 
ATOM     14  C   UNL     1       5.638  -0.772  -3.180  0.00  0.00    +0.052 C 
ATOM     15  C   UNL     1       6.218  -1.680  -2.077  0.00  0.00    +0.115 C 
ATOM     16  N   UNL     1       5.846  -1.116  -0.776  0.00  0.00    -0.268 N 
ATOM     17  C   UNL     1       5.189  -1.712   0.227  0.00  0.00    +0.317 C 
ATOM     18  O   UNL     1       4.896  -2.891   0.239  0.00  0.00    -0.252 OA
ATOM     19  C   UNL     1       7.612   0.544  -0.181  0.00  0.00    +0.044 C 
ATOM     20  H   UNL     1       5.961   3.141  -0.536  0.00  0.00    +0.160 HD
ENDROOT
BRANCH   1  26
ATOM     21  C   UNL     1       2.768  -1.089   2.369  0.00  0.00    +0.059 A 
ATOM     22  C   UNL     1       2.055  -1.444   3.517  0.00  0.00    +0.015 A 
ATOM     23  C   UNL     1       2.727  -1.900   4.630  0.00  0.00    +0.001 A 
ATOM     24  C   UNL     1       4.108  -2.008   4.617  0.00  0.00    +0.002 A 
ATOM     25  C   UNL     1       4.825  -1.661   3.490  0.00  0.00    +0.025 A 
ATOM     26  C   UNL     1       4.165  -1.205   2.358  0.00  0.00    +0.058 A 
BRANCH  21  28
ATOM     27  N   UNL     1       0.711  -0.489   1.189  0.00  0.00    -0.305 N 
ATOM     28  C   UNL     1       2.054  -0.600   1.174  0.00  0.00    +0.246 C 
ATOM     29  O   UNL     1       2.677  -0.297   0.175  0.00  0.00    -0.270 OA
ATOM     30  H   UNL     1       0.213  -0.731   1.986  0.00  0.00    +0.150 HD
BRANCH  27  32
ATOM     31  C   UNL     1      -0.019   1.526   0.010  0.00  0.00    +0.033 C 
ATOM     32  C   UNL     1       0.002  -0.004   0.002  0.00  0.00    +0.100 C 
BRANCH  32  33
ATOM     33  C   UNL     1      -1.412  -0.526   0.013  0.00  0.00    -0.027 A 
ATOM     34  C   UNL     1      -2.123  -0.571   1.197  0.00  0.00    +0.005 A 
ATOM     35  C   UNL     1      -3.420  -1.049   1.207  0.00  0.00    +0.000 A 
ATOM     36  C   UNL     1      -4.006  -1.482   0.032  0.00  0.00    +0.000 A 
ATOM     37  C   UNL     1      -3.295  -1.436  -1.153  0.00  0.00    +0.000 A 
ATOM     38  C   UNL     1      -2.000  -0.954  -1.163  0.00  0.00    +0.005 A 
ENDBRANCH  32  33
ENDBRANCH  27  32
ENDBRANCH  21  28
ENDBRANCH   1  26
TORSDOF 4
