REMARK  Name = ZINC59307869
REMARK  5 active torsions:
REMARK  status: ('A' for Active; 'I' for Inactive)
REMARK    1  A    between atoms: C_1  and  N_2
REMARK    2  A    between atoms: N_2  and  C_3
REMARK    3  A    between atoms: N_2  and  C_25
REMARK    4  A    between atoms: C_6  and  N_10
REMARK    5  A    between atoms: C_11  and  C_13
REMARK                            x       y       z     vdW  Elec       q    Type
REMARK                         _______ _______ _______ _____ _____    ______ ____
ROOT
ATOM      1  N   UNL     1       0.084  -2.816   4.812  0.00  0.00    -0.281 N 
ATOM      2  C   UNL     1       1.145  -2.712   5.636  0.00  0.00    +0.249 C 
ATOM      3  O   UNL     1       2.045  -1.936   5.375  0.00  0.00    -0.270 OA
ATOM      4  H   UNL     1      -0.668  -3.377   5.058  0.00  0.00    +0.155 HD
ENDROOT
BRANCH   2   5
ATOM      5  C   UNL     1       1.216  -3.538   6.853  0.00  0.00    +0.051 C 
ATOM      6  C   UNL     1       2.289  -3.438   7.704  0.00  0.00    +0.089 C 
ATOM      7  N   UNL     1       2.378  -4.191   8.832  0.00  0.00    -0.288 N 
ATOM      8  C   UNL     1       3.615  -4.032   9.604  0.00  0.00    +0.136 C 
ATOM      9  C   UNL     1       3.323  -4.099  11.106  0.00  0.00    +0.212 C 
ATOM     10  S   UNL     1       2.520  -5.703  11.419  0.00  0.00    +0.073 S 
ATOM     11  O   UNL     1       1.849  -5.685  12.672  0.00  0.00    -0.151 OA
ATOM     12  O   UNL     1       3.393  -6.770  11.075  0.00  0.00    -0.151 OA
ATOM     13  N   UNL     1       1.316  -5.747  10.286  0.00  0.00    -0.118 NA
ATOM     14  C   UNL     1       1.363  -5.038   9.182  0.00  0.00    +0.147 C 
ATOM     15  C   UNL     1       0.239  -5.198   8.315  0.00  0.00    +0.046 C 
ATOM     16  C   UNL     1       0.141  -4.477   7.179  0.00  0.00    +0.018 C 
ENDBRANCH   2   5
BRANCH   1  20
ATOM     17  C   UNL     1       0.031  -0.724   1.203  0.00  0.00    +0.065 A 
ATOM     18  C   UNL     1      -1.151  -0.939   1.899  0.00  0.00    +0.028 A 
ATOM     19  C   UNL     1      -1.133  -1.632   3.094  0.00  0.00    +0.025 A 
ATOM     20  C   UNL     1       0.067  -2.114   3.600  0.00  0.00    +0.037 A 
ATOM     21  C   UNL     1       1.250  -1.900   2.905  0.00  0.00    +0.063 A 
ATOM     22  C   UNL     1       1.232  -1.212   1.706  0.00  0.00    +0.146 A 
ATOM     23  F   UNL     1       2.382  -1.008   1.027  0.00  0.00    -0.203 F 
BRANCH  17  25
ATOM     24  C   UNL     1       0.181   1.433  -0.015  0.00  0.00    +0.129 C 
ATOM     25  N   UNL     1       0.013  -0.022  -0.009  0.00  0.00    -0.328 N 
BRANCH  25  26
ATOM     26  C   UNL     1      -0.176  -0.743  -1.270  0.00  0.00    +0.073 C 
ATOM     27  C   UNL     1       1.038  -0.515  -2.174  0.00  0.00    +0.022 C 
ATOM     28  C   UNL     1       0.842  -1.268  -3.491  0.00  0.00    +0.002 C 
ATOM     29  C   UNL     1      -0.418  -0.752  -4.190  0.00  0.00    +0.000 C 
ATOM     30  C   UNL     1      -1.632  -0.980  -3.287  0.00  0.00    +0.002 C 
ATOM     31  C   UNL     1      -1.435  -0.227  -1.969  0.00  0.00    +0.022 C 
ENDBRANCH  25  26
ENDBRANCH  17  25
ENDBRANCH   1  20
TORSDOF 4
