REMARK  Name = ZINC17092455
REMARK  5 active torsions:
REMARK  status: ('A' for Active; 'I' for Inactive)
REMARK    1  A    between atoms: C_6  and  C_7
REMARK    2  A    between atoms: C_10  and  N_15
REMARK    3  A    between atoms: C_11  and  C_12
REMARK    4  A    between atoms: C_16  and  C_18
REMARK    5  A    between atoms: C_26  and  C_28
REMARK                            x       y       z     vdW  Elec       q    Type
REMARK                         _______ _______ _______ _____ _____    ______ ____
ROOT
ATOM      1  C   UNL     1       1.027   5.862   5.711  0.00  0.00    +0.003 A 
ATOM      2  C   UNL     1       2.226   5.900   5.077  0.00  0.00    +0.056 A 
ATOM      3  S   UNL     1       1.983   4.826   3.677  0.00  0.00    -0.081 S 
ATOM      4  C   UNL     1       0.336   4.365   3.944  0.00  0.00    +0.084 A 
ATOM      5  C   UNL     1      -0.003   5.036   5.110  0.00  0.00    +0.073 A 
ENDROOT
BRANCH   1  11
ATOM      6  C   UNL     1      -0.344   7.442   7.067  0.00  0.00    +0.010 A 
ATOM      7  C   UNL     1      -0.571   8.148   8.231  0.00  0.00    +0.020 A 
ATOM      8  C   UNL     1       0.323   8.056   9.284  0.00  0.00    +0.041 A 
ATOM      9  C   UNL     1       1.445   7.252   9.178  0.00  0.00    +0.020 A 
ATOM     10  C   UNL     1       1.678   6.538   8.021  0.00  0.00    +0.010 A 
ATOM     11  C   UNL     1       0.781   6.627   6.957  0.00  0.00    -0.017 A 
ATOM     12 CL   UNL     1       0.036   8.952  10.743  0.00  0.00    -0.084 Cl
ENDBRANCH   1  11
BRANCH   5  13
ATOM     13  C   UNL     1      -1.336   4.917   5.705  0.00  0.00    +0.244 C 
ATOM     14  O   UNL     1      -1.562   4.043   6.522  0.00  0.00    -0.270 OA
ATOM     15  N   UNL     1      -2.313   5.774   5.348  0.00  0.00    -0.325 N 
ATOM     16  H   UNL     1      -2.133   6.470   4.697  0.00  0.00    +0.145 HD
ATOM     17  H   UNL     1      -3.196   5.695   5.742  0.00  0.00    +0.145 HD
ENDBRANCH   5  13
BRANCH   4  18
ATOM     18  N   UNL     1      -0.454   3.521   3.179  0.00  0.00    -0.279 N 
ATOM     19  C   UNL     1       0.050   2.952   2.066  0.00  0.00    +0.224 C 
ATOM     20  O   UNL     1       1.195   3.178   1.734  0.00  0.00    -0.275 OA
ATOM     21  H   UNL     1      -1.369   3.340   3.444  0.00  0.00    +0.155 HD
BRANCH  19  22
ATOM     22  C   UNL     1      -0.808   2.034   1.233  0.00  0.00    +0.120 C 
ATOM     23  C   UNL     1      -1.981   2.819   0.572  0.00  0.00    +0.131 C 
ATOM     24  C   UNL     1      -2.932   1.728  -0.005  0.00  0.00    +0.035 C 
ATOM     25  C   UNL     1      -2.138   1.196  -1.235  0.00  0.00    +0.035 C 
ATOM     26  C   UNL     1      -0.836   2.050  -1.198  0.00  0.00    +0.133 C 
ATOM     27  C   UNL     1      -0.018   1.503   0.010  0.00  0.00    +0.145 C 
ATOM     28  O   UNL     1      -1.341   3.314  -0.649  0.00  0.00    -0.372 OA
BRANCH  27  29
ATOM     29  C   UNL     1       0.002  -0.004   0.002  0.00  0.00    +0.362 C 
ATOM     30  O   UNL     1      -0.515  -0.620   0.903  0.00  0.00    -0.246 OA
ATOM     31  O   UNL     1       0.595  -0.662  -1.007  0.00  0.00    -0.246 OA
ENDBRANCH  27  29
ENDBRANCH  19  22
ENDBRANCH   4  18
TORSDOF 5
