REMARK  Name = ZINC15999200
REMARK  2 active torsions:
REMARK  status: ('A' for Active; 'I' for Inactive)
REMARK    1  A    between atoms: C_16  and  C_18
REMARK    2  A    between atoms: N_23  and  C_26
REMARK                            x       y       z     vdW  Elec       q    Type
REMARK                         _______ _______ _______ _____ _____    ______ ____
ROOT
ATOM      1  C   UNL     1      -0.017   1.375   0.010  0.00  0.00    +0.001 A 
ATOM      2  C   UNL     1       1.168   2.090   0.002  0.00  0.00    +0.000 A 
ATOM      3  C   UNL     1       2.384   1.427  -0.016  0.00  0.00    +0.006 A 
ATOM      4  C   UNL     1       2.416   0.052  -0.025  0.00  0.00    -0.019 A 
ATOM      5  C   UNL     1       1.222  -0.681  -0.012  0.00  0.00    -0.019 A 
ATOM      6  C   UNL     1       0.002  -0.004   0.002  0.00  0.00    +0.008 A 
ATOM      7  C   UNL     1       1.254  -2.158  -0.005  0.00  0.00    +0.023 C 
ATOM      8  C   UNL     1       2.384  -2.797  -0.371  0.00  0.00    +0.072 C 
ATOM      9  N   UNL     1       3.462  -1.990  -0.714  0.00  0.00    -0.316 N 
ATOM     10  C   UNL     1       3.721  -0.699  -0.052  0.00  0.00    +0.117 C 
ATOM     11  C   UNL     1       4.776   0.044  -0.881  0.00  0.00    +0.115 C 
ATOM     12  C   UNL     1       5.496  -1.095  -1.668  0.00  0.00    +0.119 C 
ATOM     13  C   UNL     1       4.443  -2.207  -1.771  0.00  0.00    +0.172 C 
ATOM     14  C   UNL     1       6.595  -1.494  -0.707  0.00  0.00    +0.232 C 
ATOM     15  O   UNL     1       7.195  -2.547  -0.712  0.00  0.00    -0.274 OA
ATOM     16  N   UNL     1       6.791  -0.480   0.152  0.00  0.00    -0.208 N 
ATOM     17  C   UNL     1       5.870   0.526   0.059  0.00  0.00    +0.232 C 
ATOM     18  O   UNL     1       5.909   1.605   0.609  0.00  0.00    -0.274 OA
ENDROOT
BRANCH  16  19
ATOM     19  C   UNL     1       7.851  -0.452   1.069  0.00  0.00    +0.062 A 
ATOM     20  C   UNL     1       9.063   0.123   0.713  0.00  0.00    +0.025 A 
ATOM     21  C   UNL     1      10.106   0.149   1.619  0.00  0.00    +0.002 A 
ATOM     22  C   UNL     1       9.944  -0.397   2.879  0.00  0.00    +0.002 A 
ATOM     23  C   UNL     1       8.738  -0.971   3.237  0.00  0.00    +0.022 A 
ATOM     24  C   UNL     1       7.689  -0.995   2.337  0.00  0.00    +0.063 A 
ATOM     25 CL   UNL     1       6.172  -1.709   2.790  0.00  0.00    -0.082 Cl
ENDBRANCH  16  19
BRANCH  13  26
ATOM     26  C   UNL     1       5.101  -3.551  -1.590  0.00  0.00    +0.232 C 
ATOM     27  O   UNL     1       5.046  -4.113  -0.517  0.00  0.00    -0.274 OA
ATOM     28  N   UNL     1       5.750  -4.128  -2.621  0.00  0.00    -0.328 N 
ATOM     29  H   UNL     1       5.794  -3.678  -3.479  0.00  0.00    +0.145 HD
ATOM     30  H   UNL     1       6.173  -4.993  -2.504  0.00  0.00    +0.145 HD
ENDBRANCH  13  26
TORSDOF 2
