REMARK  Name = ZINC44714523
REMARK  8 active torsions:
REMARK  status: ('A' for Active; 'I' for Inactive)
REMARK    1  A    between atoms: C_1  and  C_2
REMARK    2  A    between atoms: C_6  and  C_9
REMARK    3  A    between atoms: C_13  and  C_22
REMARK    4  A    between atoms: N_24  and  C_25
REMARK    5  A    between atoms: C_25  and  C_26
REMARK    6  A    between atoms: C_26  and  C_27
REMARK    7  A    between atoms: C_28  and  C_39
REMARK    8  A    between atoms: C_34  and  C_37
REMARK                            x       y       z     vdW  Elec       q    Type
REMARK                         _______ _______ _______ _____ _____    ______ ____
ROOT
ATOM      1  C   UNL     1       0.088  -2.899   2.609  0.00  0.00    +0.252 C 
ATOM      2  O   UNL     1       1.131  -3.255   3.122  0.00  0.00    -0.270 OA
ATOM      3  N   UNL     1      -1.090  -3.272   3.149  0.00  0.00    -0.296 N 
ATOM      4  C   UNL     1      -2.453  -2.945   2.668  0.00  0.00    +0.121 C 
ATOM      5  C   UNL     1      -3.264  -4.243   2.884  0.00  0.00    +0.100 C 
ATOM      6  C   UNL     1      -2.512  -4.995   3.995  0.00  0.00    -0.004 C 
ATOM      7  C   UNL     1      -1.313  -4.106   4.354  0.00  0.00    +0.115 C 
ATOM      8  C   UNL     1      -2.023  -6.346   3.481  0.00  0.00    -0.010 C 
ATOM      9  C   UNL     1      -1.329  -7.099   4.619  0.00  0.00    -0.082 C 
ATOM     10  N   UNL     1      -2.271  -7.287   5.729  0.00  0.00    +0.379 N 
ATOM     11  C   UNL     1      -2.665  -5.984   6.278  0.00  0.00    -0.082 C 
ATOM     12  C   UNL     1      -3.415  -5.184   5.210  0.00  0.00    -0.010 C 
ATOM     13  H   UNL     1      -3.091  -7.771   5.395  0.00  0.00    -0.086 HD
ATOM     14  H   UNL     1      -1.831  -7.836   6.452  0.00  0.00    -0.086 HD
ENDROOT
BRANCH   1  20
ATOM     15  C   UNL     1       0.156   1.617   0.480  0.00  0.00    +0.047 C 
ATOM     16  C   UNL     1       0.143   0.114   0.364  0.00  0.00    -0.014 A 
ATOM     17  C   UNL     1       0.153  -0.481  -0.884  0.00  0.00    +0.009 A 
ATOM     18  C   UNL     1       0.142  -1.859  -1.002  0.00  0.00    +0.039 A 
ATOM     19  C   UNL     1       0.120  -2.654   0.130  0.00  0.00    +0.138 A 
ATOM     20  C   UNL     1       0.111  -2.060   1.396  0.00  0.00    +0.107 A 
ATOM     21  C   UNL     1       0.128  -0.665   1.506  0.00  0.00    +0.141 A 
ATOM     22  F   UNL     1       0.125  -0.081   2.724  0.00  0.00    -0.204 F 
ATOM     23  F   UNL     1       0.109  -3.999   0.012  0.00  0.00    -0.205 F 
ENDBRANCH   1  20
BRANCH   5  24
ATOM     24  C   UNL     1      -4.668  -3.917   3.324  0.00  0.00    +0.218 C 
ATOM     25  O   UNL     1      -4.882  -2.917   3.976  0.00  0.00    -0.275 OA
ATOM     26  N   UNL     1      -5.685  -4.737   2.994  0.00  0.00    -0.315 N 
ATOM     27  H   UNL     1      -5.513  -5.537   2.473  0.00  0.00    +0.149 HD
BRANCH  26  28
ATOM     28  C   UNL     1      -7.050  -4.421   3.422  0.00  0.00    +0.109 C 
BRANCH  28  29
ATOM     29  C   UNL     1      -8.006  -5.504   2.920  0.00  0.00    +0.056 C 
BRANCH  29  30
ATOM     30  C   UNL     1      -9.410  -5.178   3.361  0.00  0.00    -0.018 A 
ATOM     31  C   UNL     1      -9.997  -5.560   4.506  0.00  0.00    +0.017 A 
ATOM     32  N   UNL     1     -11.275  -5.075   4.560  0.00  0.00    -0.358 N 
ATOM     33  H   UNL     1     -11.895  -5.220   5.292  0.00  0.00    +0.166 HD
ATOM     34  C   UNL     1     -11.552  -4.351   3.424  0.00  0.00    +0.047 A 
ATOM     35  C   UNL     1     -10.393  -4.379   2.623  0.00  0.00    +0.004 A 
ATOM     36  C   UNL     1     -10.377  -3.717   1.398  0.00  0.00    +0.029 A 
ATOM     37  C   UNL     1     -11.512  -3.030   0.978  0.00  0.00    +0.052 A 
ATOM     38  C   UNL     1     -12.658  -3.008   1.785  0.00  0.00    +0.021 A 
ATOM     39  C   UNL     1     -12.678  -3.661   2.982  0.00  0.00    +0.027 A 
ATOM     40  C   UNL     1      -9.344  -6.399   5.574  0.00  0.00    +0.063 C 
BRANCH  37  41
ATOM     41  C   UNL     1     -11.510  -2.346  -0.280  0.00  0.00    +0.099 C 
ATOM     42  N   UNL     1     -11.508  -1.802  -1.278  0.00  0.00    -0.191 NA
ENDBRANCH  37  41
ENDBRANCH  29  30
ENDBRANCH  28  29
ENDBRANCH  26  28
ENDBRANCH   5  24
TORSDOF 6
