REMARK  Name = ZINC02237365
REMARK  6 active torsions:
REMARK  status: ('A' for Active; 'I' for Inactive)
REMARK    1  A    between atoms: C_1  and  N_2
REMARK    2  A    between atoms: N_7  and  C_10
REMARK    3  A    between atoms: C_10  and  C_11
REMARK    4  A    between atoms: N_18  and  C_23
REMARK    5  A    between atoms: N_21  and  N_22
REMARK    6  A    between atoms: C_23  and  C_24
REMARK                            x       y       z     vdW  Elec       q    Type
REMARK                         _______ _______ _______ _____ _____    ______ ____
ROOT
ATOM      1  C   UNL     1      -0.013   1.086   0.008  0.00  0.00    +0.155 C 
ATOM      2  N   UNL     1      -0.698   1.558   1.213  0.00  0.00    -0.279 N 
ATOM      3  C   UNL     1      -0.836   2.918   1.444  0.00  0.00    +0.170 A 
ATOM      4  C   UNL     1      -1.495   3.339   2.593  0.00  0.00    +0.153 A 
ATOM      5  C   UNL     1      -1.992   2.378   3.491  0.00  0.00    +0.283 A 
ATOM      6  O   UNL     1      -2.569   2.724   4.507  0.00  0.00    -0.265 OA
ATOM      7  N   UNL     1      -1.823   1.068   3.216  0.00  0.00    -0.255 N 
ATOM      8  C   UNL     1      -1.190   0.671   2.099  0.00  0.00    +0.334 A 
ATOM      9  O   UNL     1      -1.056  -0.518   1.884  0.00  0.00    -0.246 OA
ATOM     10  N   UNL     1      -1.491   4.727   2.560  0.00  0.00    -0.301 N 
ATOM     11  C   UNL     1      -0.851   5.089   1.417  0.00  0.00    +0.212 A 
ATOM     12  N   UNL     1      -0.472   4.008   0.766  0.00  0.00    -0.195 NA
ATOM     13  N   UNL     1      -0.632   6.383   1.004  0.00  0.00    -0.253 N 
ATOM     14  H   UNL     1      -0.945   7.125   1.545  0.00  0.00    +0.169 HD
ENDROOT
BRANCH  13  15
ATOM     15  N   UNL     1       0.027   6.624  -0.169  0.00  0.00    -0.254 NA
ATOM     16  H   UNL     1      -0.430   6.162  -0.941  0.00  0.00    +0.140 HD
ATOM     17  H   UNL     1       0.112   7.615  -0.339  0.00  0.00    +0.140 HD
ENDBRANCH  13  15
BRANCH   7  18
ATOM     18  C   UNL     1      -2.340   0.063   4.149  0.00  0.00    +0.165 C 
BRANCH  18  19
ATOM     19  C   UNL     1      -1.279  -0.270   5.166  0.00  0.00    -0.027 A 
ATOM     20  C   UNL     1      -0.386  -1.297   4.923  0.00  0.00    +0.007 A 
ATOM     21  C   UNL     1       0.590  -1.599   5.854  0.00  0.00    +0.020 A 
ATOM     22  C   UNL     1       0.667  -0.880   7.034  0.00  0.00    +0.041 A 
ATOM     23  C   UNL     1      -0.231   0.144   7.279  0.00  0.00    +0.020 A 
ATOM     24  C   UNL     1      -1.203   0.449   6.345  0.00  0.00    +0.007 A 
ATOM     25 CL   UNL     1       1.889  -1.263   8.206  0.00  0.00    -0.084 Cl
ENDBRANCH  18  19
ENDBRANCH   7  18
BRANCH  10  26
ATOM     26  C   UNL     1      -2.066   5.628   3.562  0.00  0.00    +0.160 C 
BRANCH  26  27
ATOM     27  C   UNL     1      -1.024   5.950   4.603  0.00  0.00    -0.028 A 
ATOM     28  C   UNL     1      -0.904   5.156   5.729  0.00  0.00    +0.007 A 
ATOM     29  C   UNL     1       0.054   5.448   6.681  0.00  0.00    +0.020 A 
ATOM     30  C   UNL     1       0.886   6.541   6.513  0.00  0.00    +0.041 A 
ATOM     31  C   UNL     1       0.761   7.338   5.389  0.00  0.00    +0.020 A 
ATOM     32  C   UNL     1      -0.194   7.042   4.435  0.00  0.00    +0.007 A 
ATOM     33 CL   UNL     1       2.086   6.912   7.712  0.00  0.00    -0.084 Cl
ENDBRANCH  26  27
ENDBRANCH  10  26
TORSDOF 5
