REMARK  Name = ZINC39024845
REMARK  6 active torsions:
REMARK  status: ('A' for Active; 'I' for Inactive)
REMARK    1  A    between atoms: C_4  and  C_7
REMARK    2  A    between atoms: C_9  and  C_21
REMARK    3  A    between atoms: N_23  and  C_24
REMARK    4  A    between atoms: C_24  and  C_25
REMARK    5  A    between atoms: C_25  and  C_27
REMARK    6  A    between atoms: C_25  and  O_33
REMARK                            x       y       z     vdW  Elec       q    Type
REMARK                         _______ _______ _______ _____ _____    ______ ____
ROOT
ATOM      1  C   UNL     1       3.690  -0.677  -0.037  0.00  0.00    +0.076 C 
ATOM      2  N   UNL     1       4.818  -0.012  -0.138  0.00  0.00    -0.244 NA
ATOM      3  C   UNL     1       6.021  -0.583  -0.302  0.00  0.00    +0.126 C 
ATOM      4  C   UNL     1       6.143  -1.925  -0.671  0.00  0.00    +0.039 C 
ATOM      5  C   UNL     1       4.972  -2.669  -0.653  0.00  0.00    -0.008 C 
ATOM      6  C   UNL     1       4.581  -3.854  -1.217  0.00  0.00    +0.004 A 
ATOM      7  C   UNL     1       5.312  -4.901  -1.824  0.00  0.00    +0.010 A 
ATOM      8  C   UNL     1       4.591  -5.939  -2.338  0.00  0.00    +0.001 A 
ATOM      9  C   UNL     1       3.199  -6.005  -2.289  0.00  0.00    +0.002 A 
ATOM     10  C   UNL     1       2.422  -5.053  -1.705  0.00  0.00    +0.026 A 
ATOM     11  C   UNL     1       3.096  -3.942  -1.122  0.00  0.00    +0.044 A 
ATOM     12  N   UNL     1       2.614  -2.925  -0.451  0.00  0.00    -0.372 N 
ATOM     13  C   UNL     1       3.729  -2.160   0.066  0.00  0.00    +0.160 C 
ATOM     14  H   UNL     1       1.675  -2.721  -0.321  0.00  0.00    +0.161 HD
ENDROOT
BRANCH   1  18
ATOM     15  C   UNL     1      -0.017   1.380   0.010  0.00  0.00    +0.000 A 
ATOM     16  C   UNL     1       1.081   1.954  -0.609  0.00  0.00    +0.001 A 
ATOM     17  C   UNL     1       2.290   1.292  -0.628  0.00  0.00    +0.010 A 
ATOM     18  C   UNL     1       2.406   0.036  -0.021  0.00  0.00    -0.001 A 
ATOM     19  C   UNL     1       1.290  -0.537   0.603  0.00  0.00    +0.010 A 
ATOM     20  C   UNL     1       0.089   0.138   0.613  0.00  0.00    +0.001 A 
ENDBRANCH   1  18
BRANCH   3  21
ATOM     21  C   UNL     1       7.243   0.224  -0.089  0.00  0.00    +0.262 C 
ATOM     22  O   UNL     1       8.338  -0.281  -0.235  0.00  0.00    -0.269 OA
ATOM     23  N   UNL     1       7.140   1.520   0.266  0.00  0.00    -0.307 N 
ATOM     24  H   UNL     1       6.266   1.924   0.382  0.00  0.00    +0.149 HD
BRANCH  23  25
ATOM     25  C   UNL     1       8.350   2.320   0.477  0.00  0.00    +0.140 C 
BRANCH  25  26
ATOM     26  C   UNL     1       7.956   3.745   0.869  0.00  0.00    +0.162 C 
BRANCH  26  27
ATOM     27  C   UNL     1       9.200   4.568   1.086  0.00  0.00    -0.018 A 
ATOM     28  C   UNL     1       9.819   5.182   0.013  0.00  0.00    +0.006 A 
ATOM     29  C   UNL     1      10.960   5.936   0.212  0.00  0.00    +0.000 A 
ATOM     30  C   UNL     1      11.482   6.077   1.484  0.00  0.00    +0.000 A 
ATOM     31  C   UNL     1      10.863   5.464   2.557  0.00  0.00    +0.000 A 
ATOM     32  C   UNL     1       9.720   4.713   2.359  0.00  0.00    +0.006 A 
ENDBRANCH  26  27
BRANCH  26  33
ATOM     33  O   UNL     1       7.176   4.329  -0.175  0.00  0.00    -0.386 OA
ATOM     34  H   UNL     1       7.633   4.383  -1.025  0.00  0.00    +0.210 HD
ENDBRANCH  26  33
ENDBRANCH  25  26
ENDBRANCH  23  25
ENDBRANCH   3  21
TORSDOF 6
