REMARK  Name = ZINC40266661
REMARK  6 active torsions:
REMARK  status: ('A' for Active; 'I' for Inactive)
REMARK    1  A    between atoms: C_1  and  O_2
REMARK    2  A    between atoms: O_2  and  C_3
REMARK    3  A    between atoms: C_6  and  C_10
REMARK    4  A    between atoms: C_8  and  O_9
REMARK    5  A    between atoms: C_13  and  O_27
REMARK    6  A    between atoms: N_19  and  C_20
REMARK                            x       y       z     vdW  Elec       q    Type
REMARK                         _______ _______ _______ _____ _____    ______ ____
ROOT
ATOM      1  C   UNL     1      -4.987  -2.627   0.035  0.00  0.00    +0.080 C 
ATOM      2  C   UNL     1      -5.780  -2.215   1.280  0.00  0.00    +0.110 C 
ATOM      3  C   UNL     1      -6.386  -0.851   1.120  0.00  0.00    +0.190 C 
ATOM      4  N   UNL     1      -6.792  -0.380  -0.022  0.00  0.00    -0.197 NA
ATOM      5  C   UNL     1      -6.634  -1.139  -1.144  0.00  0.00    +0.165 A 
ATOM      6  C   UNL     1      -5.786  -2.218  -1.178  0.00  0.00    +0.094 A 
ATOM      7  N   UNL     1      -5.837  -2.750  -2.392  0.00  0.00    -0.237 NA
ATOM      8  C   UNL     1      -6.677  -2.068  -3.131  0.00  0.00    +0.206 A 
ATOM      9  N   UNL     1      -7.201  -1.048  -2.382  0.00  0.00    -0.283 N 
ENDROOT
BRANCH   9  10
ATOM     10  C   UNL     1      -8.137  -0.095  -2.805  0.00  0.00    +0.050 A 
ATOM     11  C   UNL     1      -9.268   0.157  -2.039  0.00  0.00    +0.026 A 
ATOM     12  C   UNL     1     -10.189   1.097  -2.458  0.00  0.00    +0.003 A 
ATOM     13  C   UNL     1      -9.987   1.787  -3.639  0.00  0.00    +0.015 A 
ATOM     14  C   UNL     1      -8.862   1.539  -4.404  0.00  0.00    +0.020 A 
ATOM     15  C   UNL     1      -7.933   0.604  -3.987  0.00  0.00    +0.041 A 
ATOM     16 BR   UNL     1      -8.591   2.484  -6.019  0.00  0.00    -0.050 Br
ENDBRANCH   9  10
BRANCH   1  20
ATOM     17  C   UNL     1      -1.201  -0.638   0.010  0.00  0.00    +0.161 A 
ATOM     18  C   UNL     1      -2.374   0.099   0.019  0.00  0.00    +0.049 A 
ATOM     19  C   UNL     1      -3.596  -0.546   0.027  0.00  0.00    +0.008 A 
ATOM     20  C   UNL     1      -3.652  -1.928   0.026  0.00  0.00    -0.034 A 
ATOM     21  C   UNL     1      -2.485  -2.669   0.017  0.00  0.00    +0.053 A 
ATOM     22  C   UNL     1      -1.257  -2.028   0.003  0.00  0.00    +0.159 A 
BRANCH  17  24
ATOM     23  C   UNL     1      -0.017   1.425   0.010  0.00  0.00    +0.277 C 
ATOM     24  O   UNL     1       0.002  -0.004   0.002  0.00  0.00    -0.491 OA
ENDBRANCH  17  24
BRANCH  22  25
ATOM     25  O   UNL     1      -0.108  -2.756  -0.012  0.00  0.00    -0.503 OA
ATOM     26  H   UNL     1       0.232  -2.972   0.867  0.00  0.00    +0.292 HD
ENDBRANCH  22  25
ENDBRANCH   1  20
BRANCH   3  27
ATOM     27  O   UNL     1      -6.517  -0.075   2.216  0.00  0.00    -0.495 OA
ATOM     28  H   UNL     1      -6.915   0.789   2.042  0.00  0.00    +0.293 HD
ENDBRANCH   3  27
TORSDOF 5
