REMARK  Name = ZINC47367067
REMARK  2 active torsions:
REMARK  status: ('A' for Active; 'I' for Inactive)
REMARK    1  A    between atoms: C_3  and  N_8
REMARK    2  A    between atoms: N_16  and  C_17
REMARK                            x       y       z     vdW  Elec       q    Type
REMARK                         _______ _______ _______ _____ _____    ______ ____
ROOT
ATOM      1  N   UNL     1       3.500   1.963  -0.641  0.00  0.00    -0.312 N 
ATOM      2  C   UNL     1       4.717   1.199  -0.946  0.00  0.00    +0.125 C 
ATOM      3  C   UNL     1       5.492   1.930  -2.049  0.00  0.00    +0.128 C 
ATOM      4  N   UNL     1       5.620   3.345  -1.674  0.00  0.00    -0.282 N 
ATOM      5  C   UNL     1       4.402   4.110  -1.369  0.00  0.00    +0.128 C 
ATOM      6  C   UNL     1       3.627   3.380  -0.271  0.00  0.00    +0.125 C 
ATOM      7  C   UNL     1       6.832   3.932  -1.609  0.00  0.00    +0.307 C 
ATOM      8  O   UNL     1       7.819   3.330  -1.988  0.00  0.00    -0.252 OA
ATOM      9  N   UNL     1       6.950   5.184  -1.126  0.00  0.00    -0.269 N 
ATOM     10  H   UNL     1       6.192   5.613  -0.700  0.00  0.00    +0.156 HD
ENDROOT
BRANCH   9  11
ATOM     11  C   UNL     1       8.168   5.867  -1.240  0.00  0.00    +0.038 A 
ATOM     12  C   UNL     1       9.353   5.155  -1.371  0.00  0.00    +0.027 A 
ATOM     13  C   UNL     1      10.557   5.825  -1.484  0.00  0.00    +0.051 A 
ATOM     14  C   UNL     1      10.579   7.209  -1.466  0.00  0.00    +0.162 A 
ATOM     15  C   UNL     1       9.397   7.924  -1.335  0.00  0.00    +0.164 A 
ATOM     16  C   UNL     1       8.189   7.256  -1.227  0.00  0.00    +0.072 A 
ATOM     17  O   UNL     1       9.432   9.288  -1.321  0.00  0.00    -0.488 OA
ATOM     18  C   UNL     1      10.042   9.886  -0.175  0.00  0.00    +0.232 C 
ATOM     19  C   UNL     1      11.551   9.961  -0.345  0.00  0.00    +0.082 C 
ATOM     20  C   UNL     1      12.195   8.585  -0.412  0.00  0.00    +0.232 C 
ATOM     21  O   UNL     1      11.763   7.880  -1.578  0.00  0.00    -0.488 OA
ENDBRANCH   9  11
BRANCH   1  24
ATOM     22  C   UNL     1      -0.126   1.478  -0.456  0.00  0.00    +0.006 A 
ATOM     23  C   UNL     1       1.112   2.091  -0.386  0.00  0.00    +0.044 A 
ATOM     24  C   UNL     1       2.250   1.359  -0.708  0.00  0.00    +0.123 A 
ATOM     25  N   UNL     1       2.153   0.091  -1.077  0.00  0.00    -0.221 NA
ATOM     26  C   UNL     1       0.985  -0.521  -1.153  0.00  0.00    +0.131 A 
ATOM     27  C   UNL     1      -0.186   0.148  -0.847  0.00  0.00    +0.040 A 
ATOM     28 CL   UNL     1       0.919  -2.185  -1.643  0.00  0.00    -0.062 Cl
ENDBRANCH   1  24
TORSDOF 2
