REMARK  Name = ZINC41010290
REMARK  6 active torsions:
REMARK  status: ('A' for Active; 'I' for Inactive)
REMARK    1  A    between atoms: C_1  and  C_2
REMARK    2  A    between atoms: C_4  and  C_7
REMARK    3  A    between atoms: C_7  and  N_8
REMARK    4  A    between atoms: N_8  and  S_9
REMARK    5  A    between atoms: S_9  and  C_12
REMARK    6  A    between atoms: C_13  and  N_20
REMARK                            x       y       z     vdW  Elec       q    Type
REMARK                         _______ _______ _______ _____ _____    ______ ____
ROOT
ATOM      1  S   UNL     1      -4.796  -4.285   1.878  0.00  0.00    +0.062 S 
ATOM      2  O   UNL     1      -5.190  -4.615   3.203  0.00  0.00    -0.153 OA
ATOM      3  O   UNL     1      -5.681  -3.676   0.949  0.00  0.00    -0.153 OA
ENDROOT
BRANCH   1   4
ATOM      4  C   UNL     1      -4.234  -5.780   1.133  0.00  0.00    +0.140 A 
ATOM      5  C   UNL     1      -4.305  -5.940  -0.245  0.00  0.00    +0.053 A 
ATOM      6  C   UNL     1      -3.861  -7.119  -0.828  0.00  0.00    +0.040 A 
ATOM      7  C   UNL     1      -3.350  -8.131  -0.037  0.00  0.00    +0.021 A 
ATOM      8  C   UNL     1      -3.282  -7.969   1.336  0.00  0.00    +0.032 A 
ATOM      9  C   UNL     1      -3.718  -6.793   1.919  0.00  0.00    +0.047 A 
ATOM     10 BR   UNL     1      -3.614  -6.574   3.795  0.00  0.00    -0.048 Br
ATOM     11 BR   UNL     1      -2.746  -9.737  -0.830  0.00  0.00    -0.050 Br
BRANCH   5  12
ATOM     12  N   UNL     1      -4.822  -4.916  -1.042  0.00  0.00    -0.356 N 
ATOM     13  H   UNL     1      -4.796  -3.998  -0.730  0.00  0.00    +0.142 HD
ATOM     14  H   UNL     1      -5.206  -5.123  -1.908  0.00  0.00    +0.142 HD
ENDBRANCH   5  12
ENDBRANCH   1   4
BRANCH   1  15
ATOM     15  N   UNL     1      -3.485  -3.282   2.010  0.00  0.00    -0.184 NA
ATOM     16  H   UNL     1      -3.156  -3.026   2.886  0.00  0.00    +0.148 HD
BRANCH  15  17
ATOM     17  C   UNL     1      -2.822  -2.780   0.804  0.00  0.00    +0.161 C 
BRANCH  17  21
ATOM     18  C   UNL     1      -1.952   2.061   1.725  0.00  0.00    +0.073 C 
ATOM     19  C   UNL     1      -1.599   0.604   1.576  0.00  0.00    +0.076 A 
ATOM     20  N   UNL     1      -2.383  -0.396   1.260  0.00  0.00    -0.248 NA
ATOM     21  C   UNL     1      -1.922  -1.627   1.168  0.00  0.00    +0.064 A 
ATOM     22  C   UNL     1      -0.600  -1.810   1.416  0.00  0.00    +0.071 A 
ATOM     23  S   UNL     1      -0.098  -0.133   1.770  0.00  0.00    -0.080 S 
ENDBRANCH  17  21
ENDBRANCH  15  17
ENDBRANCH   1  15
TORSDOF 5
