REMARK  Name = ZINC01907007
REMARK  7 active torsions:
REMARK  status: ('A' for Active; 'I' for Inactive)
REMARK    1  A    between atoms: C_1  and  C_2
REMARK    2  A    between atoms: C_6  and  N_9
REMARK    3  A    between atoms: C_7  and  C_8
REMARK    4  A    between atoms: C_10  and  C_12
REMARK    5  A    between atoms: C_13  and  C_23
REMARK    6  A    between atoms: C_18  and  C_22
REMARK    7  A    between atoms: N_25  and  C_26
REMARK                            x       y       z     vdW  Elec       q    Type
REMARK                         _______ _______ _______ _____ _____    ______ ____
ROOT
ATOM      1  C   UNL     1      -3.658   3.711   0.063  0.00  0.00    +0.106 A 
ATOM      2  C   UNL     1      -2.448   4.343   0.096  0.00  0.00    +0.133 A 
ATOM      3  N   UNL     1      -2.371   5.697  -0.136  0.00  0.00    -0.249 N 
ATOM      4  C   UNL     1      -1.235   6.458  -0.140  0.00  0.00    +0.260 A 
ATOM      5  O   UNL     1      -0.152   5.941   0.087  0.00  0.00    -0.267 OA
ATOM      6  C   UNL     1      -1.315   7.827  -0.398  0.00  0.00    +0.093 A 
ATOM      7  C   UNL     1      -2.530   8.402  -0.651  0.00  0.00    +0.046 A 
ATOM      8  N   UNL     1      -3.619   7.637  -0.645  0.00  0.00    -0.228 NA
ATOM      9  C   UNL     1      -3.543   6.352  -0.403  0.00  0.00    +0.182 A 
ATOM     10  S   UNL     1      -4.764   5.060  -0.318  0.00  0.00    -0.044 S 
ATOM     11  C   UNL     1      -2.635   9.879  -0.931  0.00  0.00    +0.066 C 
ENDROOT
BRANCH   1  13
ATOM     12  N   UNL     1      -5.253   1.872   0.314  0.00  0.00    -0.281 N 
ATOM     13  C   UNL     1      -3.970   2.285   0.283  0.00  0.00    +0.257 C 
ATOM     14  O   UNL     1      -3.070   1.482   0.437  0.00  0.00    -0.269 OA
ATOM     15  H   UNL     1      -5.972   2.518   0.230  0.00  0.00    +0.155 HD
BRANCH  12  21
ATOM     16  C   UNL     1      -8.253  -1.645   1.985  0.00  0.00    +0.044 C 
ATOM     17  C   UNL     1      -6.995  -1.219   1.273  0.00  0.00    -0.046 A 
ATOM     18  C   UNL     1      -6.130  -2.174   0.770  0.00  0.00    +0.004 A 
ATOM     19  C   UNL     1      -4.974  -1.788   0.116  0.00  0.00    +0.002 A 
ATOM     20  C   UNL     1      -4.680  -0.447  -0.037  0.00  0.00    +0.023 A 
ATOM     21  C   UNL     1      -5.547   0.514   0.467  0.00  0.00    +0.037 A 
ATOM     22  C   UNL     1      -6.704   0.123   1.129  0.00  0.00    -0.026 A 
ATOM     23  C   UNL     1      -7.644   1.162   1.683  0.00  0.00    +0.046 C 
ENDBRANCH  12  21
ENDBRANCH   1  13
BRANCH   2  24
ATOM     24  C   UNL     1      -1.225   3.576   0.385  0.00  0.00    +0.266 C 
ATOM     25  O   UNL     1      -0.552   3.137  -0.528  0.00  0.00    -0.268 OA
ATOM     26  N   UNL     1      -0.851   3.361   1.662  0.00  0.00    -0.280 N 
ATOM     27  H   UNL     1      -1.433   3.630   2.390  0.00  0.00    +0.155 HD
BRANCH  26  28
ATOM     28  C   UNL     1       0.376   2.748   1.937  0.00  0.00    +0.034 A 
ATOM     29  C   UNL     1       0.956   1.901   1.002  0.00  0.00    +0.026 A 
ATOM     30  C   UNL     1       2.165   1.293   1.278  0.00  0.00    +0.040 A 
ATOM     31  C   UNL     1       2.799   1.528   2.487  0.00  0.00    +0.124 A 
ATOM     32  C   UNL     1       2.223   2.373   3.421  0.00  0.00    +0.040 A 
ATOM     33  C   UNL     1       1.014   2.983   3.148  0.00  0.00    +0.026 A 
ATOM     34  F   UNL     1       3.982   0.932   2.755  0.00  0.00    -0.205 F 
ENDBRANCH  26  28
ENDBRANCH   2  24
TORSDOF 4
