REMARK  Name = ZINC32508223
REMARK  5 active torsions:
REMARK  status: ('A' for Active; 'I' for Inactive)
REMARK    1  A    between atoms: C_1  and  C_2
REMARK    2  A    between atoms: C_6  and  C_8
REMARK    3  A    between atoms: C_8  and  C_9
REMARK    4  A    between atoms: C_9  and  N_11
REMARK    5  A    between atoms: N_13  and  C_24
REMARK                            x       y       z     vdW  Elec       q    Type
REMARK                         _______ _______ _______ _____ _____    ______ ____
ROOT
ATOM      1  N   UNL     1       1.708  -4.673   3.730  0.00  0.00    -0.159 NA
ATOM      2  C   UNL     1       2.870  -4.493   4.347  0.00  0.00    +0.154 C 
ATOM      3  N   UNL     1       3.971  -3.769   3.894  0.00  0.00    -0.276 N 
ATOM      4  C   UNL     1       4.984  -3.545   4.872  0.00  0.00    +0.116 C 
ATOM      5  C   UNL     1       6.392  -3.047   4.566  0.00  0.00    +0.190 C 
ATOM      6  S   UNL     1       7.073  -3.146   6.289  0.00  0.00    -0.028 S 
ATOM      7  O   UNL     1       8.381  -3.700   6.240  0.00  0.00    -0.174 OA
ATOM      8  O   UNL     1       6.864  -1.902   6.943  0.00  0.00    -0.174 OA
ATOM      9  C   UNL     1       5.912  -4.403   6.994  0.00  0.00    +0.182 C 
ATOM     10  C   UNL     1       5.174  -4.856   5.724  0.00  0.00    +0.097 C 
ATOM     11  S   UNL     1       3.371  -5.123   5.956  0.00  0.00    -0.086 S 
ENDROOT
BRANCH   3  12
ATOM     12  C   UNL     1       4.074  -3.297   2.580  0.00  0.00    +0.039 A 
ATOM     13  C   UNL     1       3.511  -2.075   2.235  0.00  0.00    +0.027 A 
ATOM     14  C   UNL     1       3.612  -1.608   0.938  0.00  0.00    +0.051 A 
ATOM     15  C   UNL     1       4.276  -2.357  -0.021  0.00  0.00    +0.166 A 
ATOM     16  C   UNL     1       4.841  -3.582   0.323  0.00  0.00    +0.168 A 
ATOM     17  C   UNL     1       4.744  -4.047   1.623  0.00  0.00    +0.073 A 
ATOM     18  O   UNL     1       5.431  -4.117  -0.787  0.00  0.00    -0.453 OA
ATOM     19  C   UNL     1       4.868  -3.402  -1.903  0.00  0.00    +0.466 C 
ATOM     20  O   UNL     1       4.511  -2.124  -1.346  0.00  0.00    -0.453 OA
ENDBRANCH   3  12
BRANCH   1  21
ATOM     21  C   UNL     1       1.502  -4.138   2.529  0.00  0.00    +0.243 C 
ATOM     22  O   UNL     1       2.240  -4.418   1.604  0.00  0.00    -0.273 OA
BRANCH  21  23
ATOM     23  C   UNL     1       0.354  -3.185   2.316  0.00  0.00    +0.133 C 
BRANCH  23  29
ATOM     24  C   UNL     1       1.279  -0.159  -1.561  0.00  0.00    +0.044 C 
ATOM     25  C   UNL     1       0.671  -1.421  -1.007  0.00  0.00    -0.050 A 
ATOM     26  C   UNL     1      -0.001  -2.291  -1.846  0.00  0.00    +0.003 A 
ATOM     27  C   UNL     1      -0.559  -3.449  -1.338  0.00  0.00    +0.001 A 
ATOM     28  C   UNL     1      -0.444  -3.739   0.009  0.00  0.00    +0.004 A 
ATOM     29  C   UNL     1       0.229  -2.870   0.848  0.00  0.00    -0.038 A 
ATOM     30  C   UNL     1       0.790  -1.714   0.339  0.00  0.00    +0.007 A 
ENDBRANCH  23  29
ENDBRANCH  21  23
ENDBRANCH   1  21
TORSDOF 4
