REMARK  Name = ZINC58848560
REMARK  8 active torsions:
REMARK  status: ('A' for Active; 'I' for Inactive)
REMARK    1  A    between atoms: C_1  and  O_2
REMARK    2  A    between atoms: O_2  and  C_3
REMARK    3  A    between atoms: C_8  and  C_9
REMARK    4  A    between atoms: C_9  and  C_11
REMARK    5  A    between atoms: C_9  and  N_26
REMARK    6  A    between atoms: C_11  and  N_12
REMARK    7  A    between atoms: N_15  and  C_16
REMARK    8  A    between atoms: C_19  and  C_22
REMARK                            x       y       z     vdW  Elec       q    Type
REMARK                         _______ _______ _______ _____ _____    ______ ____
ROOT
ATOM      1  C   UNL     1      -1.583  -2.869   0.225  0.00  0.00    +0.095 C 
ENDROOT
BRANCH   1   2
ATOM      2  N   UNL     1      -1.968  -3.646   1.406  0.00  0.00    -0.300 N 
ATOM      3  C   UNL     1      -3.270  -3.882   1.661  0.00  0.00    +0.304 C 
ATOM      4  O   UNL     1      -4.125  -3.450   0.912  0.00  0.00    -0.253 OA
ATOM      5  N   UNL     1      -3.625  -4.597   2.748  0.00  0.00    -0.269 N 
ATOM      6  H   UNL     1      -1.286  -3.990   2.003  0.00  0.00    +0.150 HD
ATOM      7  H   UNL     1      -2.943  -5.005   3.303  0.00  0.00    +0.156 HD
BRANCH   5   8
ATOM      8  C   UNL     1      -4.977  -4.750   3.074  0.00  0.00    +0.035 A 
ATOM      9  C   UNL     1      -5.373  -4.784   4.404  0.00  0.00    +0.024 A 
ATOM     10  C   UNL     1      -6.708  -4.935   4.723  0.00  0.00    +0.014 A 
ATOM     11  C   UNL     1      -7.651  -5.052   3.718  0.00  0.00    +0.055 A 
ATOM     12  C   UNL     1      -7.261  -5.019   2.392  0.00  0.00    +0.014 A 
ATOM     13  C   UNL     1      -5.927  -4.863   2.067  0.00  0.00    +0.024 A 
BRANCH  11  14
ATOM     14  C   UNL     1      -9.107  -5.216   4.069  0.00  0.00    +0.417 C 
ATOM     15  F   UNL     1      -9.709  -3.957   4.166  0.00  0.00    -0.166 F 
ATOM     16  F   UNL     1      -9.746  -5.962   3.073  0.00  0.00    -0.166 F 
ATOM     17  F   UNL     1      -9.219  -5.882   5.294  0.00  0.00    -0.166 F 
ENDBRANCH  11  14
ENDBRANCH   5   8
ENDBRANCH   1   2
BRANCH   1  18
ATOM     18  C   UNL     1      -0.058  -2.857   0.098  0.00  0.00    -0.017 C 
BRANCH  18  24
ATOM     19  C   UNL     1       0.565  -0.753   1.311  0.00  0.00    +0.122 A 
ATOM     20  C   UNL     1       1.111  -0.095   2.405  0.00  0.00    +0.046 A 
ATOM     21  C   UNL     1       1.631  -0.822   3.458  0.00  0.00    +0.004 A 
ATOM     22  C   UNL     1       1.608  -2.204   3.423  0.00  0.00    +0.000 A 
ATOM     23  C   UNL     1       1.065  -2.862   2.334  0.00  0.00    +0.005 A 
ATOM     24  C   UNL     1       0.539  -2.139   1.281  0.00  0.00    -0.018 A 
BRANCH  19  26
ATOM     25  C   UNL     1       0.113   1.385   0.373  0.00  0.00    +0.277 C 
ATOM     26  O   UNL     1       0.052  -0.040   0.274  0.00  0.00    -0.495 OA
ENDBRANCH  19  26
ENDBRANCH  18  24
BRANCH  18  27
ATOM     27  N   UNL     1       0.441  -4.238   0.060  0.00  0.00    +0.385 N 
ATOM     28  C   UNL     1       1.915  -4.231  -0.050  0.00  0.00    -0.078 C 
ATOM     29  C   UNL     1       2.250  -5.439  -0.961  0.00  0.00    -0.020 C 
ATOM     30  C   UNL     1       1.079  -5.398  -1.977  0.00  0.00    -0.020 C 
ATOM     31  C   UNL     1      -0.114  -4.934  -1.115  0.00  0.00    -0.078 C 
ATOM     32  H   UNL     1       0.168  -4.722   0.902  0.00  0.00    -0.081 HD
ENDBRANCH  18  27
ENDBRANCH   1  18
TORSDOF 7
