REMARK  Name = ZINC39876178
REMARK  7 active torsions:
REMARK  status: ('A' for Active; 'I' for Inactive)
REMARK    1  A    between atoms: C_1  and  O_2
REMARK    2  A    between atoms: O_2  and  C_3
REMARK    3  A    between atoms: C_6  and  N_10
REMARK    4  A    between atoms: C_11  and  C_27
REMARK    5  A    between atoms: C_30  and  O_35
REMARK    6  A    between atoms: C_31  and  O_33
REMARK    7  A    between atoms: O_33  and  C_34
REMARK                            x       y       z     vdW  Elec       q    Type
REMARK                         _______ _______ _______ _____ _____    ______ ____
ROOT
ATOM      1  N   UNL     1       2.458  -2.456  -4.301  0.00  0.00    -0.253 N 
ATOM      2  C   UNL     1       2.582  -3.908  -4.516  0.00  0.00    +0.150 C 
ATOM      3  C   UNL     1       3.319  -4.067  -5.804  0.00  0.00    +0.072 A 
ATOM      4  C   UNL     1       3.747  -5.267  -6.531  0.00  0.00    +0.199 A 
ATOM      5  O   UNL     1       3.384  -6.392  -6.233  0.00  0.00    -0.287 OA
ATOM      6  C   UNL     1       4.662  -4.981  -7.664  0.00  0.00    +0.067 A 
ATOM      7  C   UNL     1       5.312  -6.023  -8.326  0.00  0.00    +0.053 A 
ATOM      8  C   UNL     1       6.163  -5.739  -9.373  0.00  0.00    +0.124 A 
ATOM      9  C   UNL     1       6.370  -4.421  -9.763  0.00  0.00    +0.042 A 
ATOM     10  C   UNL     1       5.733  -3.386  -9.117  0.00  0.00    +0.050 A 
ATOM     11  C   UNL     1       4.865  -3.648  -8.058  0.00  0.00    +0.140 A 
ATOM     12  O   UNL     1       4.244  -2.613  -7.447  0.00  0.00    -0.450 OA
ATOM     13  C   UNL     1       3.589  -2.818  -6.288  0.00  0.00    +0.199 A 
ATOM     14  C   UNL     1       3.044  -1.829  -5.342  0.00  0.00    +0.287 C 
ATOM     15  O   UNL     1       3.114  -0.624  -5.478  0.00  0.00    -0.266 OA
ATOM     16  F   UNL     1       6.795  -6.742 -10.021  0.00  0.00    -0.205 F 
ENDROOT
BRANCH   1  20
ATOM     17  C   UNL     1       0.606  -0.608  -1.056  0.00  0.00    +0.138 A 
ATOM     18  C   UNL     1       1.173   0.162  -2.062  0.00  0.00    +0.049 A 
ATOM     19  C   UNL     1       1.786  -0.450  -3.137  0.00  0.00    +0.027 A 
ATOM     20  C   UNL     1       1.837  -1.836  -3.212  0.00  0.00    +0.039 A 
ATOM     21  C   UNL     1       1.270  -2.606  -2.205  0.00  0.00    +0.047 A 
ATOM     22  C   UNL     1       0.660  -1.993  -1.127  0.00  0.00    +0.084 A 
ATOM     23 CL   UNL     1      -0.043  -2.955   0.136  0.00  0.00    -0.080 Cl
BRANCH  17  25
ATOM     24  C   UNL     1      -0.017   1.425   0.010  0.00  0.00    +0.277 C 
ATOM     25  O   UNL     1       0.002  -0.004   0.002  0.00  0.00    -0.494 OA
ENDBRANCH  17  25
ENDBRANCH   1  20
BRANCH   2  26
ATOM     26  C   UNL     1       1.216  -4.536  -4.615  0.00  0.00    -0.018 A 
ATOM     27  C   UNL     1       0.208  -3.891  -5.308  0.00  0.00    +0.009 A 
ATOM     28  C   UNL     1      -1.047  -4.463  -5.402  0.00  0.00    +0.049 A 
ATOM     29  C   UNL     1      -1.296  -5.687  -4.802  0.00  0.00    +0.158 A 
ATOM     30  C   UNL     1      -0.282  -6.337  -4.106  0.00  0.00    +0.162 A 
ATOM     31  C   UNL     1       0.975  -5.760  -4.019  0.00  0.00    +0.055 A 
BRANCH  30  32
ATOM     32  O   UNL     1      -0.522  -7.539  -3.515  0.00  0.00    -0.491 OA
ATOM     33  C   UNL     1       0.566  -8.148  -2.818  0.00  0.00    +0.277 C 
ENDBRANCH  30  32
BRANCH  29  34
ATOM     34  O   UNL     1      -2.530  -6.252  -4.893  0.00  0.00    -0.503 OA
ATOM     35  H   UNL     1      -2.643  -6.828  -5.662  0.00  0.00    +0.292 HD
ENDBRANCH  29  34
ENDBRANCH   2  26
TORSDOF 5
