REMARK  Name = ZINC21796113
REMARK  4 active torsions:
REMARK  status: ('A' for Active; 'I' for Inactive)
REMARK    1  A    between atoms: C_4  and  S_8
REMARK    2  A    between atoms: C_6  and  N_7
REMARK    3  A    between atoms: S_8  and  N_11
REMARK    4  A    between atoms: N_11  and  C_12
REMARK                            x       y       z     vdW  Elec       q    Type
REMARK                         _______ _______ _______ _____ _____    ______ ____
ROOT
ATOM      1  S   UNL     1       2.401   5.266   0.919  0.00  0.00    +0.093 S 
ATOM      2  O   UNL     1       3.670   5.889   0.778  0.00  0.00    -0.148 OA
ATOM      3  O   UNL     1       1.187   5.929   0.592  0.00  0.00    -0.148 OA
ENDROOT
BRANCH   1   7
ATOM      4  C   UNL     1       2.046   3.992   5.254  0.00  0.00    +0.024 A 
ATOM      5  C   UNL     1       1.039   3.690   4.359  0.00  0.00    +0.024 A 
ATOM      6  C   UNL     1       1.146   4.084   3.037  0.00  0.00    +0.068 A 
ATOM      7  C   UNL     1       2.266   4.772   2.605  0.00  0.00    +0.130 A 
ATOM      8  C   UNL     1       3.276   5.077   3.496  0.00  0.00    +0.053 A 
ATOM      9  C   UNL     1       3.170   4.687   4.825  0.00  0.00    +0.027 A 
ATOM     10 CL   UNL     1      -0.126   3.709   1.916  0.00  0.00    -0.082 Cl
BRANCH   9  11
ATOM     11  N   UNL     1       4.190   4.995   5.729  0.00  0.00    -0.358 N 
ATOM     12  H   UNL     1       5.080   5.545   5.388  0.00  0.00    +0.142 HD
ATOM     13  H   UNL     1       4.105   4.686   6.781  0.00  0.00    +0.142 HD
ENDBRANCH   9  11
ENDBRANCH   1   7
BRANCH   1  14
ATOM     14  N   UNL     1       2.446   3.885   0.007  0.00  0.00    -0.096 NA
BRANCH  14  15
ATOM     15  C   UNL     1       3.550   3.032   0.086  0.00  0.00    +0.094 A 
ATOM     16  C   UNL     1       4.207   2.855   1.296  0.00  0.00    +0.048 A 
ATOM     17  C   UNL     1       5.299   2.010   1.371  0.00  0.00    +0.043 A 
ATOM     18  C   UNL     1       5.734   1.337   0.242  0.00  0.00    +0.021 A 
ATOM     19  C   UNL     1       5.085   1.515  -0.966  0.00  0.00    +0.023 A 
ATOM     20  C   UNL     1       3.993   2.358  -1.047  0.00  0.00    +0.065 A 
ATOM     21 CL   UNL     1       3.174   2.577  -2.562  0.00  0.00    -0.082 Cl
ATOM     22 CL   UNL     1       6.122   1.788   2.883  0.00  0.00    -0.083 Cl
ENDBRANCH  14  15
ENDBRANCH   1  14
TORSDOF 4
