REMARK  Name = ZINC11419678
REMARK  9 active torsions:
REMARK  status: ('A' for Active; 'I' for Inactive)
REMARK    1  A    between atoms: C_1  and  C_2
REMARK    2  A    between atoms: C_2  and  N_47
REMARK    3  A    between atoms: C_3  and  C_4
REMARK    4  A    between atoms: C_3  and  N_47
REMARK    5  A    between atoms: N_6  and  C_7
REMARK    6  A    between atoms: C_7  and  C_8
REMARK    7  A    between atoms: C_15  and  C_16
REMARK    8  A    between atoms: C_15  and  N_47
REMARK    9  A    between atoms: N_18  and  C_19
REMARK                            x       y       z     vdW  Elec       q    Type
REMARK                         _______ _______ _______ _____ _____    ______ ____
ROOT
ATOM      1  N   UNL     1      -1.214   3.441  -1.442  0.00  0.00    +0.391 N 
ATOM      2  H   UNL     1      -1.055   3.726  -2.415  0.00  0.00    -0.080 HD
ENDROOT
BRANCH   1   4
ATOM      3  C   UNL     1       1.194   3.037  -1.572  0.00  0.00    -0.017 C 
ATOM      4  C   UNL     1       0.056   3.561  -0.693  0.00  0.00    -0.081 C 
ENDBRANCH   1   4
BRANCH   1   5
ATOM      5  C   UNL     1      -1.681   2.039  -1.422  0.00  0.00    +0.019 C 
BRANCH   5   6
ATOM      6  C   UNL     1      -2.670   1.844  -2.543  0.00  0.00    +0.197 C 
ATOM      7  O   UNL     1      -3.026   2.793  -3.208  0.00  0.00    -0.278 OA
ATOM      8  N   UNL     1      -3.162   0.616  -2.801  0.00  0.00    -0.313 N 
ATOM      9  H   UNL     1      -2.876  -0.143  -2.269  0.00  0.00    +0.149 HD
BRANCH   8  10
ATOM     10  C   UNL     1      -4.128   0.428  -3.887  0.00  0.00    +0.142 C 
BRANCH  10  11
ATOM     11  C   UNL     1      -4.517  -1.026  -3.966  0.00  0.00    +0.005 A 
ATOM     12  C   UNL     1      -3.941  -1.845  -4.919  0.00  0.00    +0.008 A 
ATOM     13  C   UNL     1      -4.294  -3.179  -4.988  0.00  0.00    +0.000 A 
ATOM     14  C   UNL     1      -5.232  -3.694  -4.112  0.00  0.00    +0.003 A 
ATOM     15  C   UNL     1      -5.813  -2.876  -3.162  0.00  0.00    +0.038 A 
ATOM     16  C   UNL     1      -5.456  -1.540  -3.088  0.00  0.00    +0.128 A 
ATOM     17  F   UNL     1      -6.024  -0.739  -2.160  0.00  0.00    -0.205 F 
ENDBRANCH  10  11
ENDBRANCH   8  10
ENDBRANCH   5   6
ENDBRANCH   1   5
BRANCH   1  18
ATOM     18  C   UNL     1      -2.238   4.323  -0.843  0.00  0.00    +0.020 C 
BRANCH  18  19
ATOM     19  C   UNL     1      -1.838   5.758  -1.073  0.00  0.00    +0.201 C 
ATOM     20  O   UNL     1      -0.805   6.014  -1.655  0.00  0.00    -0.278 OA
ATOM     21  N   UNL     1      -2.628   6.756  -0.632  0.00  0.00    -0.285 N 
ATOM     22  H   UNL     1      -3.478   6.552  -0.211  0.00  0.00    +0.155 HD
BRANCH  21  23
ATOM     23  C   UNL     1      -2.222   8.088  -0.781  0.00  0.00    +0.070 A 
ATOM     24  C   UNL     1      -0.906   8.448  -0.520  0.00  0.00    +0.064 A 
ATOM     25  C   UNL     1      -0.508   9.763  -0.672  0.00  0.00    +0.022 A 
ATOM     26  C   UNL     1      -1.420  10.721  -1.074  0.00  0.00    +0.003 A 
ATOM     27  C   UNL     1      -2.732  10.368  -1.329  0.00  0.00    +0.022 A 
ATOM     28  C   UNL     1      -3.136   9.054  -1.183  0.00  0.00    +0.064 A 
ATOM     29 CL   UNL     1      -4.784   8.611  -1.503  0.00  0.00    -0.082 Cl
ATOM     30 CL   UNL     1       0.239   7.247  -0.010  0.00  0.00    -0.082 Cl
ENDBRANCH  21  23
ENDBRANCH  18  19
ENDBRANCH   1  18
TORSDOF 8
