REMARK  Name = ZINC27525272
REMARK  8 active torsions:
REMARK  status: ('A' for Active; 'I' for Inactive)
REMARK    1  A    between atoms: C_1  and  C_2
REMARK    2  A    between atoms: C_6  and  N_8
REMARK    3  A    between atoms: C_15  and  C_17
REMARK    4  A    between atoms: C_15  and  O_28
REMARK    5  A    between atoms: C_20  and  O_25
REMARK    6  A    between atoms: C_22  and  O_23
REMARK    7  A    between atoms: O_23  and  C_24
REMARK    8  A    between atoms: O_25  and  C_26
REMARK                            x       y       z     vdW  Elec       q    Type
REMARK                         _______ _______ _______ _____ _____    ______ ____
ROOT
ATOM      1  N   UNL     1      -1.953  -3.912  -0.621  0.00  0.00    -0.285 N 
ATOM      2  C   UNL     1      -0.981  -4.766  -0.718  0.00  0.00    +0.080 C 
ATOM      3  C   UNL     1      -1.126  -6.177  -1.250  0.00  0.00    +0.070 C 
ATOM      4  C   UNL     1      -0.026  -7.053  -0.673  0.00  0.00    +0.009 C 
ATOM      5  C   UNL     1       1.343  -6.420  -0.740  0.00  0.00    +0.022 C 
ATOM      6  C   UNL     1       1.440  -5.053  -0.096  0.00  0.00    +0.120 C 
ATOM      7  N   UNL     1       0.221  -4.273  -0.280  0.00  0.00    -0.329 N 
ATOM      8  C   UNL     1       0.068  -2.827  -0.051  0.00  0.00    +0.187 C 
ATOM      9  C   UNL     1      -1.466  -2.652  -0.040  0.00  0.00    +0.175 C 
ENDROOT
BRANCH   1  15
ATOM     10  C   UNL     1      -6.659  -4.532   0.586  0.00  0.00    +0.044 C 
ATOM     11  C   UNL     1      -5.562  -4.457  -0.445  0.00  0.00    -0.049 A 
ATOM     12  C   UNL     1      -5.862  -4.628  -1.785  0.00  0.00    +0.003 A 
ATOM     13  C   UNL     1      -4.861  -4.561  -2.737  0.00  0.00    +0.002 A 
ATOM     14  C   UNL     1      -3.557  -4.318  -2.357  0.00  0.00    +0.023 A 
ATOM     15  C   UNL     1      -3.248  -4.149  -1.007  0.00  0.00    +0.035 A 
ATOM     16  C   UNL     1      -4.262  -4.218  -0.051  0.00  0.00    +0.026 A 
ENDBRANCH   1  15
BRANCH   8  17
ATOM     17  C   UNL     1       0.689  -2.038  -1.175  0.00  0.00    +0.049 A 
ATOM     18  C   UNL     1       1.299  -2.697  -2.226  0.00  0.00    +0.031 A 
ATOM     19  C   UNL     1       1.874  -1.976  -3.255  0.00  0.00    +0.060 A 
ATOM     20  C   UNL     1       1.836  -0.588  -3.238  0.00  0.00    +0.137 A 
ATOM     21  C   UNL     1       1.220   0.074  -2.187  0.00  0.00    +0.092 A 
ATOM     22  C   UNL     1       0.644  -0.652  -1.156  0.00  0.00    +0.131 A 
ATOM     23 BR   UNL     1       2.714  -2.880  -4.688  0.00  0.00    -0.047 Br
BRANCH  22  24
ATOM     24  O   UNL     1       0.040  -0.005  -0.124  0.00  0.00    -0.495 OA
ATOM     25  C   UNL     1       0.036   1.423  -0.167  0.00  0.00    +0.277 C 
ENDBRANCH  22  24
BRANCH  20  26
ATOM     26  O   UNL     1       2.402   0.121  -4.250  0.00  0.00    -0.494 OA
ATOM     27  C   UNL     1       2.325   1.545  -4.167  0.00  0.00    +0.277 C 
ENDBRANCH  20  26
ENDBRANCH   8  17
BRANCH   8  28
ATOM     28  O   UNL     1       0.631  -2.446   1.206  0.00  0.00    -0.364 OA
ATOM     29  H   UNL     1       0.598  -1.395   1.527  0.00  0.00    +0.213 HD
ENDBRANCH   8  28
TORSDOF 5
