REMARK  Name = ZINC42010964
REMARK  4 active torsions:
REMARK  status: ('A' for Active; 'I' for Inactive)
REMARK    1  A    between atoms: C_2  and  N_19
REMARK    2  A    between atoms: C_4  and  S_9
REMARK    3  A    between atoms: S_9  and  C_10
REMARK    4  A    between atoms: C_10  and  C_16
REMARK                            x       y       z     vdW  Elec       q    Type
REMARK                         _______ _______ _______ _____ _____    ______ ____
ROOT
ATOM      1  C   UNL     1      -0.060   0.811   0.393  0.00  0.00    +0.113 A 
ATOM      2  C   UNL     1       1.058   1.626   0.286  0.00  0.00    +0.124 A 
ATOM      3  N   UNL     1       2.273   1.076   0.191  0.00  0.00    -0.209 NA
ATOM      4  C   UNL     1       2.432  -0.231   0.197  0.00  0.00    +0.172 A 
ATOM      5  N   UNL     1       1.367  -1.074   0.299  0.00  0.00    -0.302 N 
ATOM      6  H   UNL     1       1.507  -2.034   0.301  0.00  0.00    +0.171 HD
ATOM      7  C   UNL     1       0.117  -0.576   0.398  0.00  0.00    +0.254 A 
ATOM      8  O   UNL     1      -0.844  -1.324   0.491  0.00  0.00    -0.268 OA
ENDROOT
BRANCH   2   9
ATOM      9  N   UNL     1       0.916   2.999   0.277  0.00  0.00    -0.343 N 
ATOM     10  H   UNL     1       0.033   3.396   0.346  0.00  0.00    +0.144 HD
ATOM     11  H   UNL     1       1.699   3.567   0.203  0.00  0.00    +0.144 HD
ENDBRANCH   2   9
BRANCH   4  12
ATOM     12  S   UNL     1       4.056  -0.904   0.069  0.00  0.00    -0.069 S 
BRANCH  12  13
ATOM     13  C   UNL     1       5.128   0.555  -0.044  0.00  0.00    +0.126 C 
ATOM     14  C   UNL     1       4.720   1.385  -1.257  0.00  0.00    +0.040 C 
ATOM     15  C   UNL     1       5.408   2.753  -1.209  0.00  0.00    +0.071 C 
ATOM     16  S   UNL     1       7.207   2.503  -1.293  0.00  0.00    -0.161 S 
ATOM     17  C   UNL     1       7.517   1.299   0.034  0.00  0.00    +0.071 C 
ATOM     18  C   UNL     1       6.580   0.102  -0.161  0.00  0.00    +0.040 C 
BRANCH  13  19
ATOM     19  C   UNL     1       4.966   1.386   1.202  0.00  0.00    +0.372 C 
ATOM     20  O   UNL     1       5.507   1.042   2.239  0.00  0.00    -0.245 OA
ATOM     21  O   UNL     1       4.294   2.403   1.174  0.00  0.00    -0.245 OA
ENDBRANCH  13  19
ENDBRANCH  12  13
ENDBRANCH   4  12
TORSDOF 4
