REMARK  Name = ZINC12548509
REMARK  6 active torsions:
REMARK  status: ('A' for Active; 'I' for Inactive)
REMARK    1  A    between atoms: C_1  and  C_2
REMARK    2  A    between atoms: C_3  and  N_14
REMARK    3  A    between atoms: C_4  and  C_13
REMARK    4  A    between atoms: N_5  and  C_7
REMARK    5  A    between atoms: N_14  and  S_15
REMARK    6  A    between atoms: S_15  and  C_18
REMARK                            x       y       z     vdW  Elec       q    Type
REMARK                         _______ _______ _______ _____ _____    ______ ____
ROOT
ATOM      1  C   UNL     1      -0.427   6.408  -0.462  0.00  0.00    +0.069 C 
ATOM      2  C   UNL     1       0.500   5.301  -0.031  0.00  0.00    +0.083 A 
ATOM      3  C   UNL     1       1.731   5.469   0.621  0.00  0.00    +0.092 A 
ATOM      4  C   UNL     1       2.256   4.237   0.843  0.00  0.00    +0.064 A 
ATOM      5  N   UNL     1       1.383   3.322   0.336  0.00  0.00    -0.235 N 
ATOM      6  N   UNL     1       0.293   4.019  -0.200  0.00  0.00    -0.169 NA
ATOM      7  C   UNL     1       3.567   3.937   1.522  0.00  0.00    +0.068 C 
ENDROOT
BRANCH   5   8
ATOM      8  C   UNL     1       1.545   1.930   0.354  0.00  0.00    +0.066 A 
ATOM      9  C   UNL     1       0.440   1.104   0.515  0.00  0.00    +0.028 A 
ATOM     10  C   UNL     1       0.602  -0.268   0.532  0.00  0.00    +0.002 A 
ATOM     11  C   UNL     1       1.863  -0.818   0.388  0.00  0.00    +0.000 A 
ATOM     12  C   UNL     1       2.964   0.002   0.228  0.00  0.00    +0.002 A 
ATOM     13  C   UNL     1       2.809   1.374   0.210  0.00  0.00    +0.028 A 
ENDBRANCH   5   8
BRANCH   3  14
ATOM     14  N   UNL     1       2.316   6.697   0.985  0.00  0.00    -0.213 N 
ATOM     15  H   UNL     1       3.193   6.936   0.646  0.00  0.00    +0.174 HD
BRANCH  14  16
ATOM     16  S   UNL     1       1.506   7.733   1.991  0.00  0.00    +0.072 S 
ATOM     17  O   UNL     1       2.385   8.820   2.247  0.00  0.00    -0.150 OA
ATOM     18  O   UNL     1       0.212   7.914   1.432  0.00  0.00    -0.150 OA
BRANCH  16  19
ATOM     19  C   UNL     1       1.279   6.897   3.526  0.00  0.00    +0.110 A 
ATOM     20  C   UNL     1       2.282   6.914   4.477  0.00  0.00    +0.029 A 
ATOM     21  C   UNL     1       2.103   6.260   5.681  0.00  0.00    +0.003 A 
ATOM     22  C   UNL     1       0.922   5.588   5.935  0.00  0.00    +0.015 A 
ATOM     23  C   UNL     1      -0.081   5.570   4.983  0.00  0.00    +0.020 A 
ATOM     24  C   UNL     1       0.096   6.230   3.780  0.00  0.00    +0.044 A 
ATOM     25 BR   UNL     1      -1.697   4.650   5.329  0.00  0.00    -0.050 Br
ENDBRANCH  16  19
ENDBRANCH  14  16
ENDBRANCH   3  14
TORSDOF 4
