REMARK  Name = ZINC01181921
REMARK  9 active torsions:
REMARK  status: ('A' for Active; 'I' for Inactive)
REMARK    1  A    between atoms: C_1  and  C_2
REMARK    2  A    between atoms: C_2  and  O_3
REMARK    3  A    between atoms: O_3  and  C_4
REMARK    4  A    between atoms: C_6  and  C_13
REMARK    5  A    between atoms: C_8  and  N_10
REMARK    6  A    between atoms: C_18  and  C_22
REMARK    7  A    between atoms: C_18  and  C_23
REMARK    8  A    between atoms: C_27  and  C_33
REMARK    9  A    between atoms: C_28  and  C_32
REMARK                            x       y       z     vdW  Elec       q    Type
REMARK                         _______ _______ _______ _____ _____    ______ ____
ROOT
ATOM      1  C   UNL     1       2.489   1.046  -0.016  0.00  0.00    +0.136 C 
ATOM      2  C   UNL     1       3.044   1.024   1.389  0.00  0.00    +0.036 C 
ATOM      3  C   UNL     1       4.116   1.707   1.824  0.00  0.00    +0.017 C 
ATOM      4  C   UNL     1       4.543   1.622   3.280  0.00  0.00    +0.058 C 
ATOM      5  C   UNL     1       4.232   0.231   3.832  0.00  0.00    -0.023 C 
ATOM      6  C   UNL     1       2.721   0.007   3.709  0.00  0.00    +0.086 C 
ATOM      7  C   UNL     1       2.326   0.186   2.274  0.00  0.00    +0.163 C 
ATOM      8  O   UNL     1       1.352  -0.409   1.855  0.00  0.00    -0.292 OA
ATOM      9  C   UNL     1       4.982  -0.828   3.021  0.00  0.00    +0.011 C 
ATOM     10  C   UNL     1       4.650   0.152   5.302  0.00  0.00    +0.011 C 
ATOM     11  N   UNL     1       4.886   2.518   1.054  0.00  0.00    -0.316 N 
ATOM     12  C   UNL     1       4.395   3.478   0.177  0.00  0.00    +0.053 A 
ATOM     13  C   UNL     1       4.669   4.826   0.331  0.00  0.00    +0.028 A 
ATOM     14  C   UNL     1       4.242   5.720  -0.637  0.00  0.00    -0.046 A 
ATOM     15  C   UNL     1       3.547   5.269  -1.744  0.00  0.00    -0.046 A 
ATOM     16  C   UNL     1       3.254   3.924  -1.888  0.00  0.00    +0.028 A 
ATOM     17  C   UNL     1       3.666   3.030  -0.913  0.00  0.00    +0.050 A 
ATOM     18  N   UNL     1       3.356   1.673  -0.992  0.00  0.00    -0.331 N 
ATOM     19  C   UNL     1       3.106   6.249  -2.801  0.00  0.00    +0.044 C 
ATOM     20  C   UNL     1       4.535   7.190  -0.482  0.00  0.00    +0.044 C 
ATOM     21  H   UNL     1       5.849   2.419   1.121  0.00  0.00    +0.152 HD
ATOM     22  H   UNL     1       3.726   1.140  -1.713  0.00  0.00    +0.147 HD
ENDROOT
BRANCH   1  25
ATOM     23  C   UNL     1      -1.204   1.791  -0.295  0.00  0.00    +0.170 A 
ATOM     24  C   UNL     1       0.005   1.113  -0.304  0.00  0.00    +0.055 A 
ATOM     25  C   UNL     1       1.175   1.783   0.000  0.00  0.00    -0.017 A 
ATOM     26  C   UNL     1       1.143   3.128   0.320  0.00  0.00    +0.042 A 
ATOM     27  C   UNL     1      -0.060   3.809   0.337  0.00  0.00    +0.177 A 
ATOM     28  C   UNL     1      -1.237   3.143   0.033  0.00  0.00    +0.250 A 
ATOM     29  O   UNL     1      -2.421   3.812   0.048  0.00  0.00    -0.282 OA
BRANCH  27  30
ATOM     30  N   UNL     1      -0.091   5.248   0.679  0.00  0.00    +0.060 N 
ATOM     31  O   UNL     1       0.943   5.833   0.947  0.00  0.00    -0.126 OA
ATOM     32  O   UNL     1      -1.151   5.848   0.694  0.00  0.00    -0.126 OA
ENDBRANCH  27  30
BRANCH  23  33
ATOM     33  O   UNL     1      -2.356   1.135  -0.599  0.00  0.00    -0.488 OA
BRANCH  33  35
ATOM     34  C   UNL     1      -3.634  -0.816  -1.232  0.00  0.00    +0.048 C 
ATOM     35  C   UNL     1      -2.246  -0.253  -0.919  0.00  0.00    +0.226 C 
ENDBRANCH  33  35
ENDBRANCH  23  33
ENDBRANCH   1  25
TORSDOF 4
