REMARK  Name = ZINC26743682
REMARK  5 active torsions:
REMARK  status: ('A' for Active; 'I' for Inactive)
REMARK    1  A    between atoms: C_5  and  C_7
REMARK    2  A    between atoms: C_16  and  C_24
REMARK    3  A    between atoms: C_17  and  N_23
REMARK    4  A    between atoms: C_18  and  C_19
REMARK    5  A    between atoms: C_18  and  C_21
REMARK                            x       y       z     vdW  Elec       q    Type
REMARK                         _______ _______ _______ _____ _____    ______ ____
ROOT
ATOM      1  C   UNL     1       2.453   3.935   0.001  0.00  0.00    +0.070 C 
ATOM      2  C   UNL     1       3.305   3.493  -1.190  0.00  0.00    +0.044 C 
ATOM      3  C   UNL     1       2.707   3.936  -2.506  0.00  0.00    +0.090 C 
ATOM      4  N   UNL     1       1.963   2.857  -3.162  0.00  0.00    -0.312 NA
ATOM      5  C   UNL     1       2.856   1.717  -3.434  0.00  0.00    +0.108 C 
ATOM      6  C   UNL     1       3.340   1.187  -2.107  0.00  0.00    -0.007 C 
ATOM      7  C   UNL     1       3.515   2.009  -1.089  0.00  0.00    -0.026 C 
ATOM      8  C   UNL     1       3.884   1.466   0.242  0.00  0.00    +0.074 C 
ATOM      9  C   UNL     1       3.730   2.246   1.343  0.00  0.00    +0.054 C 
ATOM     10  C   UNL     1       3.222   3.655   1.293  0.00  0.00    +0.188 C 
ATOM     11  H   UNL     1       1.144   2.526  -2.507  0.00  0.00    +0.122 HD
ENDROOT
BRANCH   1  16
ATOM     12  C   UNL     1      -0.069   1.175   0.528  0.00  0.00    +0.000 A 
ATOM     13  C   UNL     1      -1.219   1.749   0.018  0.00  0.00    +0.003 A 
ATOM     14  C   UNL     1      -1.184   3.033  -0.490  0.00  0.00    +0.038 A 
ATOM     15  C   UNL     1       0.006   3.742  -0.497  0.00  0.00    +0.127 A 
ATOM     16  C   UNL     1       1.158   3.165   0.009  0.00  0.00    -0.006 A 
ATOM     17  C   UNL     1       1.119   1.881   0.521  0.00  0.00    +0.007 A 
ATOM     18  F   UNL     1       0.042   4.996  -0.999  0.00  0.00    -0.205 F 
ENDBRANCH   1  16
BRANCH   9  19
ATOM     19  N   UNL     1       4.054   1.718   2.561  0.00  0.00    -0.358 N 
ATOM     20  H   UNL     1       3.940   2.324   3.471  0.00  0.00    +0.142 HD
ATOM     21  H   UNL     1       4.430   0.686   2.630  0.00  0.00    +0.142 HD
ENDBRANCH   9  19
BRANCH  10  22
ATOM     22  C   UNL     1       4.364   4.580   1.381  0.00  0.00    +0.091 C 
ATOM     23  N   UNL     1       5.245   5.293   1.449  0.00  0.00    -0.194 NA
ENDBRANCH  10  22
BRANCH  10  24
ATOM     24  C   UNL     1       2.331   3.885   2.441  0.00  0.00    +0.091 C 
ATOM     25  N   UNL     1       1.643   4.063   3.328  0.00  0.00    -0.194 NA
ENDBRANCH  10  24
BRANCH   8  26
ATOM     26  C   UNL     1       4.398   0.135   0.364  0.00  0.00    +0.101 C 
ATOM     27  N   UNL     1       4.805  -0.921   0.461  0.00  0.00    -0.191 NA
ENDBRANCH   8  26
TORSDOF 5
