REMARK  Name = ZINC64182114
REMARK  7 active torsions:
REMARK  status: ('A' for Active; 'I' for Inactive)
REMARK    1  A    between atoms: C_1  and  C_2
REMARK    2  A    between atoms: N_8  and  S_9
REMARK    3  A    between atoms: S_9  and  C_12
REMARK    4  A    between atoms: C_14  and  C_20
REMARK    5  A    between atoms: C_17  and  O_18
REMARK    6  A    between atoms: O_18  and  C_19
REMARK    7  A    between atoms: C_25  and  C_28
REMARK                            x       y       z     vdW  Elec       q    Type
REMARK                         _______ _______ _______ _____ _____    ______ ____
ROOT
ATOM      1  C   UNL     1       0.156   0.903   3.682  0.00  0.00    +0.148 A 
ATOM      2  C   UNL     1       0.500   0.591   4.979  0.00  0.00    +0.045 A 
ATOM      3  C   UNL     1      -0.470   0.625   5.984  0.00  0.00    +0.039 A 
ATOM      4  C   UNL     1      -1.786   0.974   5.669  0.00  0.00    +0.017 A 
ATOM      5  C   UNL     1      -2.122   1.285   4.371  0.00  0.00    +0.048 A 
ATOM      6  C   UNL     1      -1.153   1.256   3.374  0.00  0.00    +0.146 A 
ENDROOT
BRANCH   3   7
ATOM      7  C   UNL     1      -0.105   0.291   7.375  0.00  0.00    +0.247 C 
ATOM      8  O   UNL     1       0.625  -0.654   7.602  0.00  0.00    -0.270 OA
ATOM      9  N   UNL     1      -0.582   1.033   8.393  0.00  0.00    -0.293 N 
ATOM     10  C   UNL     1      -0.169   0.779   9.784  0.00  0.00    +0.113 C 
ATOM     11  C   UNL     1       0.560   2.024  10.297  0.00  0.00    +0.054 C 
ATOM     12  C   UNL     1      -0.204   3.264   9.935  0.00  0.00    -0.043 C 
ATOM     13  C   UNL     1      -1.128   3.319   8.984  0.00  0.00    -0.004 C 
ATOM     14  C   UNL     1      -1.529   2.132   8.159  0.00  0.00    +0.135 C 
BRANCH  12  15
ATOM     15  C   UNL     1       0.077   4.444  10.652  0.00  0.00    -0.016 C 
ATOM     16  C   UNL     1       1.073   4.633  11.603  0.00  0.00    +0.003 A 
ATOM     17  C   UNL     1       2.063   3.773  12.133  0.00  0.00    +0.010 A 
ATOM     18  C   UNL     1       2.922   4.237  13.073  0.00  0.00    +0.001 A 
ATOM     19  C   UNL     1       2.858   5.553  13.540  0.00  0.00    +0.002 A 
ATOM     20  C   UNL     1       1.937   6.432  13.079  0.00  0.00    +0.026 A 
ATOM     21  C   UNL     1       1.001   6.021  12.092  0.00  0.00    +0.043 A 
ATOM     22  N   UNL     1       0.026   6.670  11.492  0.00  0.00    -0.380 N 
ATOM     23  C   UNL     1      -0.638   5.773  10.542  0.00  0.00    +0.149 C 
ATOM     24  H   UNL     1      -0.212   7.597  11.651  0.00  0.00    +0.160 HD
ENDBRANCH  12  15
ENDBRANCH   3   7
BRANCH   1  25
ATOM     25  S   UNL     1       1.378   0.862   2.413  0.00  0.00    +0.065 S 
ATOM     26  O   UNL     1       2.593   0.465   3.033  0.00  0.00    -0.153 OA
ATOM     27  O   UNL     1       1.253   2.078   1.689  0.00  0.00    -0.153 OA
BRANCH  25  34
ATOM     28  C   UNL     1       2.064  -1.823   2.992  0.00  0.00    +0.026 C 
ATOM     29  C   UNL     1       1.237  -1.758   1.706  0.00  0.00    +0.077 C 
ATOM     30  C   UNL     1       2.024  -2.397   0.557  0.00  0.00    +0.020 C 
ATOM     31  C   UNL     1       1.254  -2.205  -0.751  0.00  0.00    +0.003 C 
ATOM     32  C   UNL     1       1.103  -0.710  -1.042  0.00  0.00    +0.017 C 
ATOM     33  C   UNL     1       0.306  -0.052   0.089  0.00  0.00    +0.110 C 
ATOM     34  N   UNL     1       0.959  -0.355   1.370  0.00  0.00    -0.174 NA
ENDBRANCH  25  34
ENDBRANCH   1  25
BRANCH   6  35
ATOM     35  O   UNL     1      -1.487   1.568   2.096  0.00  0.00    -0.493 OA
ATOM     36  C   UNL     1      -2.821   2.026   1.868  0.00  0.00    +0.277 C 
ENDBRANCH   6  35
TORSDOF 5
