REMARK  Name = ZINC03055375
REMARK  6 active torsions:
REMARK  status: ('A' for Active; 'I' for Inactive)
REMARK    1  A    between atoms: C_4  and  C_7
REMARK    2  A    between atoms: C_8  and  C_9
REMARK    3  A    between atoms: C_8  and  N_18
REMARK    4  A    between atoms: N_11  and  C_12
REMARK    5  A    between atoms: C_12  and  C_13
REMARK    6  A    between atoms: C_19  and  C_21
REMARK                            x       y       z     vdW  Elec       q    Type
REMARK                         _______ _______ _______ _____ _____    ______ ____
ROOT
ATOM      1  C   UNL     1       3.659   2.166   0.094  0.00  0.00    +0.036 C 
ATOM      2  C   UNL     1       3.638   3.502  -0.114  0.00  0.00    +0.097 C 
ENDROOT
BRANCH   1   6
ATOM      3  C   UNL     1       0.130   0.154   1.315  0.00  0.00    +0.000 A 
ATOM      4  C   UNL     1       0.240   1.522   1.497  0.00  0.00    +0.001 A 
ATOM      5  C   UNL     1       1.385   2.183   1.103  0.00  0.00    +0.008 A 
ATOM      6  C   UNL     1       2.435   1.468   0.518  0.00  0.00    -0.023 A 
ATOM      7  C   UNL     1       2.315   0.086   0.338  0.00  0.00    +0.008 A 
ATOM      8  C   UNL     1       1.165  -0.560   0.738  0.00  0.00    +0.001 A 
ENDBRANCH   1   6
BRANCH   2   9
ATOM      9  C   UNL     1       4.894   4.228  -0.356  0.00  0.00    +0.259 C 
ATOM     10  O   UNL     1       4.875   5.430  -0.544  0.00  0.00    -0.269 OA
ATOM     11  N   UNL     1       6.065   3.562  -0.370  0.00  0.00    -0.303 N 
ATOM     12  H   UNL     1       6.080   2.604  -0.220  0.00  0.00    +0.149 HD
BRANCH  11  13
ATOM     13  C   UNL     1       7.316   4.285  -0.611  0.00  0.00    +0.179 C 
BRANCH  13  14
ATOM     14  C   UNL     1       8.471   3.317  -0.575  0.00  0.00    +0.122 A 
ATOM     15  C   UNL     1       8.965   2.643  -1.629  0.00  0.00    +0.046 A 
ATOM     16  C   UNL     1      10.035   1.855  -1.146  0.00  0.00    +0.041 A 
ATOM     17  C   UNL     1      10.131   2.096   0.174  0.00  0.00    +0.195 A 
ATOM     18  O   UNL     1       9.185   2.986   0.513  0.00  0.00    -0.466 OA
ENDBRANCH  13  14
ENDBRANCH  11  13
ENDBRANCH   2   9
BRANCH   2  19
ATOM     19  N   UNL     1       2.423   4.193  -0.100  0.00  0.00    -0.277 N 
ATOM     20  C   UNL     1       2.253   5.241   0.730  0.00  0.00    +0.250 C 
ATOM     21  O   UNL     1       3.122   5.530   1.530  0.00  0.00    -0.270 OA
ATOM     22  H   UNL     1       1.702   3.918  -0.688  0.00  0.00    +0.155 HD
BRANCH  20  23
ATOM     23  C   UNL     1       1.012   6.038   0.668  0.00  0.00    +0.055 A 
ATOM     24  C   UNL     1      -0.030   5.650  -0.177  0.00  0.00    +0.016 A 
ATOM     25  C   UNL     1      -1.187   6.398  -0.230  0.00  0.00    +0.021 A 
ATOM     26  C   UNL     1      -1.318   7.534   0.553  0.00  0.00    +0.042 A 
ATOM     27  C   UNL     1      -0.289   7.925   1.393  0.00  0.00    +0.040 A 
ATOM     28  C   UNL     1       0.872   7.182   1.460  0.00  0.00    +0.054 A 
ATOM     29 CL   UNL     1       2.158   7.669   2.519  0.00  0.00    -0.083 Cl
ATOM     30 CL   UNL     1      -2.778   8.470   0.480  0.00  0.00    -0.083 Cl
ENDBRANCH  20  23
ENDBRANCH   2  19
TORSDOF 6
