REMARK  Name = ZINC64930756
REMARK  6 active torsions:
REMARK  status: ('A' for Active; 'I' for Inactive)
REMARK    1  A    between atoms: C_1  and  C_2
REMARK    2  A    between atoms: C_5  and  N_9
REMARK    3  A    between atoms: C_7  and  C_8
REMARK    4  A    between atoms: C_16  and  C_18
REMARK    5  A    between atoms: C_21  and  C_23
REMARK    6  A    between atoms: N_25  and  C_26
REMARK                            x       y       z     vdW  Elec       q    Type
REMARK                         _______ _______ _______ _____ _____    ______ ____
ROOT
ATOM      1  C   UNL     1       0.984  -7.105  -3.309  0.00  0.00    +0.123 A 
ATOM      2  N   UNL     1       2.226  -6.874  -2.931  0.00  0.00    -0.144 NA
ATOM      3  N   UNL     1       3.156  -6.687  -3.765  0.00  0.00    -0.136 NA
ATOM      4  C   UNL     1       2.869  -6.726  -5.063  0.00  0.00    +0.187 A 
ATOM      5  S   UNL     1       1.116  -7.066  -4.989  0.00  0.00    -0.044 S 
ENDROOT
BRANCH   1  13
ATOM      6  N   UNL     1      -0.358  -4.279  -0.352  0.00  0.00    -0.269 N 
ATOM      7  C   UNL     1      -0.339  -5.051  -1.457  0.00  0.00    +0.307 C 
ATOM      8  O   UNL     1      -0.387  -4.537  -2.558  0.00  0.00    -0.252 OA
ATOM      9  N   UNL     1      -0.266  -6.391  -1.342  0.00  0.00    -0.276 N 
ATOM     10  C   UNL     1      -0.208  -7.143  -0.075  0.00  0.00    +0.110 C 
ATOM     11  C   UNL     1      -0.752  -8.551  -0.424  0.00  0.00    +0.021 C 
ATOM     12  C   UNL     1      -0.175  -8.763  -1.849  0.00  0.00    +0.031 C 
ATOM     13  C   UNL     1      -0.236  -7.347  -2.459  0.00  0.00    +0.135 C 
ATOM     14  H   UNL     1      -0.243  -4.682   0.523  0.00  0.00    +0.156 HD
BRANCH   6  19
ATOM     15  C   UNL     1      -1.119   1.324  -0.816  0.00  0.00    +0.044 C 
ATOM     16  C   UNL     1      -0.917  -0.165  -0.693  0.00  0.00    -0.047 A 
ATOM     17  C   UNL     1      -1.542  -1.022  -1.580  0.00  0.00    +0.005 A 
ATOM     18  C   UNL     1      -1.359  -2.386  -1.470  0.00  0.00    +0.023 A 
ATOM     19  C   UNL     1      -0.546  -2.897  -0.467  0.00  0.00    +0.035 A 
ATOM     20  C   UNL     1       0.081  -2.034   0.422  0.00  0.00    +0.027 A 
ATOM     21  C   UNL     1      -0.102  -0.670   0.303  0.00  0.00    -0.046 A 
ATOM     22  C   UNL     1       0.583   0.268   1.264  0.00  0.00    +0.044 C 
ENDBRANCH   6  19
ENDBRANCH   1  13
BRANCH   4  23
ATOM     23  C   UNL     1       3.747  -6.544  -6.231  0.00  0.00    +0.275 C 
ATOM     24  O   UNL     1       3.288  -6.617  -7.355  0.00  0.00    -0.268 OA
ATOM     25  N   UNL     1       5.060  -6.297  -6.055  0.00  0.00    -0.280 N 
ATOM     26  H   UNL     1       5.441  -6.310  -5.163  0.00  0.00    +0.155 HD
BRANCH  25  27
ATOM     27  C   UNL     1       5.875  -6.022  -7.160  0.00  0.00    +0.037 A 
ATOM     28  C   UNL     1       7.199  -6.440  -7.167  0.00  0.00    +0.027 A 
ATOM     29  C   UNL     1       8.005  -6.169  -8.256  0.00  0.00    +0.051 A 
ATOM     30  C   UNL     1       7.494  -5.479  -9.344  0.00  0.00    +0.166 A 
ATOM     31  C   UNL     1       6.167  -5.058  -9.340  0.00  0.00    +0.168 A 
ATOM     32  C   UNL     1       5.358  -5.335  -8.250  0.00  0.00    +0.072 A 
ATOM     33  O   UNL     1       5.911  -4.409 -10.513  0.00  0.00    -0.453 OA
ATOM     34  C   UNL     1       7.201  -4.078 -11.059  0.00  0.00    +0.466 C 
ATOM     35  O   UNL     1       8.070  -5.093 -10.521  0.00  0.00    -0.453 OA
ENDBRANCH  25  27
ENDBRANCH   4  23
TORSDOF 4
