REMARK  Name = ZINC20686799
REMARK  10 active torsions:
REMARK  status: ('A' for Active; 'I' for Inactive)
REMARK    1  A    between atoms: C_1  and  C_2
REMARK    2  A    between atoms: C_6  and  N_9
REMARK    3  A    between atoms: C_7  and  C_8
REMARK    4  A    between atoms: C_10  and  C_12
REMARK    5  A    between atoms: C_12  and  N_13
REMARK    6  A    between atoms: N_13  and  C_14
REMARK    7  A    between atoms: N_13  and  C_15
REMARK    8  A    between atoms: C_15  and  C_17
REMARK    9  A    between atoms: C_15  and  C_18
REMARK   10  A    between atoms: N_23  and  C_24
REMARK                            x       y       z     vdW  Elec       q    Type
REMARK                         _______ _______ _______ _____ _____    ______ ____
ROOT
ATOM      1  C   UNL     1      -2.463   5.589   4.170  0.00  0.00    +0.017 C 
ATOM      2  C   UNL     1      -3.929   5.153   4.107  0.00  0.00    -0.004 C 
ENDROOT
BRANCH   1   3
ATOM      3  C   UNL     1      -1.736   5.080   2.952  0.00  0.00    +0.207 C 
ATOM      4  O   UNL     1      -1.422   5.848   2.068  0.00  0.00    -0.277 OA
ATOM      5  N   UNL     1      -1.434   3.771   2.846  0.00  0.00    -0.242 N 
ATOM      6  C   UNL     1      -0.783   3.315   1.757  0.00  0.00    +0.306 C 
ATOM      7  O   UNL     1      -0.469   4.085   0.871  0.00  0.00    -0.252 OA
ATOM      8  N   UNL     1      -0.481   2.006   1.651  0.00  0.00    -0.294 N 
ATOM      9  H   UNL     1      -1.719   3.074   3.648  0.00  0.00    +0.159 HD
ATOM     10  H   UNL     1      -0.766   1.309   2.453  0.00  0.00    +0.151 HD
BRANCH   8  11
ATOM     11  C   UNL     1       0.226   1.511   0.468  0.00  0.00    +0.037 C 
ATOM     12  C   UNL     1       1.581   2.213   0.352  0.00  0.00    +0.029 C 
ATOM     13  C   UNL     1       2.319   1.696  -0.884  0.00  0.00    -0.008 C 
ATOM     14  C   UNL     1       2.537   0.187  -0.754  0.00  0.00    +0.007 C 
ATOM     15  C   UNL     1       1.182  -0.515  -0.639  0.00  0.00    -0.008 C 
ATOM     16  C   UNL     1       0.443   0.002   0.597  0.00  0.00    +0.029 C 
ATOM     17  C   UNL     1       0.349  -0.225  -1.889  0.00  0.00    +0.007 C 
ATOM     18  C   UNL     1       0.132   1.284  -2.019  0.00  0.00    -0.008 C 
ATOM     19  C   UNL     1       1.486   1.986  -2.134  0.00  0.00    +0.007 C 
ATOM     20  C   UNL     1      -0.607   1.801  -0.783  0.00  0.00    +0.029 C 
ENDBRANCH   8  11
ENDBRANCH   1   3
BRANCH   1  21
ATOM     21  N   UNL     1      -2.390   7.056   4.206  0.00  0.00    +0.391 N 
ATOM     22  C   UNL     1      -2.740   7.568   5.538  0.00  0.00    -0.094 C 
ATOM     23  H   UNL     1      -1.351   7.348   3.994  0.00  0.00    -0.080 HD
BRANCH  21  24
ATOM     24  C   UNL     1      -3.246   7.652   3.172  0.00  0.00    +0.020 C 
BRANCH  24  26
ATOM     25  N   UNL     1      -3.635   9.887   2.186  0.00  0.00    -0.287 N 
ATOM     26  C   UNL     1      -2.963   9.129   3.074  0.00  0.00    +0.201 C 
ATOM     27  O   UNL     1      -2.129   9.635   3.796  0.00  0.00    -0.278 OA
ATOM     28  H   UNL     1      -4.324   9.415   1.470  0.00  0.00    +0.155 HD
BRANCH  25  34
ATOM     29  C   UNL     1      -3.960  14.175  -0.197  0.00  0.00    +0.044 C 
ATOM     30  C   UNL     1      -3.606  13.378   1.032  0.00  0.00    -0.046 A 
ATOM     31  C   UNL     1      -3.105  14.019   2.151  0.00  0.00    +0.004 A 
ATOM     32  C   UNL     1      -2.779  13.291   3.280  0.00  0.00    +0.002 A 
ATOM     33  C   UNL     1      -2.954  11.921   3.295  0.00  0.00    +0.023 A 
ATOM     34  C   UNL     1      -3.457  11.275   2.174  0.00  0.00    +0.036 A 
ATOM     35  C   UNL     1      -3.777  12.008   1.038  0.00  0.00    -0.026 A 
ATOM     36  C   UNL     1      -4.317  11.309  -0.183  0.00  0.00    +0.046 C 
ENDBRANCH  25  34
ENDBRANCH  24  26
ENDBRANCH  21  24
ENDBRANCH   1  21
TORSDOF 6
