REMARK  Name = ZINC16193288
REMARK  9 active torsions:
REMARK  status: ('A' for Active; 'I' for Inactive)
REMARK    1  A    between atoms: C_1  and  C_2
REMARK    2  A    between atoms: C_2  and  N_3
REMARK    3  A    between atoms: C_11  and  O_32
REMARK    4  A    between atoms: C_13  and  C_16
REMARK    5  A    between atoms: C_19  and  O_24
REMARK    6  A    between atoms: C_20  and  O_22
REMARK    7  A    between atoms: O_22  and  C_23
REMARK    8  A    between atoms: O_24  and  C_25
REMARK    9  A    between atoms: C_25  and  C_26
REMARK                            x       y       z     vdW  Elec       q    Type
REMARK                         _______ _______ _______ _____ _____    ______ ____
ROOT
ATOM      1  N   UNL     1       0.690  -0.478  -1.207  0.00  0.00    +0.383 N 
ATOM      2  C   UNL     1       0.602  -1.942  -1.277  0.00  0.00    -0.074 C 
ATOM      3  C   UNL     1       1.029  -2.431  -2.665  0.00  0.00    +0.018 C 
ATOM      4  C   UNL     1       2.388  -1.821  -2.979  0.00  0.00    -0.027 A 
ATOM      5  C   UNL     1       2.833  -0.756  -2.269  0.00  0.00    -0.021 A 
ATOM      6  S   UNL     1       4.422  -0.389  -2.957  0.00  0.00    -0.080 S 
ATOM      7  C   UNL     1       4.500  -1.575  -4.114  0.00  0.00    +0.080 A 
ATOM      8  C   UNL     1       3.298  -2.285  -4.007  0.00  0.00    +0.067 A 
ATOM      9  C   UNL     1       3.084  -3.415  -4.947  0.00  0.00    +0.220 C 
ATOM     10  N   UNL     1       4.112  -3.834  -5.636  0.00  0.00    -0.223 NA
ATOM     11  C   UNL     1       5.465  -3.312  -5.499  0.00  0.00    +0.224 C 
ATOM     12  N   UNL     1       5.464  -1.912  -5.038  0.00  0.00    -0.313 N 
ATOM     13  C   UNL     1       2.106  -0.069  -1.158  0.00  0.00    -0.035 C 
ATOM     14  H   UNL     1       6.106  -1.264  -5.367  0.00  0.00    +0.149 HD
ATOM     15  H   UNL     1       0.251  -0.076  -2.022  0.00  0.00    -0.081 HD
ENDROOT
BRANCH  11  16
ATOM     16  C   UNL     1       6.220  -4.156  -4.503  0.00  0.00    -0.002 A 
ATOM     17  C   UNL     1       7.218  -3.588  -3.734  0.00  0.00    +0.011 A 
ATOM     18  C   UNL     1       7.913  -4.357  -2.820  0.00  0.00    +0.050 A 
ATOM     19  C   UNL     1       7.608  -5.701  -2.672  0.00  0.00    +0.162 A 
ATOM     20  C   UNL     1       6.603  -6.272  -3.446  0.00  0.00    +0.162 A 
ATOM     21  C   UNL     1       5.907  -5.494  -4.357  0.00  0.00    +0.056 A 
BRANCH  20  22
ATOM     22  O   UNL     1       6.300  -7.591  -3.304  0.00  0.00    -0.491 OA
ATOM     23  C   UNL     1       5.257  -8.109  -4.131  0.00  0.00    +0.277 C 
ENDBRANCH  20  22
BRANCH  19  24
ATOM     24  O   UNL     1       8.291  -6.459  -1.773  0.00  0.00    -0.484 OA
BRANCH  24  25
ATOM     25  C   UNL     1       9.310  -5.806  -1.014  0.00  0.00    +0.264 C 
BRANCH  25  26
ATOM     26  C   UNL     1       9.952  -6.796  -0.077  0.00  0.00    -0.010 A 
ATOM     27  C   UNL     1       9.439  -6.980   1.193  0.00  0.00    +0.007 A 
ATOM     28  C   UNL     1      10.028  -7.889   2.052  0.00  0.00    +0.000 A 
ATOM     29  C   UNL     1      11.131  -8.614   1.640  0.00  0.00    +0.000 A 
ATOM     30  C   UNL     1      11.643  -8.432   0.369  0.00  0.00    +0.000 A 
ATOM     31  C   UNL     1      11.051  -7.526  -0.491  0.00  0.00    +0.007 A 
ENDBRANCH  25  26
ENDBRANCH  24  25
ENDBRANCH  19  24
ENDBRANCH  11  16
BRANCH   1  33
ATOM     32  C   UNL     1      -0.019   1.526   0.010  0.00  0.00    -0.017 C 
ATOM     33  C   UNL     1       0.002  -0.004   0.002  0.00  0.00    -0.082 C 
ENDBRANCH   1  33
BRANCH   9  34
ATOM     34  O   UNL     1       1.867  -3.991  -5.086  0.00  0.00    -0.492 OA
ATOM     35  H   UNL     1       1.846  -4.716  -5.725  0.00  0.00    +0.294 HD
ENDBRANCH   9  34
TORSDOF 7
