REMARK  Name = ZINC35920721
REMARK  8 active torsions:
REMARK  status: ('A' for Active; 'I' for Inactive)
REMARK    1  A    between atoms: C_1  and  N_2
REMARK    2  A    between atoms: C_12  and  O_14
REMARK    3  A    between atoms: O_14  and  C_15
REMARK    4  A    between atoms: C_27  and  C_29
REMARK    5  A    between atoms: C_31  and  O_37
REMARK    6  A    between atoms: C_33  and  O_35
REMARK    7  A    between atoms: O_35  and  C_36
REMARK    8  A    between atoms: O_37  and  C_38
REMARK                            x       y       z     vdW  Elec       q    Type
REMARK                         _______ _______ _______ _____ _____    ______ ____
ROOT
ATOM      1  C   UNL     1      -0.611   1.304   0.402  0.00  0.00    -0.096 C 
ATOM      2  N   UNL     1      -0.482  -0.152   0.257  0.00  0.00    +0.380 N 
ATOM      3  C   UNL     1       0.290  -0.454  -0.955  0.00  0.00    -0.060 C 
ATOM      4  C   UNL     1       0.328  -1.971  -1.170  0.00  0.00    +0.089 C 
ATOM      5  N   UNL     1       0.845  -2.603   0.053  0.00  0.00    -0.303 N 
ATOM      6  C   UNL     1       0.234  -2.230   1.338  0.00  0.00    +0.089 C 
ATOM      7  C   UNL     1       0.201  -0.701   1.435  0.00  0.00    -0.060 C 
ATOM      8  C   UNL     1       1.878  -3.522  -0.003  0.00  0.00    +0.221 A 
ATOM      9  N   UNL     1       2.364  -4.017   1.123  0.00  0.00    -0.219 NA
ATOM     10  C   UNL     1       3.354  -4.906   1.116  0.00  0.00    +0.056 A 
ATOM     11  C   UNL     1       3.869  -5.315  -0.091  0.00  0.00    +0.053 A 
ATOM     12  C   UNL     1       3.341  -4.771  -1.265  0.00  0.00    +0.230 A 
ATOM     13  N   UNL     1       2.352  -3.890  -1.184  0.00  0.00    -0.179 NA
ATOM     14  C   UNL     1       4.970  -6.336  -0.199  0.00  0.00    +0.150 C 
ATOM     15  N   UNL     1       5.551  -6.573   1.127  0.00  0.00    -0.293 N 
ATOM     16  C   UNL     1       4.620  -6.730   2.257  0.00  0.00    +0.114 C 
ATOM     17  C   UNL     1       3.867  -5.412   2.437  0.00  0.00    +0.075 C 
ATOM     18  C   UNL     1       6.885  -6.644   1.305  0.00  0.00    +0.247 C 
ATOM     19  O   UNL     1       7.345  -6.740   2.426  0.00  0.00    -0.270 OA
ATOM     20  H   UNL     1      -1.400  -0.563   0.179  0.00  0.00    -0.082 HD
ENDROOT
BRANCH  18  21
ATOM     21  C   UNL     1       7.790  -6.605   0.136  0.00  0.00    +0.044 A 
ATOM     22  C   UNL     1       9.078  -6.085   0.265  0.00  0.00    +0.059 A 
ATOM     23  C   UNL     1       9.922  -6.050  -0.833  0.00  0.00    +0.124 A 
ATOM     24  C   UNL     1       9.488  -6.532  -2.059  0.00  0.00    +0.091 A 
ATOM     25  C   UNL     1       8.208  -7.051  -2.192  0.00  0.00    +0.124 A 
ATOM     26  C   UNL     1       7.360  -7.094  -1.098  0.00  0.00    +0.059 A 
BRANCH  25  27
ATOM     27  O   UNL     1       7.788  -7.521  -3.396  0.00  0.00    -0.495 OA
ATOM     28  C   UNL     1       8.717  -7.451  -4.479  0.00  0.00    +0.277 C 
ENDBRANCH  25  27
BRANCH  23  29
ATOM     29  O   UNL     1      11.177  -5.544  -0.708  0.00  0.00    -0.495 OA
ATOM     30  C   UNL     1      11.994  -5.539  -1.880  0.00  0.00    +0.277 C 
ENDBRANCH  23  29
ENDBRANCH  18  21
BRANCH  12  31
ATOM     31  O   UNL     1       3.830  -5.142  -2.473  0.00  0.00    -0.437 OA
BRANCH  31  32
ATOM     32  C   UNL     1       3.369  -4.494  -3.575  0.00  0.00    +0.133 A 
ATOM     33  C   UNL     1       2.687  -3.293  -3.440  0.00  0.00    +0.049 A 
ATOM     34  C   UNL     1       2.219  -2.634  -4.560  0.00  0.00    +0.045 A 
ATOM     35  C   UNL     1       2.429  -3.171  -5.819  0.00  0.00    +0.159 A 
ATOM     36  C   UNL     1       3.110  -4.371  -5.957  0.00  0.00    +0.162 A 
ATOM     37  C   UNL     1       3.585  -5.029  -4.836  0.00  0.00    +0.087 A 
ATOM     38  F   UNL     1       3.314  -4.894  -7.185  0.00  0.00    -0.202 F 
ATOM     39  F   UNL     1       1.970  -2.525  -6.913  0.00  0.00    -0.202 F 
ENDBRANCH  31  32
ENDBRANCH  12  31
TORSDOF 5
