REMARK  Name = ZINC13063551
REMARK  6 active torsions:
REMARK  status: ('A' for Active; 'I' for Inactive)
REMARK    1  A    between atoms: C_1  and  C_2
REMARK    2  A    between atoms: C_5  and  S_8
REMARK    3  A    between atoms: S_8  and  N_11
REMARK    4  A    between atoms: N_14  and  C_17
REMARK    5  A    between atoms: C_17  and  N_18
REMARK    6  A    between atoms: C_26  and  C_28
REMARK                            x       y       z     vdW  Elec       q    Type
REMARK                         _______ _______ _______ _____ _____    ______ ____
ROOT
ATOM      1  N   UNL     1      -3.275   2.796   3.633  0.00  0.00    -0.174 NA
ATOM      2  C   UNL     1      -2.691   3.975   2.976  0.00  0.00    +0.125 C 
ATOM      3  C   UNL     1      -2.446   3.639   1.501  0.00  0.00    +0.103 C 
ATOM      4  N   UNL     1      -1.641   2.414   1.408  0.00  0.00    -0.284 NA
ATOM      5  C   UNL     1      -2.356   1.263   1.976  0.00  0.00    +0.103 C 
ATOM      6  C   UNL     1      -2.597   1.501   3.470  0.00  0.00    +0.125 C 
ENDROOT
BRANCH   1   7
ATOM      7  S   UNL     1      -4.660   2.923   4.532  0.00  0.00    +0.061 S 
ATOM      8  O   UNL     1      -4.652   1.835   5.446  0.00  0.00    -0.153 OA
ATOM      9  O   UNL     1      -4.745   4.276   4.958  0.00  0.00    -0.153 OA
BRANCH   7  14
ATOM     10  C   UNL     1      -9.305   1.999   0.794  0.00  0.00    +0.044 C 
ATOM     11  C   UNL     1      -8.145   2.230   1.728  0.00  0.00    -0.050 A 
ATOM     12  C   UNL     1      -7.567   1.162   2.390  0.00  0.00    +0.005 A 
ATOM     13  C   UNL     1      -6.503   1.374   3.247  0.00  0.00    +0.029 A 
ATOM     14  C   UNL     1      -6.016   2.653   3.440  0.00  0.00    +0.105 A 
ATOM     15  C   UNL     1      -6.596   3.721   2.782  0.00  0.00    +0.029 A 
ATOM     16  C   UNL     1      -7.658   3.509   1.922  0.00  0.00    +0.005 A 
ENDBRANCH   7  14
ENDBRANCH   1   7
BRANCH   4  17
ATOM     17  C   UNL     1      -1.239   2.152   0.020  0.00  0.00    +0.205 C 
BRANCH  17  18
ATOM     18  N   UNL     1      -0.016   1.345   0.009  0.00  0.00    -0.211 N 
ATOM     19  C   UNL     1       0.002  -0.004   0.002  0.00  0.00    +0.248 C 
ATOM     20  O   UNL     1      -0.953  -0.751   0.007  0.00  0.00    -0.273 OA
ATOM     21  C   UNL     1       1.464  -0.388  -0.014  0.00  0.00    +0.115 C 
ATOM     22  C   UNL     1       1.792  -1.178  -1.276  0.00  0.00    +0.035 C 
ATOM     23  C   UNL     1       3.281  -1.532  -1.287  0.00  0.00    +0.003 C 
ATOM     24  C   UNL     1       3.616  -2.361  -0.045  0.00  0.00    +0.000 C 
ATOM     25  C   UNL     1       3.305  -1.546   1.212  0.00  0.00    +0.006 C 
ATOM     26  C   UNL     1       1.816  -1.192   1.233  0.00  0.00    +0.018 C 
ATOM     27  C   UNL     1       1.508  -0.359   2.479  0.00  0.00    +0.010 C 
ATOM     28  N   UNL     1       2.171   0.899  -0.014  0.00  0.00    -0.285 N 
ATOM     29  C   UNL     1       1.222   1.855   0.000  0.00  0.00    +0.310 C 
ATOM     30  O   UNL     1       1.462   3.046   0.004  0.00  0.00    -0.252 OA
ATOM     31  H   UNL     1       3.270   0.923  -0.024  0.00  0.00    +0.151 HD
ENDBRANCH  17  18
ENDBRANCH   4  17
TORSDOF 4
