REMARK  Name = ZINC61618300
REMARK  2 active torsions:
REMARK  status: ('A' for Active; 'I' for Inactive)
REMARK    1  A    between atoms: C_4  and  C_7
REMARK    2  A    between atoms: C_7  and  C_10
REMARK                            x       y       z     vdW  Elec       q    Type
REMARK                         _______ _______ _______ _____ _____    ______ ____
ROOT
ATOM      1  C   UNL     1       4.783  -0.102  -0.908  0.00  0.00    +0.149 A 
ATOM      2  N   UNL     1       5.988   0.234  -0.528  0.00  0.00    -0.133 NA
ATOM      3  N   UNL     1       6.650   0.722  -1.520  0.00  0.00    -0.129 NA
ATOM      4  C   UNL     1       5.891   0.722  -2.598  0.00  0.00    +0.165 A 
ATOM      5  N   UNL     1       4.675   0.188  -2.232  0.00  0.00    -0.269 N 
ATOM      6  C   UNL     1       3.690   0.064  -3.160  0.00  0.00    +0.208 A 
ATOM      7  N   UNL     1       3.879   0.440  -4.394  0.00  0.00    -0.225 NA
ATOM      8  C   UNL     1       5.039   0.962  -4.808  0.00  0.00    +0.134 A 
ATOM      9  C   UNL     1       6.072   1.126  -3.936  0.00  0.00    +0.088 A 
ATOM     10 CL   UNL     1       5.225   1.443  -6.465  0.00  0.00    -0.062 Cl
ENDROOT
BRANCH   1  11
ATOM     11  C   UNL     1       3.711  -0.707  -0.038  0.00  0.00    +0.056 C 
ATOM     12  C   UNL     1       4.156  -1.404   1.250  0.00  0.00    +0.020 C 
ATOM     13  C   UNL     1       3.660  -2.233   0.063  0.00  0.00    +0.020 C 
BRANCH  11  17
ATOM     14  C   UNL     1      -0.004   1.399   0.040  0.00  0.00    +0.000 A 
ATOM     15  C   UNL     1       1.188   2.099   0.059  0.00  0.00    +0.000 A 
ATOM     16  C   UNL     1       2.390   1.418   0.034  0.00  0.00    +0.004 A 
ATOM     17  C   UNL     1       2.400   0.036  -0.009  0.00  0.00    -0.034 A 
ATOM     18  C   UNL     1       1.208  -0.664  -0.028  0.00  0.00    +0.004 A 
ATOM     19  C   UNL     1       0.006   0.018  -0.004  0.00  0.00    +0.000 A 
ENDBRANCH  11  17
ENDBRANCH   1  11
TORSDOF 2
