REMARK  Name = ZINC00843841
REMARK  10 active torsions:
REMARK  status: ('A' for Active; 'I' for Inactive)
REMARK    1  A    between atoms: C_1  and  C_2
REMARK    2  A    between atoms: C_2  and  C_4
REMARK    3  A    between atoms: C_7  and  N_10
REMARK    4  A    between atoms: N_10  and  S_11
REMARK    5  A    between atoms: S_11  and  C_14
REMARK    6  A    between atoms: C_25  and  S_27
REMARK    7  A    between atoms: S_27  and  N_30
REMARK    8  A    between atoms: N_30  and  C_31
REMARK    9  A    between atoms: C_34  and  C_37
REMARK   10  A    between atoms: C_37  and  C_39
REMARK                            x       y       z     vdW  Elec       q    Type
REMARK                         _______ _______ _______ _____ _____    ______ ____
ROOT
ATOM      1  C   UNL     1      -1.503  -0.785   1.219  0.00  0.00    +0.109 A 
ATOM      2  C   UNL     1      -1.501   0.597   1.154  0.00  0.00    +0.029 A 
ATOM      3  C   UNL     1      -0.333   1.277   0.878  0.00  0.00    +0.011 A 
ATOM      4  C   UNL     1       0.852   0.571   0.664  0.00  0.00    -0.014 A 
ATOM      5  C   UNL     1       0.839  -0.820   0.732  0.00  0.00    -0.033 A 
ATOM      6  C   UNL     1      -0.333  -1.492   1.008  0.00  0.00    +0.033 A 
ATOM      7  C   UNL     1       2.244  -1.300   0.462  0.00  0.00    +0.071 C 
ATOM      8  C   UNL     1       3.072  -0.060   0.231  0.00  0.00    -0.033 A 
ATOM      9  C   UNL     1       2.226   1.038   0.355  0.00  0.00    -0.014 A 
ATOM     10  C   UNL     1       2.744   2.324   0.187  0.00  0.00    +0.011 A 
ATOM     11  C   UNL     1       4.082   2.495  -0.100  0.00  0.00    +0.029 A 
ATOM     12  C   UNL     1       4.915   1.397  -0.222  0.00  0.00    +0.109 A 
ATOM     13  C   UNL     1       4.409   0.120  -0.056  0.00  0.00    +0.033 A 
ENDROOT
BRANCH   1  14
ATOM     14  S   UNL     1      -2.999  -1.647   1.572  0.00  0.00    +0.072 S 
ATOM     15  O   UNL     1      -2.626  -2.946   2.010  0.00  0.00    -0.150 OA
ATOM     16  O   UNL     1      -3.793  -0.774   2.364  0.00  0.00    -0.150 OA
BRANCH  14  17
ATOM     17  N   UNL     1      -3.801  -1.844   0.136  0.00  0.00    -0.216 N 
ATOM     18  H   UNL     1      -3.988  -2.736  -0.197  0.00  0.00    +0.174 HD
BRANCH  17  22
ATOM     19  C   UNL     1      -5.010   1.478  -2.040  0.00  0.00    +0.017 A 
ATOM     20  C   UNL     1      -4.365   0.414  -2.683  0.00  0.00    +0.013 A 
ATOM     21  C   UNL     1      -3.969  -0.677  -1.964  0.00  0.00    +0.025 A 
ATOM     22  C   UNL     1      -4.205  -0.732  -0.592  0.00  0.00    +0.048 A 
ATOM     23  C   UNL     1      -4.851   0.322   0.051  0.00  0.00    +0.025 A 
ATOM     24  C   UNL     1      -5.246   1.418  -0.660  0.00  0.00    +0.013 A 
BRANCH  19  26
ATOM     25  C   UNL     1      -6.018   3.849  -2.098  0.00  0.00    +0.091 C 
ATOM     26  C   UNL     1      -5.438   2.653  -2.809  0.00  0.00    +0.160 C 
ATOM     27  O   UNL     1      -5.323   2.662  -4.016  0.00  0.00    -0.292 OA
ENDBRANCH  19  26
ENDBRANCH  17  22
ENDBRANCH  14  17
ENDBRANCH   1  14
BRANCH  12  28
ATOM     28  S   UNL     1       6.623   1.625  -0.589  0.00  0.00    +0.072 S 
ATOM     29  O   UNL     1       6.989   2.888  -0.051  0.00  0.00    -0.150 OA
ATOM     30  O   UNL     1       7.282   0.421  -0.222  0.00  0.00    -0.150 OA
BRANCH  28  31
ATOM     31  N   UNL     1       6.757   1.756  -2.235  0.00  0.00    -0.216 N 
ATOM     32  H   UNL     1       7.108   2.569  -2.630  0.00  0.00    +0.174 HD
BRANCH  31  33
ATOM     33  C   UNL     1       6.368   0.700  -3.049  0.00  0.00    +0.048 A 
ATOM     34  C   UNL     1       6.772  -0.598  -2.745  0.00  0.00    +0.025 A 
ATOM     35  C   UNL     1       6.387  -1.639  -3.540  0.00  0.00    +0.013 A 
ATOM     36  C   UNL     1       5.593  -1.399  -4.669  0.00  0.00    +0.017 A 
ATOM     37  C   UNL     1       5.193  -0.092  -4.974  0.00  0.00    +0.013 A 
ATOM     38  C   UNL     1       5.578   0.943  -4.170  0.00  0.00    +0.025 A 
BRANCH  36  39
ATOM     39  C   UNL     1       5.181  -2.514  -5.529  0.00  0.00    +0.160 C 
ATOM     40  O   UNL     1       4.579  -2.296  -6.559  0.00  0.00    -0.292 OA
ATOM     41  C   UNL     1       5.506  -3.932  -5.133  0.00  0.00    +0.091 C 
ENDBRANCH  36  39
ENDBRANCH  31  33
ENDBRANCH  28  31
ENDBRANCH  12  28
TORSDOF 8
