REMARK  Name = ZINC08143568
REMARK  17 active torsions:
REMARK  status: ('A' for Active; 'I' for Inactive)
REMARK    1  A    between atoms: C_1  and  C_2
REMARK    2  A    between atoms: C_4  and  O_54
REMARK    3  A    between atoms: C_6  and  O_53
REMARK    4  A    between atoms: C_8  and  O_52
REMARK    5  A    between atoms: C_10  and  O_13
REMARK    6  A    between atoms: O_13  and  C_14
REMARK    7  A    between atoms: C_14  and  C_15
REMARK    8  A    between atoms: C_17  and  O_51
REMARK    9  A    between atoms: C_19  and  O_50
REMARK   10  A    between atoms: C_21  and  O_49
REMARK   11  A    between atoms: C_23  and  O_26
REMARK   12  A    between atoms: O_26  and  C_27
REMARK   13  A    between atoms: C_29  and  O_48
REMARK   14  A    between atoms: C_34  and  C_39
REMARK   15  A    between atoms: C_42  and  O_46
REMARK   16  A    between atoms: C_43  and  O_45
REMARK   17  A    between atoms: O_46  and  C_47
REMARK                            x       y       z     vdW  Elec       q    Type
REMARK                         _______ _______ _______ _____ _____    ______ ____
ROOT
ATOM      1  C   UNL     1       2.098   1.155  -1.128  0.00  0.00    +0.179 C 
ATOM      2  C   UNL     1       1.444   1.665  -2.414  0.00  0.00    +0.177 C 
ATOM      3  C   UNL     1       0.005   1.145  -2.487  0.00  0.00    +0.180 C 
ATOM      4  C   UNL     1      -0.752   1.593  -1.233  0.00  0.00    +0.214 C 
ATOM      5  C   UNL     1      -0.013   1.086   0.008  0.00  0.00    +0.339 C 
ATOM      6  O   UNL     1       1.328   1.581  -0.002  0.00  0.00    -0.331 OA
ENDROOT
BRANCH   4   7
ATOM      7  O   UNL     1      -2.075   1.053  -1.255  0.00  0.00    -0.383 OA
ATOM      8  H   UNL     1      -2.610   1.293  -0.486  0.00  0.00    +0.210 HD
ENDBRANCH   4   7
BRANCH   3   9
ATOM      9  O   UNL     1      -0.636   1.675  -3.649  0.00  0.00    -0.386 OA
ATOM     10  H   UNL     1      -1.553   1.386  -3.758  0.00  0.00    +0.210 HD
ENDBRANCH   3   9
BRANCH   2  11
ATOM     11  O   UNL     1       2.180   1.193  -3.545  0.00  0.00    -0.386 OA
ATOM     12  H   UNL     1       1.821   1.479  -4.396  0.00  0.00    +0.210 HD
ENDBRANCH   2  11
BRANCH   1  13
ATOM     13  C   UNL     1       3.516   1.719  -1.018  0.00  0.00    +0.197 C 
BRANCH  13  14
ATOM     14  O   UNL     1       4.167   1.153   0.121  0.00  0.00    -0.346 OA
BRANCH  14  20
ATOM     15  C   UNL     1       7.242  -0.578  -2.150  0.00  0.00    +0.041 C 
ATOM     16  C   UNL     1       6.366  -0.235  -0.944  0.00  0.00    +0.149 C 
ATOM     17  C   UNL     1       6.953  -0.881   0.314  0.00  0.00    +0.174 C 
ATOM     18  C   UNL     1       6.104  -0.484   1.526  0.00  0.00    +0.179 C 
ATOM     19  C   UNL     1       6.058   1.044   1.624  0.00  0.00    +0.201 C 
ATOM     20  C   UNL     1       5.505   1.616   0.316  0.00  0.00    +0.282 C 
ATOM     21  O   UNL     1       6.322   1.183  -0.774  0.00  0.00    -0.343 OA
BRANCH  19  22
ATOM     22  O   UNL     1       7.375   1.550   1.847  0.00  0.00    -0.384 OA
ATOM     23  H   UNL     1       7.421   2.513   1.916  0.00  0.00    +0.210 HD
ENDBRANCH  19  22
BRANCH  18  24
ATOM     24  O   UNL     1       6.687  -1.022   2.714  0.00  0.00    -0.386 OA
ATOM     25  H   UNL     1       6.204  -0.803   3.523  0.00  0.00    +0.210 HD
ENDBRANCH  18  24
BRANCH  17  26
ATOM     26  O   UNL     1       6.944  -2.302   0.169  0.00  0.00    -0.387 OA
ATOM     27  H   UNL     1       7.462  -2.625  -0.580  0.00  0.00    +0.210 HD
ENDBRANCH  17  26
ENDBRANCH  14  20
ENDBRANCH  13  14
ENDBRANCH   1  13
BRANCH   5  28
ATOM     28  O   UNL     1      -0.682   1.547   1.183  0.00  0.00    -0.461 OA
BRANCH  28  29
ATOM     29  C   UNL     1      -0.213   1.098   2.375  0.00  0.00    +0.131 A 
ATOM     30  C   UNL     1       0.871   0.230   2.405  0.00  0.00    +0.092 A 
ATOM     31  C   UNL     1       1.355  -0.234   3.615  0.00  0.00    +0.134 A 
ATOM     32  C   UNL     1       0.740   0.177   4.808  0.00  0.00    +0.101 A 
ATOM     33  C   UNL     1      -0.354   1.061   4.774  0.00  0.00    +0.139 A 
ATOM     34  C   UNL     1      -0.819   1.516   3.553  0.00  0.00    +0.092 A 
ATOM     35  O   UNL     1      -0.946   1.474   5.919  0.00  0.00    -0.483 OA
ATOM     36  C   UNL     1      -0.801   0.674   7.093  0.00  0.00    +0.211 C 
ATOM     37  C   UNL     1       0.689   0.398   7.338  0.00  0.00    +0.129 C 
ATOM     38  C   UNL     1       1.223  -0.309   6.105  0.00  0.00    +0.174 C 
ATOM     39  O   UNL     1       2.010  -1.230   6.189  0.00  0.00    -0.292 OA
BRANCH  36  40
ATOM     40  C   UNL     1      -1.378   1.408   8.276  0.00  0.00    -0.003 A 
ATOM     41  C   UNL     1      -1.271   2.784   8.354  0.00  0.00    +0.011 A 
ATOM     42  C   UNL     1      -1.799   3.462   9.437  0.00  0.00    +0.050 A 
ATOM     43  C   UNL     1      -2.437   2.761  10.448  0.00  0.00    +0.161 A 
ATOM     44  C   UNL     1      -2.545   1.376  10.370  0.00  0.00    +0.159 A 
ATOM     45  C   UNL     1      -2.018   0.704   9.279  0.00  0.00    +0.056 A 
BRANCH  44  46
ATOM     46  O   UNL     1      -3.170   0.684  11.360  0.00  0.00    -0.503 OA
ATOM     47  H   UNL     1      -4.120   0.568  11.220  0.00  0.00    +0.292 HD
ENDBRANCH  44  46
BRANCH  43  48
ATOM     48  O   UNL     1      -2.957   3.426  11.515  0.00  0.00    -0.491 OA
ATOM     49  C   UNL     1      -2.809   4.848  11.528  0.00  0.00    +0.277 C 
ENDBRANCH  43  48
ENDBRANCH  36  40
BRANCH  31  50
ATOM     50  O   UNL     1       2.414  -1.079   3.648  0.00  0.00    -0.506 OA
ATOM     51  H   UNL     1       3.271  -0.634   3.703  0.00  0.00    +0.292 HD
ENDBRANCH  31  50
ENDBRANCH  28  29
ENDBRANCH   5  28
TORSDOF 15
