REMARK  Name = ZINC59029300
REMARK  15 active torsions:
REMARK  status: ('A' for Active; 'I' for Inactive)
REMARK    1  A    between atoms: C_1  and  C_2
REMARK    2  A    between atoms: C_2  and  C_3
REMARK    3  A    between atoms: C_3  and  C_4
REMARK    4  A    between atoms: C_4  and  C_5
REMARK    5  A    between atoms: C_5  and  N_6
REMARK    6  A    between atoms: N_6  and  C_7
REMARK    7  A    between atoms: C_7  and  N_9
REMARK    8  A    between atoms: N_9  and  C_10
REMARK    9  A    between atoms: N_9  and  C_16
REMARK   10  A    between atoms: C_10  and  C_11
REMARK   11  A    between atoms: C_16  and  C_17
REMARK   12  A    between atoms: C_19  and  O_25
REMARK   13  A    between atoms: C_22  and  O_23
REMARK   14  A    between atoms: O_23  and  C_24
REMARK   15  A    between atoms: O_25  and  C_26
REMARK                            x       y       z     vdW  Elec       q    Type
REMARK                         _______ _______ _______ _____ _____    ______ ____
ROOT
ATOM      1  N   UNL     1       2.076  -5.994  -3.559  0.00  0.00    -0.301 N 
ENDROOT
BRANCH   1   2
ATOM      2  C   UNL     1       2.058  -4.646  -3.552  0.00  0.00    +0.134 C 
ATOM      3  S   UNL     1       2.775  -3.773  -4.838  0.00  0.00    -0.019 S 
BRANCH   2   4
ATOM      4  N   UNL     1       1.475  -3.986  -2.532  0.00  0.00    -0.326 N 
ATOM      5  H   UNL     1       1.069  -4.480  -1.803  0.00  0.00    +0.148 HD
BRANCH   4   6
ATOM      6  C   UNL     1       1.455  -2.521  -2.524  0.00  0.00    +0.103 C 
BRANCH   6   7
ATOM      7  C   UNL     1       0.739  -2.027  -1.265  0.00  0.00    +0.019 C 
BRANCH   7   8
ATOM      8  C   UNL     1       0.718  -0.497  -1.257  0.00  0.00    +0.001 C 
BRANCH   8  10
ATOM      9  C   UNL     1      -0.019   1.526   0.010  0.00  0.00    +0.004 C 
ATOM     10  C   UNL     1       0.002  -0.004   0.002  0.00  0.00    -0.003 C 
ENDBRANCH   8  10
ENDBRANCH   7   8
ENDBRANCH   6   7
ENDBRANCH   4   6
ENDBRANCH   2   4
ENDBRANCH   1   2
BRANCH   1  11
ATOM     11  C   UNL     1       1.462  -6.741  -2.459  0.00  0.00    +0.181 C 
BRANCH  11  12
ATOM     12  C   UNL     1       0.015  -7.010  -2.780  0.00  0.00    +0.122 A 
ATOM     13  C   UNL     1      -0.460  -8.091  -3.423  0.00  0.00    +0.046 A 
ATOM     14  C   UNL     1      -1.863  -7.934  -3.508  0.00  0.00    +0.041 A 
ATOM     15  C   UNL     1      -2.161  -6.766  -2.912  0.00  0.00    +0.195 A 
ATOM     16  O   UNL     1      -1.020  -6.213  -2.468  0.00  0.00    -0.466 OA
ENDBRANCH  11  12
ENDBRANCH   1  11
BRANCH   1  17
ATOM     17  C   UNL     1       2.710  -6.712  -4.668  0.00  0.00    +0.146 C 
BRANCH  17  18
ATOM     18  C   UNL     1       4.164  -6.945  -4.350  0.00  0.00    +0.015 A 
ATOM     19  C   UNL     1       5.131  -6.118  -4.889  0.00  0.00    +0.054 A 
ATOM     20  C   UNL     1       6.469  -6.332  -4.595  0.00  0.00    +0.121 A 
ATOM     21  C   UNL     1       6.837  -7.377  -3.760  0.00  0.00    +0.049 A 
ATOM     22  C   UNL     1       5.871  -8.204  -3.221  0.00  0.00    +0.049 A 
ATOM     23  C   UNL     1       4.532  -7.986  -3.511  0.00  0.00    +0.125 A 
BRANCH  23  24
ATOM     24  O   UNL     1       3.580  -8.797  -2.976  0.00  0.00    -0.495 OA
ATOM     25  C   UNL     1       4.031  -9.849  -2.120  0.00  0.00    +0.277 C 
ENDBRANCH  23  24
BRANCH  20  26
ATOM     26  O   UNL     1       7.420  -5.518  -5.126  0.00  0.00    -0.495 OA
ATOM     27  C   UNL     1       8.779  -5.797  -4.781  0.00  0.00    +0.277 C 
ENDBRANCH  20  26
ENDBRANCH  17  18
ENDBRANCH   1  17
TORSDOF 12
