REMARK  Name = ZINC13057304
REMARK  8 active torsions:
REMARK  status: ('A' for Active; 'I' for Inactive)
REMARK    1  A    between atoms: C_1  and  N_2
REMARK    2  A    between atoms: N_2  and  C_3
REMARK    3  A    between atoms: N_2  and  C_4
REMARK    4  A    between atoms: C_7  and  C_27
REMARK    5  A    between atoms: C_9  and  N_10
REMARK    6  A    between atoms: C_11  and  C_13
REMARK    7  A    between atoms: C_17  and  S_19
REMARK    8  A    between atoms: S_19  and  N_22
REMARK                            x       y       z     vdW  Elec       q    Type
REMARK                         _______ _______ _______ _____ _____    ______ ____
ROOT
ATOM      1  N   UNL     1       0.080   2.798   4.721  0.00  0.00    -0.280 N 
ATOM      2  C   UNL     1       1.392   2.495   4.772  0.00  0.00    +0.248 C 
ATOM      3  O   UNL     1       1.965   2.103   3.773  0.00  0.00    -0.270 OA
ATOM      4  H   UNL     1      -0.362   3.172   5.499  0.00  0.00    +0.155 HD
ENDROOT
BRANCH   1  10
ATOM      5  C   UNL     1      -1.982   2.175   3.612  0.00  0.00    +0.051 A 
ATOM      6  C   UNL     1      -2.694   1.953   2.443  0.00  0.00    +0.025 A 
ATOM      7  C   UNL     1      -2.082   2.129   1.216  0.00  0.00    +0.014 A 
ATOM      8  C   UNL     1      -0.757   2.516   1.149  0.00  0.00    +0.057 A 
ATOM      9  C   UNL     1      -0.038   2.740   2.309  0.00  0.00    +0.037 A 
ATOM     10  C   UNL     1      -0.646   2.572   3.544  0.00  0.00    +0.055 A 
BRANCH   8  11
ATOM     11  C   UNL     1      -0.094   2.700  -0.192  0.00  0.00    +0.417 C 
ATOM     12  F   UNL     1       0.486   1.493  -0.595  0.00  0.00    -0.166 F 
ATOM     13  F   UNL     1       0.896   3.684  -0.092  0.00  0.00    -0.166 F 
ATOM     14  F   UNL     1      -1.050   3.096  -1.133  0.00  0.00    -0.166 F 
ENDBRANCH   8  11
BRANCH   5  16
ATOM     15  C   UNL     1      -3.755   2.901   4.996  0.00  0.00    +0.129 C 
ATOM     16  N   UNL     1      -2.601   2.004   4.855  0.00  0.00    -0.335 N 
ATOM     17  C   UNL     1      -2.995   0.603   5.057  0.00  0.00    +0.129 C 
ENDBRANCH   5  16
ENDBRANCH   1  10
BRANCH   2  18
ATOM     18  C   UNL     1       2.136   2.641   6.041  0.00  0.00    +0.039 A 
ATOM     19  C   UNL     1       1.482   3.091   7.189  0.00  0.00    +0.013 A 
ATOM     20  C   UNL     1       2.181   3.224   8.370  0.00  0.00    +0.003 A 
ATOM     21  C   UNL     1       3.528   2.912   8.419  0.00  0.00    +0.028 A 
ATOM     22  C   UNL     1       4.183   2.465   7.285  0.00  0.00    +0.106 A 
ATOM     23  C   UNL     1       3.494   2.323   6.098  0.00  0.00    +0.041 A 
BRANCH  22  24
ATOM     24  S   UNL     1       5.898   2.071   7.358  0.00  0.00    +0.061 S 
ATOM     25  O   UNL     1       6.401   2.196   6.035  0.00  0.00    -0.153 OA
ATOM     26  O   UNL     1       6.437   2.803   8.450  0.00  0.00    -0.153 OA
BRANCH  24  27
ATOM     27  N   UNL     1       6.016   0.468   7.759  0.00  0.00    -0.177 NA
ATOM     28  C   UNL     1       6.100  -0.070   9.125  0.00  0.00    +0.109 C 
ATOM     29  C   UNL     1       6.219  -1.603   9.007  0.00  0.00    +0.018 C 
ATOM     30  C   UNL     1       6.772  -1.798   7.570  0.00  0.00    +0.018 C 
ATOM     31  C   UNL     1       6.059  -0.655   6.805  0.00  0.00    +0.109 C 
ENDBRANCH  24  27
ENDBRANCH  22  24
ENDBRANCH   2  18
TORSDOF 6
