REMARK  Name = ZINC21152557
REMARK  5 active torsions:
REMARK  status: ('A' for Active; 'I' for Inactive)
REMARK    1  A    between atoms: C_1  and  C_2
REMARK    2  A    between atoms: N_12  and  S_15
REMARK    3  A    between atoms: S_15  and  C_18
REMARK    4  A    between atoms: C_25  and  C_31
REMARK    5  A    between atoms: C_28  and  C_30
REMARK                            x       y       z     vdW  Elec       q    Type
REMARK                         _______ _______ _______ _____ _____    ______ ____
ROOT
ATOM      1  C   UNL     1      -2.524   6.199  -7.891  0.00  0.00    +0.044 C 
ATOM      2  C   UNL     1      -3.669   6.239  -6.912  0.00  0.00    -0.049 A 
ATOM      3  C   UNL     1      -4.776   7.024  -7.180  0.00  0.00    +0.005 A 
ATOM      4  C   UNL     1      -5.827   7.074  -6.282  0.00  0.00    +0.028 A 
ATOM      5  C   UNL     1      -5.767   6.337  -5.115  0.00  0.00    +0.067 A 
ATOM      6  C   UNL     1      -4.659   5.526  -4.848  0.00  0.00    +0.052 A 
ATOM      7  C   UNL     1      -3.607   5.490  -5.751  0.00  0.00    +0.028 A 
ATOM      8  N   UNL     1      -4.618   4.756  -3.680  0.00  0.00    -0.331 N 
ATOM      9  C   UNL     1      -5.322   5.206  -2.471  0.00  0.00    +0.075 C 
ATOM     10  C   UNL     1      -5.623   4.003  -1.578  0.00  0.00    +0.049 C 
ATOM     11  C   UNL     1      -4.309   3.316  -1.190  0.00  0.00    +0.112 C 
ATOM     12  N   UNL     1      -3.417   4.314  -0.584  0.00  0.00    -0.176 NA
ATOM     13  C   UNL     1      -3.134   5.551  -1.324  0.00  0.00    +0.112 C 
ATOM     14  C   UNL     1      -4.454   6.212  -1.716  0.00  0.00    +0.049 C 
ATOM     15  C   UNL     1      -6.612   5.861  -2.895  0.00  0.00    +0.047 A 
ATOM     16  N   UNL     1      -6.786   6.394  -4.153  0.00  0.00    -0.316 N 
ATOM     17  C   UNL     1      -8.025   6.936  -4.226  0.00  0.00    +0.092 A 
ATOM     18  C   UNL     1      -8.646   6.731  -3.042  0.00  0.00    +0.020 A 
ATOM     19  C   UNL     1      -7.742   6.042  -2.202  0.00  0.00    +0.025 A 
ATOM     20  H   UNL     1      -4.057   3.810  -3.670  0.00  0.00    +0.147 HD
ENDROOT
BRANCH  12  21
ATOM     21  S   UNL     1      -2.749   4.052   0.908  0.00  0.00    +0.061 S 
ATOM     22  O   UNL     1      -3.600   3.132   1.578  0.00  0.00    -0.153 OA
ATOM     23  O   UNL     1      -2.437   5.330   1.444  0.00  0.00    -0.153 OA
BRANCH  21  24
ATOM     24  C   UNL     1      -1.214   3.224   0.654  0.00  0.00    +0.106 A 
ATOM     25  C   UNL     1      -1.170   1.843   0.614  0.00  0.00    +0.030 A 
ATOM     26  C   UNL     1       0.030   1.192   0.421  0.00  0.00    +0.026 A 
ATOM     27  C   UNL     1       1.208   1.923   0.253  0.00  0.00    +0.040 A 
ATOM     28  C   UNL     1       1.152   3.307   0.289  0.00  0.00    -0.022 A 
ATOM     29  C   UNL     1      -0.052   3.955   0.489  0.00  0.00    +0.034 A 
ATOM     30  C   UNL     1       2.548   3.851   0.084  0.00  0.00    +0.059 C 
ATOM     31  C   UNL     1       3.430   2.602  -0.078  0.00  0.00    +0.083 C 
ATOM     32  N   UNL     1       2.512   1.466   0.041  0.00  0.00    -0.268 N 
ATOM     33  C   UNL     1       2.873   0.170  -0.041  0.00  0.00    +0.217 C 
ATOM     34  O   UNL     1       2.024  -0.697  -0.045  0.00  0.00    -0.276 OA
ATOM     35  C   UNL     1       4.331  -0.203  -0.126  0.00  0.00    +0.109 C 
ATOM     36  C   UNL     1       4.100   2.601  -1.453  0.00  0.00    +0.029 C 
ENDBRANCH  21  24
ENDBRANCH  12  21
TORSDOF 2
