REMARK  Name = ZINC15011490
REMARK  2 active torsions:
REMARK  status: ('A' for Active; 'I' for Inactive)
REMARK    1  A    between atoms: C_6  and  C_7
REMARK    2  A    between atoms: N_9  and  C_10
REMARK                            x       y       z     vdW  Elec       q    Type
REMARK                         _______ _______ _______ _____ _____    ______ ____
ROOT
ATOM      1  C   UNL     1      -0.017   1.394   0.026  0.00  0.00    +0.015 A 
ATOM      2  C   UNL     1       1.147   2.118   0.026  0.00  0.00    +0.025 A 
ATOM      3  C   UNL     1       2.400   1.476   0.009  0.00  0.00    +0.050 A 
ATOM      4  C   UNL     1       2.393   0.076  -0.009  0.00  0.00    +0.037 A 
ATOM      5  C   UNL     1       1.238  -0.662  -0.009  0.00  0.00    +0.030 A 
ATOM      6  C   UNL     1       0.002  -0.004   0.008  0.00  0.00    +0.038 A 
ATOM      7  S   UNL     1       4.119  -0.345  -0.029  0.00  0.00    -0.051 S 
ATOM      8  C   UNL     1       4.769   1.311  -0.019  0.00  0.00    +0.186 C 
ATOM      9  N   UNL     1       6.023   1.643  -0.036  0.00  0.00    -0.110 NA
ATOM     10  S   UNL     1       6.426   3.256  -0.024  0.00  0.00    +0.073 S 
ATOM     11  O   UNL     1       6.559   3.594   1.350  0.00  0.00    -0.151 OA
ATOM     12  O   UNL     1       7.530   3.368  -0.912  0.00  0.00    -0.151 OA
ATOM     13  C   UNL     1       4.956   4.057  -0.735  0.00  0.00    +0.212 C 
ATOM     14  C   UNL     1       3.723   3.592   0.044  0.00  0.00    +0.137 C 
ATOM     15  N   UNL     1       3.647   2.109   0.009  0.00  0.00    -0.276 N 
ENDROOT
BRANCH   6  16
ATOM     16  C   UNL     1      -1.258  -0.772   0.009  0.00  0.00    +0.248 C 
ATOM     17  O   UNL     1      -1.229  -1.988  -0.007  0.00  0.00    -0.270 OA
ATOM     18  N   UNL     1      -2.441  -0.127   0.026  0.00  0.00    -0.281 N 
ATOM     19  H   UNL     1      -2.465   0.840   0.106  0.00  0.00    +0.155 HD
BRANCH  18  20
ATOM     20  C   UNL     1      -3.635  -0.850  -0.072  0.00  0.00    +0.037 A 
ATOM     21  C   UNL     1      -4.717  -0.317  -0.760  0.00  0.00    +0.026 A 
ATOM     22  C   UNL     1      -5.894  -1.032  -0.856  0.00  0.00    +0.043 A 
ATOM     23  C   UNL     1      -5.998  -2.281  -0.267  0.00  0.00    +0.159 A 
ATOM     24  C   UNL     1      -4.919  -2.816   0.420  0.00  0.00    +0.160 A 
ATOM     25  C   UNL     1      -3.736  -2.105   0.514  0.00  0.00    +0.064 A 
ATOM     26  F   UNL     1      -5.022  -4.035   0.995  0.00  0.00    -0.202 F 
ATOM     27  F   UNL     1      -7.151  -2.978  -0.362  0.00  0.00    -0.202 F 
ENDBRANCH  18  20
ENDBRANCH   6  16
TORSDOF 2
