REMARK  Name = ZINC16001093
REMARK  4 active torsions:
REMARK  status: ('A' for Active; 'I' for Inactive)
REMARK    1  A    between atoms: C_1  and  C_2
REMARK    2  A    between atoms: C_5  and  N_11
REMARK    3  A    between atoms: C_7  and  N_8
REMARK    4  A    between atoms: C_31  and  C_36
REMARK                            x       y       z     vdW  Elec       q    Type
REMARK                         _______ _______ _______ _____ _____    ______ ____
ROOT
ATOM      1  N   UNL     1       3.630   1.941   3.441  0.00  0.00    -0.210 N 
ATOM      2  C   UNL     1       3.172   0.721   3.138  0.00  0.00    +0.228 C 
ATOM      3  O   UNL     1       3.754  -0.320   3.358  0.00  0.00    -0.275 OA
ATOM      4  C   UNL     1       1.817   0.842   2.479  0.00  0.00    +0.074 C 
ATOM      5  C   UNL     1       1.929   0.428   1.000  0.00  0.00    -0.054 C 
ATOM      6  C   UNL     1       1.071  -0.833   0.759  0.00  0.00    -0.016 C 
ATOM      7  C   UNL     1      -0.371  -0.284   0.707  0.00  0.00    -0.020 C 
ATOM      8  C   UNL     1      -0.225   1.208   0.367  0.00  0.00    -0.076 C 
ATOM      9  N   UNL     1       1.216   1.500   0.240  0.00  0.00    +0.395 N 
ATOM     10  C   UNL     1       1.547   2.740   0.965  0.00  0.00    +0.053 C 
ATOM     11  C   UNL     1       1.567   2.375   2.453  0.00  0.00    +0.089 C 
ATOM     12  C   UNL     1       2.809   2.942   3.102  0.00  0.00    +0.229 C 
ATOM     13  O   UNL     1       3.028   4.120   3.285  0.00  0.00    -0.275 OA
ATOM     14  C   UNL     1       0.550   3.827   0.677  0.00  0.00    -0.027 A 
ATOM     15  C   UNL     1      -0.811   3.937   0.856  0.00  0.00    +0.006 A 
ATOM     16  C   UNL     1      -1.467   5.095   0.482  0.00  0.00    +0.020 A 
ATOM     17  C   UNL     1      -0.753   6.143  -0.072  0.00  0.00    +0.046 A 
ATOM     18  C   UNL     1       0.611   6.038  -0.253  0.00  0.00    -0.011 A 
ATOM     19  C   UNL     1       1.279   4.874   0.122  0.00  0.00    +0.040 A 
ATOM     20  N   UNL     1       2.632   4.534   0.043  0.00  0.00    -0.286 N 
ATOM     21  C   UNL     1       2.872   3.297   0.519  0.00  0.00    +0.212 C 
ATOM     22  O   UNL     1       3.948   2.740   0.577  0.00  0.00    -0.277 OA
ATOM     23  C   UNL     1       1.380   7.184  -0.857  0.00  0.00    +0.047 C 
ATOM     24 CL   UNL     1      -1.577   7.597  -0.543  0.00  0.00    -0.083 Cl
ATOM     25  H   UNL     1       3.356   5.250  -0.372  0.00  0.00    +0.155 HD
ATOM     26  H   UNL     1       1.480   1.580  -0.825  0.00  0.00    -0.079 HD
ENDROOT
BRANCH   1  31
ATOM     27  C   UNL     1       8.642   2.800   5.962  0.00  0.00    +0.046 C 
ATOM     28  C   UNL     1       7.311   2.573   5.293  0.00  0.00    -0.020 A 
ATOM     29  C   UNL     1       6.140   2.865   5.968  0.00  0.00    +0.007 A 
ATOM     30  C   UNL     1       4.919   2.657   5.357  0.00  0.00    +0.024 A 
ATOM     31  C   UNL     1       4.867   2.154   4.064  0.00  0.00    +0.046 A 
ATOM     32  C   UNL     1       6.045   1.857   3.391  0.00  0.00    +0.057 A 
ATOM     33  C   UNL     1       7.263   2.072   4.005  0.00  0.00    +0.131 A 
BRANCH  33  34
ATOM     34  N   UNL     1       8.519   1.760   3.286  0.00  0.00    +0.057 N 
ATOM     35  O   UNL     1       8.483   1.423   2.116  0.00  0.00    -0.126 OA
ATOM     36  O   UNL     1       9.588   1.841   3.864  0.00  0.00    -0.126 OA
ENDBRANCH  33  34
ENDBRANCH   1  31
TORSDOF 2
