REMARK  Name = ZINC39482621
REMARK  7 active torsions:
REMARK  status: ('A' for Active; 'I' for Inactive)
REMARK    1  A    between atoms: C_1  and  S_2
REMARK    2  A    between atoms: S_2  and  S_3
REMARK    3  A    between atoms: S_3  and  N_6
REMARK    4  A    between atoms: N_6  and  C_7
REMARK    5  A    between atoms: C_10  and  S_21
REMARK    6  A    between atoms: C_12  and  N_13
REMARK    7  A    between atoms: S_21  and  C_24
REMARK                            x       y       z     vdW  Elec       q    Type
REMARK                         _______ _______ _______ _____ _____    ______ ____
ROOT
ATOM      1  C   UNL     1      -3.916  -0.517  -1.791  0.00  0.00    +0.096 A 
ATOM      2  C   UNL     1      -4.754  -1.012  -0.803  0.00  0.00    +0.030 A 
ATOM      3  C   UNL     1      -6.080  -1.276  -1.090  0.00  0.00    +0.029 A 
ATOM      4  C   UNL     1      -6.575  -1.049  -2.361  0.00  0.00    +0.095 A 
ATOM      5  C   UNL     1      -5.747  -0.556  -3.352  0.00  0.00    +0.052 A 
ATOM      6  C   UNL     1      -4.417  -0.282  -3.071  0.00  0.00    +0.056 A 
ENDROOT
BRANCH   6   7
ATOM      7  N   UNL     1      -3.578   0.222  -4.072  0.00  0.00    -0.329 N 
ATOM      8  C   UNL     1      -2.822  -0.682  -4.953  0.00  0.00    +0.086 C 
ATOM      9  C   UNL     1      -1.355  -0.239  -4.961  0.00  0.00    -0.060 C 
ATOM     10  N   UNL     1      -1.276   1.179  -5.335  0.00  0.00    +0.400 N 
ATOM     11  C   UNL     1      -1.932   2.004  -4.314  0.00  0.00    +0.119 C 
ATOM     12  C   UNL     1      -3.432   1.671  -4.277  0.00  0.00    +0.120 C 
ATOM     13  O   UNL     1      -1.759   3.386  -4.634  0.00  0.00    -0.250 OA
ATOM     14  H   UNL     1      -0.307   1.450  -5.414  0.00  0.00    -0.082 HD
ATOM     15  H   UNL     1      -1.734   1.317  -6.223  0.00  0.00    -0.082 HD
ENDBRANCH   6   7
BRANCH   4  16
ATOM     16  S   UNL     1      -8.267  -1.389  -2.718  0.00  0.00    +0.025 S 
ATOM     17  O   UNL     1      -8.350  -1.607  -4.119  0.00  0.00    -0.164 OA
ATOM     18  O   UNL     1      -8.696  -2.357  -1.769  0.00  0.00    -0.164 OA
BRANCH  16  19
ATOM     19  C   UNL     1      -9.177   0.082  -2.382  0.00  0.00    +0.094 A 
ATOM     20  C   UNL     1      -9.695   0.302  -1.120  0.00  0.00    +0.027 A 
ATOM     21  C   UNL     1     -10.408   1.456  -0.857  0.00  0.00    +0.002 A 
ATOM     22  C   UNL     1     -10.603   2.391  -1.856  0.00  0.00    +0.000 A 
ATOM     23  C   UNL     1     -10.084   2.172  -3.118  0.00  0.00    +0.002 A 
ATOM     24  C   UNL     1      -9.367   1.019  -3.380  0.00  0.00    +0.027 A 
ENDBRANCH  16  19
ENDBRANCH   4  16
BRANCH   1  25
ATOM     25  N   UNL     1      -2.572  -0.248  -1.503  0.00  0.00    -0.090 NA
BRANCH  25  26
ATOM     26  S   UNL     1      -1.980  -0.527   0.018  0.00  0.00    +0.116 S 
ATOM     27  O   UNL     1      -2.027  -1.933   0.221  0.00  0.00    -0.142 OA
ATOM     28  O   UNL     1      -2.635   0.390   0.884  0.00  0.00    -0.142 OA
BRANCH  26  30
ATOM     29  C   UNL     1      -0.022   1.810   0.012  0.00  0.00    +0.112 C 
ATOM     30  S   UNL     1       0.002  -0.004   0.002  0.00  0.00    +0.016 S 
ENDBRANCH  26  30
ENDBRANCH  25  26
ENDBRANCH   1  25
TORSDOF 6
