REMARK  Name = ZINC13218769
REMARK  10 active torsions:
REMARK  status: ('A' for Active; 'I' for Inactive)
REMARK    1  A    between atoms: C_1  and  C_2
REMARK    2  A    between atoms: C_4  and  C_10
REMARK    3  A    between atoms: C_6  and  C_9
REMARK    4  A    between atoms: C_7  and  O_8
REMARK    5  A    between atoms: C_10  and  N_11
REMARK    6  A    between atoms: C_12  and  C_14
REMARK    7  A    between atoms: C_14  and  S_15
REMARK    8  A    between atoms: S_15  and  C_16
REMARK    9  A    between atoms: C_19  and  C_28
REMARK   10  A    between atoms: N_20  and  C_21
REMARK                            x       y       z     vdW  Elec       q    Type
REMARK                         _______ _______ _______ _____ _____    ______ ____
ROOT
ATOM      1  C   UNL     1      -0.279  -4.841  -0.021  0.00  0.00    +0.173 C 
ENDROOT
BRANCH   1   3
ATOM      2  N   UNL     1      -0.105  -7.308  -0.036  0.00  0.00    -0.311 N 
ATOM      3  C   UNL     1      -0.895  -6.216  -0.023  0.00  0.00    +0.224 C 
ATOM      4  O   UNL     1      -2.101  -6.340  -0.012  0.00  0.00    -0.275 OA
ATOM      5  H   UNL     1       0.860  -7.209  -0.045  0.00  0.00    +0.149 HD
BRANCH   2   6
ATOM      6  C   UNL     1      -0.704  -8.645  -0.038  0.00  0.00    +0.139 C 
BRANCH   6  10
ATOM      7  C   UNL     1       2.455 -11.645   2.423  0.00  0.00    +0.047 C 
ATOM      8  C   UNL     1       1.899 -11.119   1.125  0.00  0.00    -0.008 A 
ATOM      9  C   UNL     1       0.899 -10.167   1.137  0.00  0.00    +0.012 A 
ATOM     10  C   UNL     1       0.387  -9.684  -0.054  0.00  0.00    -0.030 A 
ATOM     11  C   UNL     1       0.872 -10.158  -1.259  0.00  0.00    +0.012 A 
ATOM     12  C   UNL     1       1.876 -11.107  -1.276  0.00  0.00    -0.008 A 
ATOM     13  C   UNL     1       2.391 -11.592  -0.083  0.00  0.00    +0.123 A 
ATOM     14  C   UNL     1       2.408 -11.618  -2.590  0.00  0.00    +0.047 C 
BRANCH  13  15
ATOM     15  O   UNL     1       3.375 -12.529  -0.097  0.00  0.00    -0.506 OA
ATOM     16  H   UNL     1       3.051 -13.440  -0.099  0.00  0.00    +0.292 HD
ENDBRANCH  13  15
ENDBRANCH   6  10
ENDBRANCH   2   6
ENDBRANCH   1   3
BRANCH   1  17
ATOM     17  S   UNL     1      -1.589  -3.593  -0.002  0.00  0.00    -0.078 S 
BRANCH  17  18
ATOM     18  C   UNL     1      -0.614  -2.125  -0.004  0.00  0.00    +0.175 A 
ATOM     19  N   UNL     1       0.704  -2.082  -0.016  0.00  0.00    -0.229 NA
ATOM     20  C   UNL     1       1.116  -0.817  -0.019  0.00  0.00    +0.147 A 
ATOM     21  C   UNL     1       0.002  -0.004   0.002  0.00  0.00    +0.156 A 
ATOM     22  N   UNL     1      -1.100  -0.855   0.008  0.00  0.00    -0.282 N 
BRANCH  22  23
ATOM     23  C   UNL     1      -2.449  -0.475   0.022  0.00  0.00    +0.049 A 
ATOM     24  C   UNL     1      -2.972   0.191   1.122  0.00  0.00    +0.029 A 
ATOM     25  C   UNL     1      -4.300   0.570   1.132  0.00  0.00    +0.040 A 
ATOM     26  C   UNL     1      -5.113   0.274   0.051  0.00  0.00    +0.124 A 
ATOM     27  C   UNL     1      -4.595  -0.396  -1.045  0.00  0.00    +0.040 A 
ATOM     28  C   UNL     1      -3.266  -0.771  -1.061  0.00  0.00    +0.029 A 
ATOM     29  F   UNL     1      -6.414   0.640   0.065  0.00  0.00    -0.205 F 
ENDBRANCH  22  23
BRANCH  21  30
ATOM     30  C   UNL     1      -0.017   1.413   0.010  0.00  0.00    +0.405 C 
ATOM     31  O   UNL     1       1.028   2.035   0.003  0.00  0.00    -0.239 OA
ATOM     32  O   UNL     1      -1.195   2.071   0.019  0.00  0.00    -0.239 OA
ENDBRANCH  21  30
ENDBRANCH  17  18
ENDBRANCH   1  17
TORSDOF 8
