REMARK  Name = ZINC36740528
REMARK  10 active torsions:
REMARK  status: ('A' for Active; 'I' for Inactive)
REMARK    1  A    between atoms: C_1  and  C_2
REMARK    2  A    between atoms: C_2  and  C_31
REMARK    3  A    between atoms: C_4  and  N_10
REMARK    4  A    between atoms: C_6  and  C_8
REMARK    5  A    between atoms: C_6  and  C_9
REMARK    6  A    between atoms: N_10  and  C_11
REMARK    7  A    between atoms: N_10  and  C_24
REMARK    8  A    between atoms: C_11  and  C_12
REMARK    9  A    between atoms: C_15  and  N_18
REMARK   10  A    between atoms: C_24  and  C_25
REMARK                            x       y       z     vdW  Elec       q    Type
REMARK                         _______ _______ _______ _____ _____    ______ ____
ROOT
ATOM      1  N   UNL     1       2.413  -0.814  -2.774  0.00  0.00    -0.291 NA
ENDROOT
BRANCH   1   5
ATOM      2  C   UNL     1      -0.904   1.235  -0.717  0.00  0.00    -0.010 C 
ATOM      3  C   UNL     1      -0.620  -0.262  -0.555  0.00  0.00    -0.072 C 
ATOM      4  C   UNL     1       0.194  -0.764  -1.743  0.00  0.00    +0.006 C 
ATOM      5  C   UNL     1       1.644  -0.290  -1.633  0.00  0.00    +0.055 C 
ATOM      6  C   UNL     1       2.229  -0.844  -0.334  0.00  0.00    +0.006 C 
ATOM      7  C   UNL     1       1.429  -0.344   0.865  0.00  0.00    -0.072 C 
ATOM      8  N   UNL     1      -0.002  -0.547   0.728  0.00  0.00    +0.386 N 
ATOM      9  C   UNL     1       1.760   1.129   1.129  0.00  0.00    -0.010 C 
ATOM     10  C   UNL     1       1.902  -1.143   2.101  0.00  0.00    -0.010 C 
ATOM     11  C   UNL     1      -1.985  -0.989  -0.591  0.00  0.00    -0.010 C 
ATOM     12  H   UNL     1      -0.476   0.013   1.444  0.00  0.00    -0.084 HD
ATOM     13  H   UNL     1      -0.212  -1.519   0.976  0.00  0.00    -0.084 HD
ENDBRANCH   1   5
BRANCH   1  14
ATOM     14  C   UNL     1       3.751  -0.208  -2.829  0.00  0.00    +0.120 C 
BRANCH  14  15
ATOM     15  C   UNL     1       3.624   1.264  -3.127  0.00  0.00    -0.033 A 
ATOM     16  C   UNL     1       3.618   1.704  -4.437  0.00  0.00    +0.007 A 
ATOM     17  C   UNL     1       3.502   3.052  -4.714  0.00  0.00    +0.023 A 
ATOM     18  C   UNL     1       3.392   3.966  -3.674  0.00  0.00    +0.030 A 
ATOM     19  C   UNL     1       3.398   3.520  -2.358  0.00  0.00    +0.023 A 
ATOM     20  C   UNL     1       3.509   2.170  -2.089  0.00  0.00    +0.007 A 
BRANCH  18  21
ATOM     21  N   UNL     1       3.275   5.330  -3.950  0.00  0.00    -0.326 N 
ATOM     22  C   UNL     1       3.272   6.325  -2.865  0.00  0.00    +0.133 C 
ATOM     23  C   UNL     1       4.300   7.411  -3.203  0.00  0.00    +0.178 C 
ATOM     24  O   UNL     1       4.046   7.906  -4.520  0.00  0.00    -0.377 OA
ATOM     25  C   UNL     1       4.185   6.926  -5.551  0.00  0.00    +0.178 C 
ATOM     26  C   UNL     1       3.156   5.815  -5.334  0.00  0.00    +0.133 C 
ENDBRANCH  18  21
ENDBRANCH  14  15
ENDBRANCH   1  14
BRANCH   1  27
ATOM     27  C   UNL     1       2.501  -2.279  -2.722  0.00  0.00    +0.121 C 
BRANCH  27  28
ATOM     28  C   UNL     1       2.929  -2.805  -4.068  0.00  0.00    -0.015 A 
ATOM     29  C   UNL     1       1.995  -3.006  -5.073  0.00  0.00    +0.008 A 
ATOM     30  C   UNL     1       2.434  -3.491  -6.295  0.00  0.00    +0.020 A 
ATOM     31  C   UNL     1       3.780  -3.756  -6.470  0.00  0.00    +0.111 A 
ATOM     32  N   UNL     1       4.640  -3.553  -5.491  0.00  0.00    -0.263 NA
ATOM     33  C   UNL     1       4.258  -3.086  -4.318  0.00  0.00    +0.115 A 
ENDBRANCH  27  28
ENDBRANCH   1  27
TORSDOF 6
