REMARK  Name = ZINC09665604
REMARK  4 active torsions:
REMARK  status: ('A' for Active; 'I' for Inactive)
REMARK    1  A    between atoms: C_6  and  C_7
REMARK    2  A    between atoms: N_14  and  C_17
REMARK    3  A    between atoms: C_17  and  C_18
REMARK    4  A    between atoms: N_23  and  C_24
REMARK                            x       y       z     vdW  Elec       q    Type
REMARK                         _______ _______ _______ _____ _____    ______ ____
ROOT
ATOM      1  C   UNL     1       8.306  -3.049   4.777  0.00  0.00    +0.222 C 
ENDROOT
BRANCH   1   9
ATOM      2  C   UNL     1       9.805  -7.855   4.654  0.00  0.00    +0.004 A 
ATOM      3  C   UNL     1       9.857  -8.978   5.410  0.00  0.00    +0.056 A 
ATOM      4  S   UNL     1       9.118  -8.474   6.951  0.00  0.00    -0.076 S 
ATOM      5  C   UNL     1       8.760  -6.783   6.550  0.00  0.00    +0.116 A 
ATOM      6  C   UNL     1       9.222  -6.649   5.230  0.00  0.00    +0.080 A 
ATOM      7  C   UNL     1       9.054  -5.354   4.643  0.00  0.00    +0.263 A 
ATOM      8  O   UNL     1       9.424  -5.140   3.501  0.00  0.00    -0.267 OA
ATOM      9  N   UNL     1       8.481  -4.377   5.370  0.00  0.00    -0.290 N 
ATOM     10  C   UNL     1       8.068  -4.597   6.645  0.00  0.00    +0.203 A 
ATOM     11  N   UNL     1       8.204  -5.768   7.207  0.00  0.00    -0.230 NA
BRANCH   2  17
ATOM     12  C   UNL     1       9.550  -7.360   2.224  0.00  0.00    +0.011 A 
ATOM     13  C   UNL     1      10.046  -7.354   0.937  0.00  0.00    +0.039 A 
ATOM     14  C   UNL     1      11.316  -7.845   0.680  0.00  0.00    +0.123 A 
ATOM     15  C   UNL     1      12.095  -8.340   1.713  0.00  0.00    +0.039 A 
ATOM     16  C   UNL     1      11.609  -8.345   3.005  0.00  0.00    +0.011 A 
ATOM     17  C   UNL     1      10.332  -7.851   3.269  0.00  0.00    -0.016 A 
ATOM     18  F   UNL     1      11.796  -7.842  -0.583  0.00  0.00    -0.205 F 
ENDBRANCH   2  17
ENDBRANCH   1   9
BRANCH   1  19
ATOM     19  C   UNL     1       6.968  -2.980   4.087  0.00  0.00    +0.240 C 
ATOM     20  O   UNL     1       6.234  -3.945   4.090  0.00  0.00    -0.273 OA
ATOM     21  N   UNL     1       6.588  -1.846   3.466  0.00  0.00    -0.238 N 
ATOM     22  C   UNL     1       5.392  -1.784   2.849  0.00  0.00    +0.310 C 
ATOM     23  O   UNL     1       4.655  -2.751   2.853  0.00  0.00    -0.252 OA
ATOM     24  N   UNL     1       5.011  -0.649   2.228  0.00  0.00    -0.269 N 
ATOM     25  H   UNL     1       7.176  -1.074   3.464  0.00  0.00    +0.159 HD
ATOM     26  H   UNL     1       5.629   0.096   2.159  0.00  0.00    +0.156 HD
BRANCH  24  27
ATOM     27  C   UNL     1       3.725  -0.546   1.683  0.00  0.00    +0.038 A 
ATOM     28  C   UNL     1       2.658  -1.190   2.296  0.00  0.00    +0.027 A 
ATOM     29  C   UNL     1       1.388  -1.090   1.759  0.00  0.00    +0.051 A 
ATOM     30  C   UNL     1       1.176  -0.346   0.610  0.00  0.00    +0.166 A 
ATOM     31  C   UNL     1       2.244   0.302  -0.006  0.00  0.00    +0.168 A 
ATOM     32  C   UNL     1       3.516   0.200   0.532  0.00  0.00    +0.073 A 
ATOM     33  O   UNL     1       1.779   0.960  -1.108  0.00  0.00    -0.453 OA
ATOM     34  C   UNL     1       0.353   1.045  -0.931  0.00  0.00    +0.466 C 
ATOM     35  O   UNL     1       0.041  -0.093  -0.107  0.00  0.00    -0.453 OA
ENDBRANCH  24  27
ENDBRANCH   1  19
TORSDOF 4
