REMARK  Name = ZINC54541637
REMARK  7 active torsions:
REMARK  status: ('A' for Active; 'I' for Inactive)
REMARK    1  A    between atoms: C_1  and  C_2
REMARK    2  A    between atoms: C_6  and  N_9
REMARK    3  A    between atoms: C_7  and  C_8
REMARK    4  A    between atoms: C_16  and  N_33
REMARK    5  A    between atoms: C_17  and  N_21
REMARK    6  A    between atoms: N_21  and  C_22
REMARK    7  A    between atoms: C_29  and  C_32
REMARK                            x       y       z     vdW  Elec       q    Type
REMARK                         _______ _______ _______ _____ _____    ______ ____
ROOT
ATOM      1  N   UNL     1      -0.985  -2.710   2.520  0.00  0.00    -0.327 N 
ATOM      2  C   UNL     1      -1.060  -4.159   2.284  0.00  0.00    +0.124 C 
ATOM      3  C   UNL     1       0.123  -4.833   2.991  0.00  0.00    +0.125 C 
ATOM      4  N   UNL     1       0.182  -4.343   4.376  0.00  0.00    -0.311 N 
ATOM      5  C   UNL     1       0.257  -2.895   4.612  0.00  0.00    +0.125 C 
ATOM      6  C   UNL     1      -0.920  -2.221   3.905  0.00  0.00    +0.124 C 
ATOM      7  C   UNL     1       0.167  -5.234   5.442  0.00  0.00    +0.147 A 
ATOM      8  C   UNL     1       1.353  -5.813   5.899  0.00  0.00    +0.106 A 
ATOM      9  C   UNL     1       1.282  -6.700   6.974  0.00  0.00    +0.149 A 
ATOM     10  N   UNL     1       0.095  -6.960   7.518  0.00  0.00    -0.219 NA
ATOM     11  C   UNL     1      -1.000  -6.393   7.056  0.00  0.00    +0.225 A 
ATOM     12  N   UNL     1      -0.977  -5.545   6.047  0.00  0.00    -0.219 NA
ENDROOT
BRANCH   1  18
ATOM     13  C   UNL     1      -3.438   0.128  -0.654  0.00  0.00    +0.044 C 
ATOM     14  C   UNL     1      -2.145  -0.422  -0.111  0.00  0.00    -0.046 A 
ATOM     15  C   UNL     1      -0.941  -0.041  -0.675  0.00  0.00    +0.004 A 
ATOM     16  C   UNL     1       0.248  -0.544  -0.180  0.00  0.00    +0.002 A 
ATOM     17  C   UNL     1       0.237  -1.430   0.879  0.00  0.00    +0.023 A 
ATOM     18  C   UNL     1      -0.970  -1.815   1.448  0.00  0.00    +0.033 A 
ATOM     19  C   UNL     1      -2.163  -1.303   0.952  0.00  0.00    -0.027 A 
ATOM     20  C   UNL     1      -3.474  -1.714   1.570  0.00  0.00    +0.046 C 
ENDBRANCH   1  18
BRANCH   8  21
ATOM     21  N   UNL     1       2.583  -5.510   5.295  0.00  0.00    -0.353 N 
ATOM     22  H   UNL     1       2.630  -4.829   4.605  0.00  0.00    +0.143 HD
ATOM     23  H   UNL     1       3.387  -5.981   5.566  0.00  0.00    +0.143 HD
ENDBRANCH   8  21
BRANCH   9  24
ATOM     24  N   UNL     1       2.433  -7.305   7.468  0.00  0.00    -0.296 N 
ATOM     25  H   UNL     1       3.278  -7.185   7.009  0.00  0.00    +0.154 HD
BRANCH  24  26
ATOM     26  C   UNL     1       2.370  -8.082   8.625  0.00  0.00    +0.059 A 
ATOM     27  C   UNL     1       1.376  -7.866   9.554  0.00  0.00    +0.025 A 
ATOM     28  C   UNL     1       1.302  -8.635  10.712  0.00  0.00    +0.003 A 
ATOM     29  C   UNL     1       2.210  -9.620  10.957  0.00  0.00    +0.010 A 
ATOM     30  C   UNL     1       3.238  -9.871  10.035  0.00  0.00    +0.002 A 
ATOM     31  C   UNL     1       3.323  -9.100   8.850  0.00  0.00    +0.092 A 
ATOM     32  N   UNL     1       4.297  -9.339   7.968  0.00  0.00    -0.250 NA
ATOM     33  C   UNL     1       5.184 -10.283   8.171  0.00  0.00    +0.039 A 
ATOM     34  C   UNL     1       5.156 -11.081   9.313  0.00  0.00    +0.023 A 
ATOM     35  C   UNL     1       4.192 -10.882  10.260  0.00  0.00    +0.012 A 
ATOM     36  C   UNL     1       6.262 -10.510   7.143  0.00  0.00    +0.065 C 
ENDBRANCH  24  26
ENDBRANCH   9  24
TORSDOF 4
