REMARK  Name = ZINC04621629
REMARK  9 active torsions:
REMARK  status: ('A' for Active; 'I' for Inactive)
REMARK    1  A    between atoms: C_1  and  C_2
REMARK    2  A    between atoms: C_2  and  C_3
REMARK    3  A    between atoms: C_2  and  C_4
REMARK    4  A    between atoms: C_4  and  C_5
REMARK    5  A    between atoms: N_7  and  C_8
REMARK    6  A    between atoms: C_8  and  N_10
REMARK    7  A    between atoms: N_10  and  C_11
REMARK    8  A    between atoms: C_14  and  S_17
REMARK    9  A    between atoms: S_17  and  N_20
REMARK                            x       y       z     vdW  Elec       q    Type
REMARK                         _______ _______ _______ _____ _____    ______ ____
ROOT
ATOM      1  C   UNL     1      -0.438   2.223   0.089  0.00  0.00    +0.033 A 
ATOM      2  C   UNL     1      -0.536   3.600   0.240  0.00  0.00    +0.025 A 
ATOM      3  C   UNL     1      -1.763   4.221   0.118  0.00  0.00    +0.031 A 
ATOM      4  C   UNL     1      -2.896   3.471  -0.142  0.00  0.00    +0.111 A 
ATOM      5  C   UNL     1      -2.803   2.099  -0.286  0.00  0.00    +0.031 A 
ATOM      6  C   UNL     1      -1.577   1.473  -0.172  0.00  0.00    +0.025 A 
ENDROOT
BRANCH   4   7
ATOM      7  S   UNL     1      -4.461   4.267  -0.290  0.00  0.00    +0.080 S 
ATOM      8  O   UNL     1      -4.199   5.615  -0.655  0.00  0.00    -0.148 OA
ATOM      9  O   UNL     1      -5.279   3.410  -1.076  0.00  0.00    -0.148 OA
BRANCH   7  10
ATOM     10  N   UNL     1      -5.135   4.308   1.222  0.00  0.00    -0.228 N 
ATOM     11  C   UNL     1      -4.542   5.047   2.219  0.00  0.00    +0.186 C 
ATOM     12  H   UNL     1      -2.957   6.264   2.610  0.00  0.00    +0.159 HD
ATOM     13  N   UNL     1      -5.101   5.081   3.474  0.00  0.00    -0.370 N 
ATOM     14  H   UNL     1      -5.948   3.811   1.405  0.00  0.00    +0.191 HD
ATOM     15  H   UNL     1      -5.914   4.584   3.657  0.00  0.00    +0.159 HD
ATOM     16  H   UNL     1      -4.682   5.602   4.177  0.00  0.00    +0.159 HD
ATOM     17  N   UNL     1      -3.434   5.702   1.905  0.00  0.00    -0.370 N 
ATOM     18  H   UNL     1      -3.055   5.645   0.952  0.00  0.00    +0.159 HD
ENDBRANCH   7  10
ENDBRANCH   4   7
BRANCH   1  19
ATOM     19  N   UNL     1       0.805   1.592   0.206  0.00  0.00    -0.297 N 
ATOM     20  H   UNL     1       1.401   1.825   0.936  0.00  0.00    +0.154 HD
BRANCH  19  21
ATOM     21  C   UNL     1       1.173   0.656  -0.692  0.00  0.00    +0.141 C 
ATOM     22  S   UNL     1       0.080   0.168  -1.915  0.00  0.00    -0.018 S 
BRANCH  21  25
ATOM     23  C   UNL     1       2.769  -0.830  -1.524  0.00  0.00    +0.219 C 
ATOM     24  O   UNL     1       1.995  -1.176  -2.391  0.00  0.00    -0.275 OA
ATOM     25  N   UNL     1       2.401   0.106  -0.626  0.00  0.00    -0.268 N 
ATOM     26  H   UNL     1       3.021   0.382   0.067  0.00  0.00    +0.156 HD
BRANCH  23  27
ATOM     27  C   UNL     1       4.142  -1.446  -1.451  0.00  0.00    +0.099 C 
BRANCH  27  29
ATOM     28  C   UNL     1       4.251  -1.755  -3.928  0.00  0.00    +0.008 C 
ATOM     29  C   UNL     1       4.303  -2.470  -2.577  0.00  0.00    -0.008 C 
ATOM     30  C   UNL     1       5.647  -3.184  -2.429  0.00  0.00    +0.008 C 
ENDBRANCH  27  29
ENDBRANCH  23  27
ENDBRANCH  21  25
ENDBRANCH  19  21
ENDBRANCH   1  19
TORSDOF 7
