REMARK  Name = ZINC48862907
REMARK  5 active torsions:
REMARK  status: ('A' for Active; 'I' for Inactive)
REMARK    1  A    between atoms: C_1  and  C_2
REMARK    2  A    between atoms: C_7  and  S_8
REMARK    3  A    between atoms: S_8  and  C_11
REMARK    4  A    between atoms: C_11  and  C_12
REMARK    5  A    between atoms: C_14  and  C_17
REMARK                            x       y       z     vdW  Elec       q    Type
REMARK                         _______ _______ _______ _____ _____    ______ ____
ROOT
ATOM      1  S   UNL     1       0.026   0.171   2.726  0.00  0.00    +0.004 S 
ATOM      2  O   UNL     1      -1.056   1.087   2.623  0.00  0.00    -0.169 OA
ATOM      3  O   UNL     1       0.024  -0.843   3.721  0.00  0.00    -0.169 OA
ENDROOT
BRANCH   1  10
ATOM      4  C   UNL     1      -0.018   1.503   0.010  0.00  0.00    +0.046 C 
ATOM      5  C   UNL     1       0.002  -0.004   0.002  0.00  0.00    -0.026 A 
ATOM      6  C   UNL     1       0.006  -0.689  -1.199  0.00  0.00    +0.005 A 
ATOM      7  C   UNL     1       0.025  -2.071  -1.207  0.00  0.00    +0.000 A 
ATOM      8  C   UNL     1       0.040  -2.768  -0.013  0.00  0.00    +0.002 A 
ATOM      9  C   UNL     1       0.037  -2.084   1.188  0.00  0.00    +0.027 A 
ATOM     10  C   UNL     1       0.023  -0.702   1.195  0.00  0.00    +0.092 A 
ENDBRANCH   1  10
BRANCH   1  11
ATOM     11  C   UNL     1       1.603   1.067   2.749  0.00  0.00    +0.248 C 
BRANCH  11  12
ATOM     12  C   UNL     1       1.713   1.857   4.027  0.00  0.00    +0.159 A 
ATOM     13  C   UNL     1       2.253   1.422   5.182  0.00  0.00    +0.072 A 
ATOM     14  C   UNL     1       2.161   2.460   6.127  0.00  0.00    +0.081 A 
ATOM     15  N   UNL     1       1.585   3.479   5.553  0.00  0.00    -0.083 NA
ATOM     16  O   UNL     1       1.297   3.119   4.214  0.00  0.00    -0.358 OA
ATOM     17  C   UNL     1       2.643   2.404   7.553  0.00  0.00    +0.069 C 
ENDBRANCH  11  12
ENDBRANCH   1  11
TORSDOF 3
