REMARK  Name = ZINC67585156
REMARK  12 active torsions:
REMARK  status: ('A' for Active; 'I' for Inactive)
REMARK    1  A    between atoms: C_1  and  C_2
REMARK    2  A    between atoms: C_2  and  C_3
REMARK    3  A    between atoms: C_3  and  C_4
REMARK    4  A    between atoms: N_6  and  C_7
REMARK    5  A    between atoms: C_11  and  N_14
REMARK    6  A    between atoms: C_12  and  C_13
REMARK    7  A    between atoms: N_17  and  C_18
REMARK    8  A    between atoms: C_18  and  C_20
REMARK    9  A    between atoms: C_18  and  C_25
REMARK   10  A    between atoms: C_25  and  C_26
REMARK   11  A    between atoms: C_25  and  C_27
REMARK   12  A    between atoms: C_25  and  C_28
REMARK                            x       y       z     vdW  Elec       q    Type
REMARK                         _______ _______ _______ _____ _____    ______ ____
ROOT
ATOM      1  N   UNL     1       2.260  -6.761   4.450  0.00  0.00    -0.269 N 
ATOM      2  C   UNL     1       2.287  -8.109   4.447  0.00  0.00    +0.304 C 
ATOM      3  O   UNL     1       1.775  -8.724   3.532  0.00  0.00    -0.252 OA
ATOM      4  N   UNL     1       2.882  -8.774   5.457  0.00  0.00    -0.291 N 
ATOM      5  H   UNL     1       2.607  -6.271   5.212  0.00  0.00    +0.156 HD
ATOM      6  H   UNL     1       3.290  -8.283   6.187  0.00  0.00    +0.151 HD
ENDROOT
BRANCH   1  11
ATOM      7  C   UNL     1       1.757  -4.172   1.883  0.00  0.00    +0.038 A 
ATOM      8  C   UNL     1       0.679  -4.704   1.185  0.00  0.00    +0.024 A 
ATOM      9  C   UNL     1       0.133  -5.912   1.572  0.00  0.00    +0.004 A 
ATOM     10  C   UNL     1       0.655  -6.595   2.653  0.00  0.00    +0.024 A 
ATOM     11  C   UNL     1       1.732  -6.069   3.355  0.00  0.00    +0.039 A 
ATOM     12  C   UNL     1       2.287  -4.858   2.965  0.00  0.00    -0.008 A 
ATOM     13  C   UNL     1       3.460  -4.287   3.720  0.00  0.00    +0.047 C 
BRANCH   7  16
ATOM     14  C   UNL     1       2.180  -2.527   0.216  0.00  0.00    +0.217 C 
ATOM     15  O   UNL     1       1.672  -3.252  -0.613  0.00  0.00    -0.275 OA
ATOM     16  N   UNL     1       2.310  -2.948   1.490  0.00  0.00    -0.285 N 
ATOM     17  H   UNL     1       2.788  -2.403   2.134  0.00  0.00    +0.155 HD
BRANCH  14  18
ATOM     18  C   UNL     1       2.664  -1.155  -0.177  0.00  0.00    +0.096 C 
BRANCH  18  20
ATOM     19  C   UNL     1       2.891   0.463  -2.067  0.00  0.00    +0.004 C 
ATOM     20  C   UNL     1       2.399  -0.929  -1.667  0.00  0.00    +0.006 C 
ENDBRANCH  18  20
ENDBRANCH  14  18
ENDBRANCH   7  16
ENDBRANCH   1  11
BRANCH   4  21
ATOM     21  C   UNL     1       2.911 -10.238   5.453  0.00  0.00    +0.117 C 
BRANCH  21  22
ATOM     22  C   UNL     1       3.041 -10.742   6.867  0.00  0.00    +0.011 A 
ATOM     23  C   UNL     1       2.438 -11.804   7.454  0.00  0.00    +0.013 A 
ATOM     24  C   UNL     1       2.711 -12.082   8.780  0.00  0.00    +0.008 A 
ATOM     25  C   UNL     1       3.575 -11.285   9.454  0.00  0.00    +0.045 A 
ATOM     26  S   UNL     1       4.037 -10.100   8.202  0.00  0.00    -0.100 S 
ENDBRANCH  21  22
BRANCH  21  27
ATOM     27  C   UNL     1       4.104 -10.723   4.627  0.00  0.00    -0.015 C 
ATOM     28  C   UNL     1       5.400 -10.188   5.241  0.00  0.00    +0.013 C 
ATOM     29  C   UNL     1       4.134 -12.252   4.622  0.00  0.00    +0.013 C 
ATOM     30  C   UNL     1       3.971 -10.211   3.191  0.00  0.00    +0.013 C 
ENDBRANCH  21  27
ENDBRANCH   4  21
TORSDOF 7
