REMARK  Name = ZINC28256342
REMARK  7 active torsions:
REMARK  status: ('A' for Active; 'I' for Inactive)
REMARK    1  A    between atoms: C_3  and  O_22
REMARK    2  A    between atoms: C_6  and  N_7
REMARK    3  A    between atoms: N_7  and  S_8
REMARK    4  A    between atoms: S_8  and  C_11
REMARK    5  A    between atoms: C_13  and  C_18
REMARK    6  A    between atoms: O_22  and  C_23
REMARK    7  A    between atoms: C_23  and  C_24
REMARK                            x       y       z     vdW  Elec       q    Type
REMARK                         _______ _______ _______ _____ _____    ______ ____
ROOT
ATOM      1  N   UNL     1       0.045   4.476   5.292  0.00  0.00    -0.098 NA
ENDROOT
BRANCH   1   7
ATOM      2  C   UNL     1      -2.354   4.451   5.021  0.00  0.00    +0.030 A 
ATOM      3  C   UNL     1      -3.603   4.925   5.371  0.00  0.00    +0.047 A 
ATOM      4  C   UNL     1      -3.725   5.917   6.333  0.00  0.00    +0.121 A 
ATOM      5  C   UNL     1      -2.593   6.429   6.950  0.00  0.00    +0.047 A 
ATOM      6  C   UNL     1      -1.343   5.952   6.605  0.00  0.00    +0.030 A 
ATOM      7  C   UNL     1      -1.221   4.960   5.642  0.00  0.00    +0.075 A 
BRANCH   4   8
ATOM      8  O   UNL     1      -4.955   6.387   6.673  0.00  0.00    -0.483 OA
BRANCH   8   9
ATOM      9  C   UNL     1      -6.077   5.815   5.998  0.00  0.00    +0.324 C 
BRANCH   9  10
ATOM     10  C   UNL     1      -7.346   6.455   6.501  0.00  0.00    +0.248 C 
ATOM     11  O   UNL     1      -7.294   7.316   7.353  0.00  0.00    -0.272 OA
ATOM     12  N   UNL     1      -8.538   6.070   6.004  0.00  0.00    -0.327 N 
ATOM     13  H   UNL     1      -9.463   6.537   6.371  0.00  0.00    +0.145 HD
ATOM     14  H   UNL     1      -8.585   5.289   5.231  0.00  0.00    +0.145 HD
ENDBRANCH   9  10
ENDBRANCH   8   9
ENDBRANCH   4   8
ENDBRANCH   1   7
BRANCH   1  15
ATOM     15  S   UNL     1       0.300   2.845   5.158  0.00  0.00    +0.093 S 
ATOM     16  O   UNL     1       1.687   2.671   4.903  0.00  0.00    -0.148 OA
ATOM     17  O   UNL     1      -0.704   2.347   4.285  0.00  0.00    -0.148 OA
BRANCH  15  18
ATOM     18  C   UNL     1      -0.013   2.137   6.741  0.00  0.00    +0.129 A 
ATOM     19  C   UNL     1      -1.064   1.255   6.908  0.00  0.00    +0.042 A 
ATOM     20  C   UNL     1      -1.310   0.699   8.149  0.00  0.00    +0.057 A 
ATOM     21  C   UNL     1      -0.507   1.029   9.226  0.00  0.00    +0.014 A 
ATOM     22  C   UNL     1       0.547   1.907   9.059  0.00  0.00    +0.022 A 
ATOM     23  C   UNL     1       0.794   2.463   7.817  0.00  0.00    +0.068 A 
ATOM     24 CL   UNL     1       2.114   3.570   7.608  0.00  0.00    -0.082 Cl
BRANCH  20  25
ATOM     25  C   UNL     1      -2.456  -0.262   8.331  0.00  0.00    +0.417 C 
ATOM     26  F   UNL     1      -2.012  -1.567   8.094  0.00  0.00    -0.166 F 
ATOM     27  F   UNL     1      -3.477   0.054   7.428  0.00  0.00    -0.166 F 
ATOM     28  F   UNL     1      -2.943  -0.165   9.639  0.00  0.00    -0.166 F 
ENDBRANCH  20  25
ENDBRANCH  15  18
ENDBRANCH   1  15
TORSDOF 7
