REMARK  Name = ZINC40134654
REMARK  7 active torsions:
REMARK  status: ('A' for Active; 'I' for Inactive)
REMARK    1  A    between atoms: C_1  and  N_2
REMARK    2  A    between atoms: N_7  and  S_8
REMARK    3  A    between atoms: S_8  and  C_11
REMARK    4  A    between atoms: C_14  and  N_17
REMARK    5  A    between atoms: C_18  and  C_20
REMARK    6  A    between atoms: C_20  and  S_21
REMARK    7  A    between atoms: S_21  and  C_22
REMARK                            x       y       z     vdW  Elec       q    Type
REMARK                         _______ _______ _______ _____ _____    ______ ____
ROOT
ATOM      1  C   UNL     1       5.001  -0.580  -0.938  0.00  0.00    +0.113 A 
ATOM      2  C   UNL     1       5.405  -0.706  -2.255  0.00  0.00    +0.031 A 
ATOM      3  C   UNL     1       6.512  -0.014  -2.708  0.00  0.00    +0.025 A 
ATOM      4  C   UNL     1       7.218   0.808  -1.840  0.00  0.00    +0.034 A 
ATOM      5  C   UNL     1       6.810   0.932  -0.519  0.00  0.00    +0.025 A 
ATOM      6  C   UNL     1       5.700   0.242  -0.073  0.00  0.00    +0.031 A 
ENDROOT
BRANCH   4   7
ATOM      7  N   UNL     1       8.340   1.509  -2.296  0.00  0.00    -0.285 N 
ATOM      8  C   UNL     1       8.384   1.956  -3.567  0.00  0.00    +0.227 C 
ATOM      9  O   UNL     1       7.416   1.835  -4.286  0.00  0.00    -0.275 OA
ATOM     10  H   UNL     1       9.085   1.674  -1.698  0.00  0.00    +0.155 HD
BRANCH   8  11
ATOM     11  C   UNL     1       9.638   2.607  -4.093  0.00  0.00    +0.170 C 
BRANCH  11  12
ATOM     12  S   UNL     1       9.385   3.096  -5.821  0.00  0.00    -0.116 S 
BRANCH  12  13
ATOM     13  C   UNL     1      10.918   3.831  -6.285  0.00  0.00    +0.009 A 
ATOM     14  C   UNL     1      11.959   3.906  -5.368  0.00  0.00    +0.017 A 
ATOM     15  C   UNL     1      13.160   4.481  -5.734  0.00  0.00    +0.039 A 
ATOM     16  C   UNL     1      13.327   4.983  -7.014  0.00  0.00    +0.123 A 
ATOM     17  C   UNL     1      12.291   4.910  -7.930  0.00  0.00    +0.039 A 
ATOM     18  C   UNL     1      11.090   4.330  -7.570  0.00  0.00    +0.017 A 
ATOM     19  F   UNL     1      14.502   5.546  -7.370  0.00  0.00    -0.205 F 
ENDBRANCH  12  13
ENDBRANCH  11  12
ENDBRANCH   8  11
ENDBRANCH   4   7
BRANCH   1  20
ATOM     20  S   UNL     1       3.589  -1.464  -0.364  0.00  0.00    +0.100 S 
ATOM     21  O   UNL     1       3.738  -1.596   1.043  0.00  0.00    -0.146 OA
ATOM     22  O   UNL     1       3.435  -2.586  -1.223  0.00  0.00    -0.146 OA
BRANCH  20  29
ATOM     23  C   UNL     1      -0.158   1.257  -0.596  0.00  0.00    +0.130 C 
ATOM     24  N   UNL     1      -0.069  -0.196  -0.430  0.00  0.00    -0.320 N 
ATOM     25  C   UNL     1      -1.211  -1.123  -0.411  0.00  0.00    +0.106 C 
ATOM     26  C   UNL     1      -0.756  -2.277   0.510  0.00  0.00    +0.026 C 
ATOM     27  C   UNL     1       0.780  -2.247   0.357  0.00  0.00    +0.075 C 
ATOM     28  C   UNL     1       1.092  -0.906  -0.274  0.00  0.00    +0.119 C 
ATOM     29  N   UNL     1       2.270  -0.494  -0.612  0.00  0.00    -0.118 NA
ENDBRANCH  20  29
ENDBRANCH   1  20
TORSDOF 6
