REMARK  Name = ZINC35233022
REMARK  5 active torsions:
REMARK  status: ('A' for Active; 'I' for Inactive)
REMARK    1  A    between atoms: C_1  and  C_2
REMARK    2  A    between atoms: C_6  and  N_9
REMARK    3  A    between atoms: C_7  and  C_8
REMARK    4  A    between atoms: N_9  and  S_10
REMARK    5  A    between atoms: S_10  and  C_13
REMARK                            x       y       z     vdW  Elec       q    Type
REMARK                         _______ _______ _______ _____ _____    ______ ____
ROOT
ATOM      1  N   UNL     1       0.051  -2.796   2.390  0.00  0.00    -0.097 NA
ENDROOT
BRANCH   1   7
ATOM      2  C   UNL     1      -0.018   1.503   0.010  0.00  0.00    +0.044 C 
ATOM      3  C   UNL     1       0.002  -0.004   0.002  0.00  0.00    -0.046 A 
ATOM      4  C   UNL     1       0.006  -0.688  -1.200  0.00  0.00    +0.004 A 
ATOM      5  C   UNL     1       0.024  -2.071  -1.212  0.00  0.00    +0.002 A 
ATOM      6  C   UNL     1       0.039  -2.773  -0.023  0.00  0.00    +0.027 A 
ATOM      7  C   UNL     1       0.036  -2.089   1.186  0.00  0.00    +0.077 A 
ATOM      8  C   UNL     1       0.023  -0.700   1.194  0.00  0.00    -0.023 A 
ATOM      9  C   UNL     1       0.025   0.046   2.504  0.00  0.00    +0.046 C 
ENDBRANCH   1   7
BRANCH   1  10
ATOM     10  S   UNL     1       0.073  -4.452   2.378  0.00  0.00    +0.099 S 
ATOM     11  O   UNL     1      -1.169  -4.871   1.830  0.00  0.00    -0.148 OA
ATOM     12  O   UNL     1       1.321  -4.838   1.818  0.00  0.00    -0.148 OA
BRANCH  10  13
ATOM     13  C   UNL     1       0.088  -4.986   4.057  0.00  0.00    +0.168 A 
ATOM     14  C   UNL     1      -0.948  -5.267   4.886  0.00  0.00    +0.149 A 
ATOM     15  N   UNL     1      -0.647  -5.652   6.111  0.00  0.00    -0.234 NA
ATOM     16  C   UNL     1       0.599  -5.756   6.505  0.00  0.00    +0.169 A 
ATOM     17  S   UNL     1       1.472  -5.313   5.137  0.00  0.00    -0.036 S 
ATOM     18 CL   UNL     1       1.201  -6.241   8.059  0.00  0.00    -0.054 Cl
ENDBRANCH  10  13
ENDBRANCH   1  10
TORSDOF 3
