REMARK  Name = ZINC28791891
REMARK  6 active torsions:
REMARK  status: ('A' for Active; 'I' for Inactive)
REMARK    1  A    between atoms: C_4  and  C_7
REMARK    2  A    between atoms: C_9  and  C_12
REMARK    3  A    between atoms: N_14  and  N_15
REMARK    4  A    between atoms: C_16  and  C_18
REMARK    5  A    between atoms: C_22  and  N_24
REMARK    6  A    between atoms: C_25  and  C_27
REMARK                            x       y       z     vdW  Elec       q    Type
REMARK                         _______ _______ _______ _____ _____    ______ ____
ROOT
ATOM      1  N   UNL     1       2.409  -2.826  -0.002  0.00  0.00    -0.230 N 
ATOM      2  C   UNL     1       1.232  -2.169   0.004  0.00  0.00    +0.260 C 
ATOM      3  O   UNL     1       0.188  -2.792   0.007  0.00  0.00    -0.269 OA
ATOM      4  H   UNL     1       3.353  -2.262  -0.005  0.00  0.00    +0.173 HD
ENDROOT
BRANCH   2   5
ATOM      5  C   UNL     1       1.210  -0.691   0.008  0.00  0.00    +0.040 A 
ATOM      6  C   UNL     1       2.408   0.026   0.005  0.00  0.00    +0.014 A 
ATOM      7  C   UNL     1       2.386   1.406   0.010  0.00  0.00    +0.022 A 
ATOM      8  C   UNL     1       1.179   2.083   0.016  0.00  0.00    +0.062 A 
ATOM      9  C   UNL     1      -0.020   1.376   0.018  0.00  0.00    +0.053 A 
ATOM     10  C   UNL     1      -0.007  -0.009   0.014  0.00  0.00    +0.038 A 
ATOM     11 CL   UNL     1       1.160   3.818   0.021  0.00  0.00    -0.082 Cl
BRANCH   9  12
ATOM     12  N   UNL     1      -1.238   2.065   0.019  0.00  0.00    -0.280 N 
ATOM     13  C   UNL     1      -2.296   1.563  -0.648  0.00  0.00    +0.255 C 
ATOM     14  O   UNL     1      -2.217   0.472  -1.183  0.00  0.00    -0.269 OA
ATOM     15  H   UNL     1      -1.332   3.015   0.564  0.00  0.00    +0.155 HD
BRANCH  13  16
ATOM     16  C   UNL     1      -3.542   2.331  -0.730  0.00  0.00    +0.074 A 
ATOM     17  C   UNL     1      -4.732   2.000  -1.359  0.00  0.00    +0.021 A 
ATOM     18  C   UNL     1      -5.755   2.912  -1.280  0.00  0.00    +0.008 A 
ATOM     19  C   UNL     1      -5.558   4.073  -0.602  0.00  0.00    +0.046 A 
ATOM     20  S   UNL     1      -3.924   3.930  -0.039  0.00  0.00    -0.092 S 
ENDBRANCH  13  16
ENDBRANCH   9  12
ENDBRANCH   2   5
BRANCH   1  23
ATOM     21  C   UNL     1       3.606  -4.884  -0.012  0.00  0.00    +0.282 C 
ATOM     22  O   UNL     1       4.649  -4.261  -0.015  0.00  0.00    -0.267 OA
ATOM     23  N   UNL     1       2.429  -4.227  -0.006  0.00  0.00    -0.229 N 
ATOM     24  H   UNL     1       1.485  -4.791  -0.004  0.00  0.00    +0.173 HD
BRANCH  21  27
ATOM     25  C   UNL     1       4.259  -8.467  -0.024  0.00  0.00    +0.168 A 
ATOM     26  C   UNL     1       4.776  -7.201  -0.028  0.00  0.00    +0.086 A 
ATOM     27  C   UNL     1       3.628  -6.367  -0.016  0.00  0.00    +0.170 A 
ATOM     28  N   UNL     1       2.590  -7.168  -0.014  0.00  0.00    -0.073 NA
ATOM     29  O   UNL     1       2.922  -8.331  -0.018  0.00  0.00    -0.354 OA
BRANCH  25  33
ATOM     30  C   UNL     1       6.447 -12.108  -0.043  0.00  0.00    +0.000 A 
ATOM     31  C   UNL     1       5.063 -12.136  -0.038  0.00  0.00    +0.001 A 
ATOM     32  C   UNL     1       4.347 -10.957  -0.031  0.00  0.00    +0.011 A 
ATOM     33  C   UNL     1       5.021  -9.735  -0.030  0.00  0.00    +0.020 A 
ATOM     34  C   UNL     1       6.416  -9.714  -0.041  0.00  0.00    +0.011 A 
ATOM     35  C   UNL     1       7.121 -10.900  -0.043  0.00  0.00    +0.001 A 
ENDBRANCH  25  33
ENDBRANCH  21  27
ENDBRANCH   1  23
TORSDOF 6
