REMARK  Name = ZINC23483192
REMARK  15 active torsions:
REMARK  status: ('A' for Active; 'I' for Inactive)
REMARK    1  A    between atoms: C_1  and  C_2
REMARK    2  A    between atoms: C_2  and  C_4
REMARK    3  A    between atoms: C_2  and  N_33
REMARK    4  A    between atoms: C_7  and  S_16
REMARK    5  A    between atoms: N_8  and  C_9
REMARK    6  A    between atoms: S_16  and  C_17
REMARK    7  A    between atoms: C_17  and  C_19
REMARK    8  A    between atoms: C_17  and  C_20
REMARK    9  A    between atoms: N_22  and  C_23
REMARK   10  A    between atoms: C_26  and  C_29
REMARK   11  A    between atoms: C_29  and  C_30
REMARK   12  A    between atoms: C_29  and  C_31
REMARK   13  A    between atoms: C_29  and  C_32
REMARK   14  A    between atoms: N_33  and  C_34
REMARK   15  A    between atoms: N_33  and  C_35
REMARK                            x       y       z     vdW  Elec       q    Type
REMARK                         _______ _______ _______ _____ _____    ______ ____
ROOT
ATOM      1  C   UNL     1      -0.035  -0.418   2.436  0.00  0.00    +0.125 A 
ATOM      2  N   UNL     1       0.237  -1.212   1.440  0.00  0.00    -0.135 NA
ATOM      3  N   UNL     1       0.145  -2.439   1.813  0.00  0.00    -0.122 NA
ATOM      4  C   UNL     1      -0.195  -2.496   3.080  0.00  0.00    +0.197 A 
ATOM      5  N   UNL     1      -0.315  -1.207   3.520  0.00  0.00    -0.275 N 
ENDROOT
BRANCH   5   6
ATOM      6  C   UNL     1      -0.657  -0.781   4.813  0.00  0.00    +0.050 A 
ATOM      7  C   UNL     1       0.265  -0.084   5.582  0.00  0.00    +0.029 A 
ATOM      8  C   UNL     1      -0.076   0.339   6.852  0.00  0.00    +0.040 A 
ATOM      9  C   UNL     1      -1.332   0.059   7.362  0.00  0.00    +0.124 A 
ATOM     10  C   UNL     1      -2.252  -0.641   6.598  0.00  0.00    +0.040 A 
ATOM     11  C   UNL     1      -1.916  -1.061   5.326  0.00  0.00    +0.029 A 
ATOM     12  F   UNL     1      -1.662   0.469   8.607  0.00  0.00    -0.205 F 
ENDBRANCH   5   6
BRANCH   1  14
ATOM     13  C   UNL     1       1.406   1.599   2.392  0.00  0.00    -0.005 C 
ATOM     14  C   UNL     1      -0.036   1.088   2.403  0.00  0.00    -0.003 C 
BRANCH  14  15
ATOM     15  N   UNL     1      -0.729   1.551   1.193  0.00  0.00    +0.382 N 
ATOM     16  C   UNL     1      -0.048   1.075  -0.018  0.00  0.00    -0.096 C 
ATOM     17  C   UNL     1      -0.854   3.015   1.186  0.00  0.00    -0.096 C 
ATOM     18  H   UNL     1      -1.743   1.125   1.201  0.00  0.00    -0.082 HD
ENDBRANCH  14  15
ENDBRANCH   1  14
BRANCH   4  19
ATOM     19  S   UNL     1      -0.441  -3.957   4.034  0.00  0.00    -0.073 S 
BRANCH  19  20
ATOM     20  C   UNL     1      -0.096  -5.214   2.778  0.00  0.00    +0.137 C 
ATOM     21  C   UNL     1      -1.154  -5.138   1.676  0.00  0.00    +0.029 C 
BRANCH  20  22
ATOM     22  C   UNL     1      -0.129  -6.580   3.413  0.00  0.00    +0.230 C 
ATOM     23  O   UNL     1      -0.776  -6.765   4.422  0.00  0.00    -0.274 OA
ATOM     24  N   UNL     1       0.561  -7.598   2.859  0.00  0.00    -0.285 N 
ATOM     25  H   UNL     1       1.085  -7.451   1.903  0.00  0.00    +0.155 HD
BRANCH  24  26
ATOM     26  C   UNL     1       0.609  -8.841   3.500  0.00  0.00    +0.033 A 
ATOM     27  C   UNL     1       1.759  -9.616   3.429  0.00  0.00    +0.023 A 
ATOM     28  C   UNL     1       1.806 -10.840   4.066  0.00  0.00    +0.006 A 
ATOM     29  C   UNL     1       0.705 -11.299   4.766  0.00  0.00    -0.042 A 
ATOM     30  C   UNL     1      -0.444 -10.532   4.834  0.00  0.00    +0.006 A 
ATOM     31  C   UNL     1      -0.495  -9.304   4.204  0.00  0.00    +0.023 A 
BRANCH  29  32
ATOM     32  C   UNL     1       0.757 -12.638   5.455  0.00  0.00    -0.013 C 
ATOM     33  C   UNL     1      -0.332 -13.549   4.884  0.00  0.00    +0.015 C 
ATOM     34  C   UNL     1       2.128 -13.277   5.226  0.00  0.00    +0.015 C 
ATOM     35  C   UNL     1       0.527 -12.448   6.956  0.00  0.00    +0.015 C 
ENDBRANCH  29  32
ENDBRANCH  24  26
ENDBRANCH  20  22
ENDBRANCH  19  20
ENDBRANCH   4  19
TORSDOF 8
