REMARK  Name = ZINC52860929
REMARK  5 active torsions:
REMARK  status: ('A' for Active; 'I' for Inactive)
REMARK    1  A    between atoms: C_1  and  C_2
REMARK    2  A    between atoms: C_6  and  S_8
REMARK    3  A    between atoms: S_8  and  C_9
REMARK    4  A    between atoms: C_14  and  C_15
REMARK    5  A    between atoms: N_16  and  O_17
REMARK                            x       y       z     vdW  Elec       q    Type
REMARK                         _______ _______ _______ _____ _____    ______ ____
ROOT
ATOM      1  C   UNL     1       0.117  -4.595   2.356  0.00  0.00    +0.026 A 
ATOM      2  C   UNL     1       0.219  -5.059   1.051  0.00  0.00    +0.017 A 
ATOM      3  C   UNL     1       0.267  -6.416   0.800  0.00  0.00    +0.021 A 
ATOM      4  C   UNL     1       0.214  -7.323   1.847  0.00  0.00    +0.042 A 
ATOM      5  C   UNL     1       0.113  -6.879   3.149  0.00  0.00    +0.032 A 
ATOM      6  C   UNL     1       0.069  -5.511   3.416  0.00  0.00    +0.033 A 
ATOM      7 CL   UNL     1       0.276  -9.027   1.517  0.00  0.00    -0.084 Cl
ENDROOT
BRANCH   6   8
ATOM      8  C   UNL     1      -0.033  -5.028   4.810  0.00  0.00    +0.163 C 
ATOM      9  N   UNL     1      -0.079  -3.751   5.055  0.00  0.00    -0.071 NA
ATOM     10  N   UNL     1      -0.080  -5.936   5.855  0.00  0.00    -0.340 N 
ATOM     11  H   UNL     1      -0.045  -6.888   5.673  0.00  0.00    +0.144 HD
ATOM     12  H   UNL     1      -0.146  -5.619   6.770  0.00  0.00    +0.144 HD
BRANCH   9  13
ATOM     13  O   UNL     1      -0.176  -3.289   6.390  0.00  0.00    -0.408 OA
ATOM     14  H   UNL     1      -0.204  -2.326   6.472  0.00  0.00    +0.328 HD
ENDBRANCH   9  13
ENDBRANCH   6   8
BRANCH   1  15
ATOM     15  S   UNL     1       0.055  -2.864   2.678  0.00  0.00    -0.049 S 
BRANCH  15  21
ATOM     16  C   UNL     1      -3.704   0.305   4.098  0.00  0.00    +0.066 C 
ATOM     17  C   UNL     1      -3.288  -1.075   3.660  0.00  0.00    +0.043 A 
ATOM     18  C   UNL     1      -4.232  -2.082   3.524  0.00  0.00    +0.043 A 
ATOM     19  C   UNL     1      -3.808  -3.338   3.118  0.00  0.00    +0.115 A 
ATOM     20  N   UNL     1      -2.524  -3.537   2.874  0.00  0.00    -0.230 NA
ATOM     21  C   UNL     1      -1.647  -2.554   3.014  0.00  0.00    +0.193 A 
ATOM     22  N   UNL     1      -2.020  -1.340   3.395  0.00  0.00    -0.227 NA
ENDBRANCH  15  21
ENDBRANCH   1  15
TORSDOF 4
