REMARK  Name = ZINC38796913
REMARK  8 active torsions:
REMARK  status: ('A' for Active; 'I' for Inactive)
REMARK    1  A    between atoms: C_1  and  N_2
REMARK    2  A    between atoms: N_2  and  C_3
REMARK    3  A    between atoms: N_2  and  C_14
REMARK    4  A    between atoms: C_3  and  C_4
REMARK    5  A    between atoms: N_6  and  C_7
REMARK    6  A    between atoms: C_14  and  C_16
REMARK    7  A    between atoms: C_14  and  C_22
REMARK    8  A    between atoms: C_22  and  C_24
REMARK                            x       y       z     vdW  Elec       q    Type
REMARK                         _______ _______ _______ _____ _____    ______ ____
ROOT
ATOM      1  C   UNL     1      -1.353  -0.573  -0.096  0.00  0.00    +0.159 C 
ENDROOT
BRANCH   1   2
ATOM      2  C   UNL     1      -1.277  -2.074  -0.204  0.00  0.00    -0.023 A 
ATOM      3  C   UNL     1      -0.295  -2.662  -0.979  0.00  0.00    +0.005 A 
ATOM      4  C   UNL     1      -0.226  -4.039  -1.078  0.00  0.00    +0.000 A 
ATOM      5  C   UNL     1      -1.137  -4.828  -0.401  0.00  0.00    +0.000 A 
ATOM      6  C   UNL     1      -2.118  -4.239   0.375  0.00  0.00    +0.000 A 
ATOM      7  C   UNL     1      -2.185  -2.862   0.477  0.00  0.00    +0.005 A 
ENDBRANCH   1   2
BRANCH   1   9
ATOM      8  C   UNL     1      -0.025   1.450   0.006  0.00  0.00    +0.106 C 
ATOM      9  N   UNL     1       0.005  -0.019  -0.006  0.00  0.00    -0.284 NA
BRANCH   9  10
ATOM     10  C   UNL     1       0.709  -0.541   1.173  0.00  0.00    +0.181 C 
BRANCH  10  11
ATOM     11  C   UNL     1       2.163  -0.152   1.103  0.00  0.00    +0.231 C 
ATOM     12  O   UNL     1       2.573   0.496   0.163  0.00  0.00    -0.274 OA
ATOM     13  N   UNL     1       3.009  -0.524   2.084  0.00  0.00    -0.284 N 
ATOM     14  H   UNL     1       2.668  -0.973   2.874  0.00  0.00    +0.155 HD
BRANCH  13  15
ATOM     15  C   UNL     1       4.379  -0.264   1.964  0.00  0.00    +0.047 A 
ATOM     16  C   UNL     1       4.951  -0.117   0.707  0.00  0.00    +0.024 A 
ATOM     17  C   UNL     1       6.303   0.141   0.592  0.00  0.00    +0.002 A 
ATOM     18  C   UNL     1       7.087   0.251   1.726  0.00  0.00    +0.001 A 
ATOM     19  C   UNL     1       6.521   0.104   2.978  0.00  0.00    +0.017 A 
ATOM     20  C   UNL     1       5.168  -0.147   3.101  0.00  0.00    +0.039 A 
ATOM     21 BR   UNL     1       4.393  -0.340   4.815  0.00  0.00    -0.048 Br
ENDBRANCH  13  15
ENDBRANCH  10  11
ENDBRANCH   9  10
ENDBRANCH   1   9
BRANCH   1  22
ATOM     22  C   UNL     1      -2.042  -0.016  -1.315  0.00  0.00    +0.183 C 
ATOM     23  O   UNL     1      -1.386   0.459  -2.220  0.00  0.00    -0.290 OA
BRANCH  22  24
ATOM     24  C   UNL     1      -3.450  -0.045  -1.404  0.00  0.00    +0.025 C 
ATOM     25  C   UNL     1      -4.232   0.416  -2.448  0.00  0.00    +0.006 A 
ATOM     26  C   UNL     1      -3.922   1.027  -3.686  0.00  0.00    +0.010 A 
ATOM     27  C   UNL     1      -4.910   1.384  -4.536  0.00  0.00    +0.001 A 
ATOM     28  C   UNL     1      -6.268   1.174  -4.244  0.00  0.00    +0.002 A 
ATOM     29  C   UNL     1      -6.671   0.599  -3.090  0.00  0.00    +0.026 A 
ATOM     30  C   UNL     1      -5.657   0.179  -2.109  0.00  0.00    +0.043 A 
ATOM     31  N   UNL     1      -5.760  -0.387  -0.940  0.00  0.00    -0.380 N 
ATOM     32  C   UNL     1      -4.421  -0.593  -0.381  0.00  0.00    +0.152 C 
ATOM     33  H   UNL     1      -6.593  -0.637  -0.509  0.00  0.00    +0.160 HD
ENDBRANCH  22  24
ENDBRANCH   1  22
TORSDOF 7
