REMARK  Name = ZINC24068193
REMARK  17 active torsions:
REMARK  status: ('A' for Active; 'I' for Inactive)
REMARK    1  A    between atoms: C_1  and  C_2
REMARK    2  A    between atoms: C_2  and  O_3
REMARK    3  A    between atoms: O_3  and  C_4
REMARK    4  A    between atoms: C_6  and  C_20
REMARK    5  A    between atoms: C_9  and  O_10
REMARK    6  A    between atoms: O_10  and  C_11
REMARK    7  A    between atoms: C_11  and  C_12
REMARK    8  A    between atoms: C_12  and  O_13
REMARK    9  A    between atoms: O_13  and  C_14
REMARK   10  A    between atoms: C_20  and  O_22
REMARK   11  A    between atoms: O_22  and  C_23
REMARK   12  A    between atoms: C_23  and  C_25
REMARK   13  A    between atoms: C_23  and  C_26
REMARK   14  A    between atoms: N_28  and  C_29
REMARK   15  A    between atoms: C_29  and  C_30
REMARK   16  A    between atoms: C_30  and  C_31
REMARK   17  A    between atoms: C_30  and  C_32
REMARK                            x       y       z     vdW  Elec       q    Type
REMARK                         _______ _______ _______ _____ _____    ______ ____
ROOT
ATOM      1  C   UNL     1      -0.148   1.182   2.381  0.00  0.00    +0.163 A 
ATOM      2  C   UNL     1       0.990   0.400   2.420  0.00  0.00    +0.064 A 
ATOM      3  C   UNL     1       1.535   0.027   3.652  0.00  0.00    +0.063 A 
ATOM      4  C   UNL     1       0.926   0.447   4.838  0.00  0.00    +0.019 A 
ATOM      5  C   UNL     1      -0.209   1.226   4.791  0.00  0.00    +0.050 A 
ATOM      6  C   UNL     1      -0.747   1.602   3.567  0.00  0.00    +0.162 A 
ENDROOT
BRANCH   3   7
ATOM      7  C   UNL     1       2.750  -0.807   3.700  0.00  0.00    +0.340 C 
ATOM      8  O   UNL     1       3.279  -1.171   2.668  0.00  0.00    -0.245 OA
BRANCH   7   9
ATOM      9  O   UNL     1       3.274  -1.166   4.888  0.00  0.00    -0.449 OA
BRANCH   9  10
ATOM     10  C   UNL     1       4.471  -1.987   4.860  0.00  0.00    +0.259 C 
ATOM     11  C   UNL     1       5.708  -1.087   4.848  0.00  0.00    +0.062 C 
BRANCH  10  12
ATOM     12  C   UNL     1       4.504  -2.870   6.080  0.00  0.00    +0.254 C 
ATOM     13  O   UNL     1       3.607  -2.813   6.895  0.00  0.00    -0.272 OA
ATOM     14  N   UNL     1       5.530  -3.724   6.268  0.00  0.00    -0.312 N 
ATOM     15  H   UNL     1       6.344  -3.776   5.529  0.00  0.00    +0.149 HD
BRANCH  14  16
ATOM     16  C   UNL     1       5.562  -4.582   7.455  0.00  0.00    +0.107 C 
BRANCH  16  17
ATOM     17  C   UNL     1       6.823  -5.448   7.424  0.00  0.00    -0.000 C 
ATOM     18  C   UNL     1       8.059  -4.553   7.539  0.00  0.00    +0.009 C 
ATOM     19  C   UNL     1       6.795  -6.431   8.596  0.00  0.00    +0.009 C 
ENDBRANCH  16  17
ENDBRANCH  14  16
ENDBRANCH  10  12
ENDBRANCH   9  10
ENDBRANCH   7   9
ENDBRANCH   3   7
BRANCH   1  20
ATOM     20  O   UNL     1      -0.682   1.547   1.184  0.00  0.00    -0.489 OA
BRANCH  20  22
ATOM     21  C   UNL     1      -0.753   1.593  -1.232  0.00  0.00    +0.048 C 
ATOM     22  C   UNL     1      -0.013   1.086   0.008  0.00  0.00    +0.226 C 
ENDBRANCH  20  22
ENDBRANCH   1  20
BRANCH   6  23
ATOM     23  O   UNL     1      -1.863   2.375   3.527  0.00  0.00    -0.485 OA
BRANCH  23  24
ATOM     24  C   UNL     1      -2.425   2.769   4.780  0.00  0.00    +0.270 C 
BRANCH  24  25
ATOM     25  C   UNL     1      -3.666   3.630   4.534  0.00  0.00    +0.270 C 
BRANCH  25  26
ATOM     26  O   UNL     1      -4.674   2.841   3.899  0.00  0.00    -0.489 OA
BRANCH  26  27
ATOM     27  C   UNL     1      -5.849   3.458   3.609  0.00  0.00    +0.121 A 
ATOM     28  C   UNL     1      -6.030   4.795   3.934  0.00  0.00    +0.045 A 
ATOM     29  C   UNL     1      -7.224   5.422   3.632  0.00  0.00    +0.004 A 
ATOM     30  C   UNL     1      -8.242   4.716   3.018  0.00  0.00    +0.000 A 
ATOM     31  C   UNL     1      -8.066   3.382   2.699  0.00  0.00    +0.004 A 
ATOM     32  C   UNL     1      -6.872   2.752   2.993  0.00  0.00    +0.045 A 
ENDBRANCH  26  27
ENDBRANCH  25  26
ENDBRANCH  24  25
ENDBRANCH  23  24
ENDBRANCH   6  23
TORSDOF 13
