REMARK  Name = ZINC54476657
REMARK  8 active torsions:
REMARK  status: ('A' for Active; 'I' for Inactive)
REMARK    1  A    between atoms: C_1  and  C_2
REMARK    2  A    between atoms: C_2  and  C_3
REMARK    3  A    between atoms: C_3  and  N_4
REMARK    4  A    between atoms: C_5  and  C_7
REMARK    5  A    between atoms: C_10  and  N_14
REMARK    6  A    between atoms: N_17  and  C_18
REMARK    7  A    between atoms: C_18  and  C_19
REMARK    8  A    between atoms: C_23  and  C_28
REMARK                            x       y       z     vdW  Elec       q    Type
REMARK                         _______ _______ _______ _____ _____    ______ ____
ROOT
ATOM      1  N   UNL     1      -2.493  -8.329  -0.020  0.00  0.00    -0.269 N 
ATOM      2  C   UNL     1      -3.646  -9.020   0.083  0.00  0.00    +0.304 C 
ATOM      3  O   UNL     1      -4.709  -8.431   0.091  0.00  0.00    -0.252 OA
ATOM      4  N   UNL     1      -3.619 -10.364   0.177  0.00  0.00    -0.294 N 
ATOM      5  H   UNL     1      -1.649  -8.802  -0.094  0.00  0.00    +0.156 HD
ATOM      6  H   UNL     1      -2.771 -10.835   0.170  0.00  0.00    +0.151 HD
ENDROOT
BRANCH   1  10
ATOM      7  C   UNL     1      -2.554  -4.163  -0.021  0.00  0.00    +0.055 A 
ATOM      8  C   UNL     1      -1.497  -4.849   0.586  0.00  0.00    +0.016 A 
ATOM      9  C   UNL     1      -1.481  -6.225   0.584  0.00  0.00    +0.024 A 
ATOM     10  C   UNL     1      -2.514  -6.935  -0.021  0.00  0.00    +0.036 A 
ATOM     11  C   UNL     1      -3.567  -6.258  -0.626  0.00  0.00    +0.044 A 
ATOM     12  C   UNL     1      -3.594  -4.879  -0.623  0.00  0.00    +0.055 A 
ATOM     13 CL   UNL     1      -4.912  -4.034  -1.371  0.00  0.00    -0.083 Cl
BRANCH   7  15
ATOM     14  N   UNL     1      -1.571  -2.000   0.559  0.00  0.00    -0.311 N 
ATOM     15  C   UNL     1      -2.575  -2.688  -0.022  0.00  0.00    +0.245 C 
ATOM     16  O   UNL     1      -3.497  -2.093  -0.546  0.00  0.00    -0.270 OA
ATOM     17  H   UNL     1      -0.836  -2.474   0.977  0.00  0.00    +0.149 HD
BRANCH  14  18
ATOM     18  C   UNL     1      -1.592  -0.535   0.558  0.00  0.00    +0.104 C 
BRANCH  18  20
ATOM     19  C   UNL     1      -0.369   1.523   1.275  0.00  0.00    +0.005 C 
ATOM     20  C   UNL     1      -0.348  -0.007   1.275  0.00  0.00    +0.015 C 
ENDBRANCH  18  20
ENDBRANCH  14  18
ENDBRANCH   7  15
ENDBRANCH   1  10
BRANCH   4  21
ATOM     21  C   UNL     1      -4.872 -11.116   0.289  0.00  0.00    +0.160 C 
BRANCH  21  22
ATOM     22  C   UNL     1      -4.568 -12.589   0.378  0.00  0.00    +0.051 A 
ATOM     23  C   UNL     1      -4.548 -13.454  -0.659  0.00  0.00    +0.115 A 
ATOM     24  N   UNL     1      -4.230 -14.685  -0.153  0.00  0.00    -0.308 N 
ATOM     25  C   UNL     1      -4.072 -15.910  -0.734  0.00  0.00    +0.096 A 
ATOM     26  C   UNL     1      -3.749 -16.988   0.011  0.00  0.00    -0.034 A 
ATOM     27  C   UNL     1      -3.572 -16.863   1.399  0.00  0.00    +0.008 A 
ATOM     28  C   UNL     1      -3.726 -15.648   1.991  0.00  0.00    +0.045 A 
ATOM     29  C   UNL     1      -4.063 -14.531   1.199  0.00  0.00    +0.115 A 
ATOM     30  N   UNL     1      -4.267 -13.256   1.495  0.00  0.00    -0.342 N 
ATOM     31  C   UNL     1      -3.579 -18.332  -0.649  0.00  0.00    +0.045 C 
ATOM     32  H   UNL     1      -4.209 -12.869   2.383  0.00  0.00    +0.167 HD
ENDBRANCH  21  22
ENDBRANCH   4  21
TORSDOF 6
