REMARK  Name = ZINC64155751
REMARK  4 active torsions:
REMARK  status: ('A' for Active; 'I' for Inactive)
REMARK    1  A    between atoms: C_1  and  C_2
REMARK    2  A    between atoms: C_10  and  C_13
REMARK    3  A    between atoms: C_14  and  C_26
REMARK    4  A    between atoms: C_16  and  C_19
REMARK                            x       y       z     vdW  Elec       q    Type
REMARK                         _______ _______ _______ _____ _____    ______ ____
ROOT
ATOM      1  C   UNL     1       0.036  -2.865   2.401  0.00  0.00    -0.002 C 
ATOM      2  C   UNL     1       0.142  -2.333   3.618  0.00  0.00    +0.016 C 
ATOM      3  N   UNL     1       0.156  -3.260   4.626  0.00  0.00    -0.269 N 
ATOM      4  C   UNL     1       0.046  -4.610   4.054  0.00  0.00    +0.083 C 
ATOM      5  C   UNL     1      -0.044  -4.370   2.535  0.00  0.00    +0.061 C 
ATOM      6  C   UNL     1       1.284  -5.441   4.401  0.00  0.00    +0.029 C 
ATOM      7  C   UNL     1       0.259  -2.969   5.988  0.00  0.00    +0.241 A 
ATOM      8  N   UNL     1       0.359  -1.745   6.516  0.00  0.00    -0.202 NA
ATOM      9  H   UNL     1       0.425  -3.497   9.056  0.00  0.00    +0.190 HD
ATOM     10  C   UNL     1       0.437  -1.831   7.819  0.00  0.00    +0.217 A 
ATOM     11  N   UNL     1       0.388  -3.130   8.159  0.00  0.00    -0.264 N 
ATOM     12  N   UNL     1       0.268  -3.850   6.960  0.00  0.00    -0.136 NA
ATOM     13  C   UNL     1       0.239  -0.849   3.863  0.00  0.00    +0.061 C 
ENDROOT
BRANCH   1  23
ATOM     14  C   UNL     1       2.103  -1.765  -1.995  0.00  0.00    +0.046 C 
ATOM     15  C   UNL     1       1.006  -1.597  -0.975  0.00  0.00    -0.021 A 
ATOM     16  C   UNL     1      -0.074  -0.721  -1.212  0.00  0.00    +0.005 A 
ATOM     17  C   UNL     1      -0.161   0.019  -2.401  0.00  0.00    +0.010 A 
ATOM     18  C   UNL     1      -1.218   0.856  -2.599  0.00  0.00    +0.001 A 
ATOM     19  C   UNL     1      -2.215   0.988  -1.635  0.00  0.00    +0.002 A 
ATOM     20  C   UNL     1      -2.162   0.286  -0.470  0.00  0.00    +0.028 A 
ATOM     21  C   UNL     1      -1.087  -0.589  -0.230  0.00  0.00    +0.072 A 
ATOM     22  N   UNL     1      -1.012  -1.290   0.905  0.00  0.00    -0.245 NA
ATOM     23  C   UNL     1      -0.004  -2.115   1.137  0.00  0.00    +0.088 A 
ATOM     24  C   UNL     1       1.031  -2.291   0.197  0.00  0.00    +0.070 A 
ATOM     25 CL   UNL     1       2.335  -3.386   0.532  0.00  0.00    -0.081 Cl
ENDBRANCH   1  23
TORSDOF 1
