REMARK  Name = ZINC32998021
REMARK  9 active torsions:
REMARK  status: ('A' for Active; 'I' for Inactive)
REMARK    1  A    between atoms: C_1  and  C_2
REMARK    2  A    between atoms: C_11  and  S_14
REMARK    3  A    between atoms: S_14  and  C_15
REMARK    4  A    between atoms: C_15  and  C_16
REMARK    5  A    between atoms: C_16  and  C_17
REMARK    6  A    between atoms: C_17  and  C_18
REMARK    7  A    between atoms: C_17  and  C_19
REMARK    8  A    between atoms: C_21  and  C_27
REMARK    9  A    between atoms: C_24  and  C_26
REMARK                            x       y       z     vdW  Elec       q    Type
REMARK                         _______ _______ _______ _____ _____    ______ ____
ROOT
ATOM      1  C   UNL     1      -5.757   4.778  -8.156  0.00  0.00    +0.044 C 
ATOM      2  C   UNL     1      -6.518   4.711  -6.856  0.00  0.00    -0.050 A 
ATOM      3  C   UNL     1      -7.726   5.374  -6.732  0.00  0.00    +0.005 A 
ATOM      4  C   UNL     1      -8.438   5.316  -5.548  0.00  0.00    +0.024 A 
ATOM      5  C   UNL     1      -7.941   4.592  -4.481  0.00  0.00    +0.049 A 
ATOM      6  C   UNL     1      -6.707   3.927  -4.599  0.00  0.00    +0.029 A 
ATOM      7  C   UNL     1      -6.005   3.989  -5.797  0.00  0.00    +0.015 A 
ATOM      8  C   UNL     1      -6.179   3.194  -3.430  0.00  0.00    +0.156 A 
ATOM      9  C   UNL     1      -7.025   2.315  -2.717  0.00  0.00    +0.248 A 
ATOM     10  N   UNL     1      -6.537   1.677  -1.667  0.00  0.00    -0.184 NA
ATOM     11  C   UNL     1      -5.270   1.875  -1.315  0.00  0.00    +0.212 A 
ATOM     12  N   UNL     1      -4.492   2.705  -1.998  0.00  0.00    -0.122 NA
ATOM     13  N   UNL     1      -4.926   3.345  -3.030  0.00  0.00    -0.141 NA
ATOM     14  O   UNL     1      -8.306   2.140  -3.117  0.00  0.00    -0.448 OA
ATOM     15  C   UNL     1      -9.216   3.211  -2.891  0.00  0.00    +0.303 C 
ATOM     16  N   UNL     1      -8.643   4.498  -3.272  0.00  0.00    -0.231 N 
ATOM     17  C   UNL     1      -8.787   5.576  -2.476  0.00  0.00    +0.220 C 
ATOM     18  O   UNL     1      -9.397   5.482  -1.432  0.00  0.00    -0.275 OA
ATOM     19  C   UNL     1      -8.190   6.898  -2.884  0.00  0.00    +0.110 C 
ENDROOT
BRANCH  15  20
ATOM     20  C   UNL     1     -10.466   2.971  -3.697  0.00  0.00    +0.012 A 
ATOM     21  C   UNL     1     -11.310   4.026  -3.994  0.00  0.00    +0.010 A 
ATOM     22  C   UNL     1     -12.454   3.808  -4.737  0.00  0.00    +0.016 A 
ATOM     23  C   UNL     1     -12.761   2.532  -5.176  0.00  0.00    +0.018 A 
ATOM     24  C   UNL     1     -11.920   1.477  -4.875  0.00  0.00    +0.016 A 
ATOM     25  C   UNL     1     -10.773   1.697  -4.136  0.00  0.00    +0.010 A 
ATOM     26 BR   UNL     1     -14.331   2.232  -6.187  0.00  0.00    -0.050 Br
ENDBRANCH  15  20
BRANCH  11  27
ATOM     27  S   UNL     1      -4.616   1.029   0.085  0.00  0.00    -0.084 S 
BRANCH  27  28
ATOM     28  C   UNL     1      -2.923   1.668   0.076  0.00  0.00    +0.078 C 
BRANCH  28  29
ATOM     29  C   UNL     1      -2.139   1.054   1.238  0.00  0.00    +0.014 C 
BRANCH  29  30
ATOM     30  C   UNL     1      -0.708   1.594   1.230  0.00  0.00    -0.016 C 
ATOM     31  C   UNL     1       0.009   1.120  -0.036  0.00  0.00    +0.007 C 
ATOM     32  C   UNL     1       0.038   1.079   2.462  0.00  0.00    +0.007 C 
ENDBRANCH  29  30
ENDBRANCH  28  29
ENDBRANCH  27  28
ENDBRANCH  11  27
TORSDOF 5
