REMARK  Name = ZINC25260046
REMARK  7 active torsions:
REMARK  status: ('A' for Active; 'I' for Inactive)
REMARK    1  A    between atoms: C_1  and  C_2
REMARK    2  A    between atoms: C_2  and  C_4
REMARK    3  A    between atoms: C_2  and  N_24
REMARK    4  A    between atoms: N_6  and  C_7
REMARK    5  A    between atoms: C_11  and  S_13
REMARK    6  A    between atoms: S_13  and  N_16
REMARK    7  A    between atoms: N_16  and  C_17
REMARK                            x       y       z     vdW  Elec       q    Type
REMARK                         _______ _______ _______ _____ _____    ______ ____
ROOT
ATOM      1  C   UNL     1      -2.180   5.527  -1.438  0.00  0.00    +0.035 A 
ATOM      2  C   UNL     1      -0.894   5.829  -1.867  0.00  0.00    +0.023 A 
ATOM      3  C   UNL     1      -0.583   7.116  -2.259  0.00  0.00    +0.004 A 
ATOM      4  C   UNL     1      -1.548   8.106  -2.215  0.00  0.00    +0.029 A 
ATOM      5  C   UNL     1      -2.828   7.810  -1.784  0.00  0.00    +0.110 A 
ATOM      6  C   UNL     1      -3.147   6.523  -1.395  0.00  0.00    +0.052 A 
ENDROOT
BRANCH   1   9
ATOM      7  C   UNL     1      -1.913   3.173  -1.653  0.00  0.00    +0.237 C 
ATOM      8  O   UNL     1      -1.180   3.354  -2.603  0.00  0.00    -0.273 OA
ATOM      9  N   UNL     1      -2.500   4.223  -1.045  0.00  0.00    -0.284 N 
ATOM     10  H   UNL     1      -3.230   4.054  -0.240  0.00  0.00    +0.155 HD
BRANCH   7  12
ATOM     11  C   UNL     1      -1.708   1.662   0.302  0.00  0.00    +0.038 C 
ATOM     12  C   UNL     1      -2.167   1.774  -1.153  0.00  0.00    +0.158 C 
BRANCH  12  13
ATOM     13  N   UNL     1      -1.420   0.818  -1.975  0.00  0.00    -0.289 N 
ATOM     14  C   UNL     1      -1.842  -0.458  -2.076  0.00  0.00    +0.298 C 
ATOM     15  O   UNL     1      -2.839  -0.817  -1.481  0.00  0.00    -0.253 OA
ATOM     16  N   UNL     1      -1.158  -1.335  -2.837  0.00  0.00    -0.313 N 
ATOM     17  H   UNL     1      -0.515   1.143  -2.510  0.00  0.00    +0.151 HD
ATOM     18  H   UNL     1      -1.502  -2.377  -2.919  0.00  0.00    +0.146 HD
ATOM     19  H   UNL     1      -0.256  -1.010  -3.375  0.00  0.00    +0.146 HD
ENDBRANCH  12  13
ENDBRANCH   7  12
ENDBRANCH   1   9
BRANCH   5  20
ATOM     20  S   UNL     1      -4.053   9.075  -1.729  0.00  0.00    +0.072 S 
ATOM     21  O   UNL     1      -3.708  10.018  -2.734  0.00  0.00    -0.150 OA
ATOM     22  O   UNL     1      -5.313   8.418  -1.701  0.00  0.00    -0.150 OA
BRANCH  20  23
ATOM     23  N   UNL     1      -3.892   9.851  -0.275  0.00  0.00    -0.216 N 
ATOM     24  H   UNL     1      -4.697   9.793   0.472  0.00  0.00    +0.174 HD
BRANCH  23  25
ATOM     25  C   UNL     1      -2.732  10.579   0.003  0.00  0.00    +0.048 A 
ATOM     26  C   UNL     1      -1.787  10.072   0.885  0.00  0.00    +0.025 A 
ATOM     27  C   UNL     1      -0.639  10.792   1.154  0.00  0.00    +0.017 A 
ATOM     28  C   UNL     1      -0.437  12.023   0.554  0.00  0.00    +0.018 A 
ATOM     29  C   UNL     1      -1.379  12.533  -0.321  0.00  0.00    +0.017 A 
ATOM     30  C   UNL     1      -2.526  11.814  -0.598  0.00  0.00    +0.025 A 
ATOM     31 BR   UNL     1       1.133  13.008   0.930  0.00  0.00    -0.050 Br
ENDBRANCH  23  25
ENDBRANCH  20  23
ENDBRANCH   5  20
TORSDOF 6
