REMARK  Name = ZINC37422290
REMARK  5 active torsions:
REMARK  status: ('A' for Active; 'I' for Inactive)
REMARK    1  A    between atoms: C_1  and  C_2
REMARK    2  A    between atoms: C_5  and  N_9
REMARK    3  A    between atoms: C_7  and  C_8
REMARK    4  A    between atoms: C_17  and  C_18
REMARK    5  A    between atoms: C_18  and  C_19
REMARK                            x       y       z     vdW  Elec       q    Type
REMARK                         _______ _______ _______ _____ _____    ______ ____
ROOT
ATOM      1  N   UNL     1       0.057  -4.172  -0.021  0.00  0.00    -0.296 N 
ATOM      2  C   UNL     1      -0.941  -5.007   0.445  0.00  0.00    +0.076 A 
ATOM      3  C   UNL     1      -2.184  -4.795   1.025  0.00  0.00    +0.028 A 
ATOM      4  C   UNL     1      -2.965  -5.871   1.389  0.00  0.00    +0.005 A 
ATOM      5  C   UNL     1      -2.517  -7.168   1.180  0.00  0.00    +0.040 A 
ATOM      6  C   UNL     1      -1.286  -7.399   0.605  0.00  0.00    +0.151 A 
ATOM      7  C   UNL     1      -0.481  -6.317   0.230  0.00  0.00    +0.125 A 
ATOM      8  N   UNL     1       0.746  -6.218  -0.343  0.00  0.00    -0.229 NA
ATOM      9  C   UNL     1       1.060  -4.965  -0.494  0.00  0.00    +0.116 A 
ATOM     10  F   UNL     1      -0.857  -8.664   0.405  0.00  0.00    -0.203 F 
ENDROOT
BRANCH   1  15
ATOM     11  C   UNL     1      -0.018   1.503   0.010  0.00  0.00    +0.044 C 
ATOM     12  C   UNL     1       0.002  -0.004   0.002  0.00  0.00    -0.047 A 
ATOM     13  C   UNL     1       0.006  -0.688  -1.200  0.00  0.00    +0.005 A 
ATOM     14  C   UNL     1       0.024  -2.068  -1.211  0.00  0.00    +0.026 A 
ATOM     15  C   UNL     1       0.039  -2.771  -0.013  0.00  0.00    +0.049 A 
ATOM     16  C   UNL     1       0.036  -2.082   1.192  0.00  0.00    +0.029 A 
ATOM     17  C   UNL     1       0.023  -0.700   1.196  0.00  0.00    -0.046 A 
ATOM     18  C   UNL     1       0.026   0.048   2.504  0.00  0.00    +0.044 C 
ENDBRANCH   1  15
BRANCH   9  19
ATOM     19  C   UNL     1       2.345  -4.463  -1.101  0.00  0.00    +0.090 C 
BRANCH  19  20
ATOM     20  C   UNL     1       3.396  -4.293  -0.002  0.00  0.00    +0.116 C 
ATOM     21 CL   UNL     1       4.933  -3.693  -0.728  0.00  0.00    -0.125 Cl
ENDBRANCH  19  20
ENDBRANCH   9  19
TORSDOF 3
