REMARK  Name = ZINC43757074
REMARK  4 active torsions:
REMARK  status: ('A' for Active; 'I' for Inactive)
REMARK    1  A    between atoms: C_1  and  C_2
REMARK    2  A    between atoms: C_16  and  O_27
REMARK    3  A    between atoms: C_18  and  C_26
REMARK    4  A    between atoms: C_21  and  O_25
REMARK                            x       y       z     vdW  Elec       q    Type
REMARK                         _______ _______ _______ _____ _____    ______ ____
ROOT
ATOM      1  C   UNL     1      -0.123   1.509  -0.036  0.00  0.00    +0.012 C 
ATOM      2  C   UNL     1      -0.088  -0.024  -0.044  0.00  0.00    -0.026 C 
ATOM      3  C   UNL     1      -1.537  -0.520  -0.045  0.00  0.00    +0.007 C 
ATOM      4  C   UNL     1      -1.585  -2.045   0.026  0.00  0.00    +0.001 C 
ATOM      5  C   UNL     1      -0.908  -2.504   1.320  0.00  0.00    +0.000 C 
ATOM      6  C   UNL     1       0.551  -2.051   1.303  0.00  0.00    +0.004 C 
ATOM      7  C   UNL     1       0.628  -0.525   1.212  0.00  0.00    -0.005 C 
ATOM      8  C   UNL     1       2.100  -0.112   1.211  0.00  0.00    +0.004 C 
ATOM      9  C   UNL     1       2.805  -0.648  -0.044  0.00  0.00    +0.004 C 
ATOM     10  C   UNL     1       2.102  -0.070  -1.263  0.00  0.00    -0.001 C 
ATOM     11  C   UNL     1       0.643  -0.540  -1.277  0.00  0.00    +0.001 C 
ATOM     12  C   UNL     1      -0.009  -0.114  -2.585  0.00  0.00    +0.036 C 
ATOM     13  C   UNL     1       0.591  -0.892  -3.767  0.00  0.00    +0.121 C 
ATOM     14  C   UNL     1       2.001  -1.343  -3.464  0.00  0.00    -0.001 C 
ATOM     15  C   UNL     1       2.745  -0.319  -2.586  0.00  0.00    +0.029 C 
ATOM     16  C   UNL     1       4.199  -0.774  -2.658  0.00  0.00    +0.119 C 
ATOM     17  C   UNL     1       4.343  -1.361  -4.088  0.00  0.00    +0.032 C 
ATOM     18  C   UNL     1       2.923  -1.333  -4.713  0.00  0.00    +0.012 C 
ATOM     19  C   UNL     1       2.017  -2.762  -2.894  0.00  0.00    +0.014 C 
ENDROOT
BRANCH  16  20
ATOM     20  O   UNL     1       4.511  -1.769  -1.689  0.00  0.00    -0.391 OA
ATOM     21  H   UNL     1       5.429  -2.072  -1.718  0.00  0.00    +0.210 HD
ENDBRANCH  16  20
BRANCH  13  22
ATOM     22  O   UNL     1      -0.230  -2.030  -4.063  0.00  0.00    -0.391 OA
ATOM     23  H   UNL     1      -1.139  -1.806  -4.303  0.00  0.00    +0.210 HD
ENDBRANCH  13  22
TORSDOF 2
