REMARK  Name = ZINC12603136
REMARK  7 active torsions:
REMARK  status: ('A' for Active; 'I' for Inactive)
REMARK    1  A    between atoms: C_1  and  O_2
REMARK    2  A    between atoms: O_2  and  C_3
REMARK    3  A    between atoms: C_6  and  C_9
REMARK    4  A    between atoms: C_9  and  C_11
REMARK    5  A    between atoms: C_9  and  N_54
REMARK    6  A    between atoms: C_11  and  N_12
REMARK    7  A    between atoms: C_13  and  C_15
REMARK                            x       y       z     vdW  Elec       q    Type
REMARK                         _______ _______ _______ _____ _____    ______ ____
ROOT
ATOM      1  C   UNL     1      -0.099   0.979   2.425  0.00  0.00    -0.020 C 
ENDROOT
BRANCH   1   7
ATOM      2  C   UNL     1       0.033  -0.085   0.254  0.00  0.00    -0.078 C 
ATOM      3  C   UNL     1      -0.600  -0.132  -1.138  0.00  0.00    -0.019 C 
ATOM      4  C   UNL     1      -0.391   1.215  -1.834  0.00  0.00    -0.004 C 
ATOM      5  C   UNL     1      -1.000   2.326  -0.974  0.00  0.00    -0.019 C 
ATOM      6  C   UNL     1      -0.355   2.301   0.414  0.00  0.00    -0.078 C 
ATOM      7  N   UNL     1      -0.614   0.987   1.040  0.00  0.00    +0.385 N 
ATOM      8  H   UNL     1      -1.627   0.821   1.060  0.00  0.00    -0.081 HD
ENDBRANCH   1   7
BRANCH   1  12
ATOM      9  C   UNL     1       4.091   1.817   2.477  0.00  0.00    +0.120 A 
ATOM     10  C   UNL     1       3.633   0.544   2.784  0.00  0.00    +0.046 A 
ATOM     11  C   UNL     1       2.278   0.275   2.767  0.00  0.00    +0.005 A 
ATOM     12  C   UNL     1       1.379   1.274   2.443  0.00  0.00    -0.059 A 
ATOM     13  C   UNL     1       1.833   2.542   2.131  0.00  0.00    +0.005 A 
ATOM     14  C   UNL     1       3.186   2.817   2.153  0.00  0.00    +0.046 A 
BRANCH   9  16
ATOM     15  C   UNL     1       5.823   3.416   2.165  0.00  0.00    +0.277 C 
ATOM     16  O   UNL     1       5.424   2.083   2.492  0.00  0.00    -0.495 OA
ENDBRANCH   9  16
ENDBRANCH   1  12
BRANCH   1  17
ATOM     17  C   UNL     1      -0.842   2.042   3.235  0.00  0.00    +0.094 C 
BRANCH  17  18
ATOM     18  N   UNL     1      -2.286   1.825   3.119  0.00  0.00    -0.313 N 
ATOM     19  C   UNL     1      -3.145   2.647   3.755  0.00  0.00    +0.244 C 
ATOM     20  O   UNL     1      -2.721   3.569   4.424  0.00  0.00    -0.270 OA
ATOM     21  H   UNL     1      -2.624   1.089   2.586  0.00  0.00    +0.149 HD
BRANCH  19  22
ATOM     22  C   UNL     1      -4.601   2.427   3.638  0.00  0.00    +0.039 A 
ATOM     23  C   UNL     1      -5.087   1.367   2.861  0.00  0.00    +0.015 A 
ATOM     24  C   UNL     1      -6.429   1.151   2.749  0.00  0.00    +0.028 A 
ATOM     25  C   UNL     1      -7.329   1.990   3.398  0.00  0.00    +0.066 A 
ATOM     26  C   UNL     1      -6.858   3.062   4.178  0.00  0.00    +0.089 A 
ATOM     27  C   UNL     1      -5.485   3.277   4.294  0.00  0.00    +0.043 A 
ATOM     28  N   UNL     1      -7.950   3.695   4.681  0.00  0.00    -0.236 NA
ATOM     29  C   UNL     1      -9.028   3.095   4.270  0.00  0.00    +0.197 A 
ATOM     30  N   UNL     1      -8.703   2.038   3.477  0.00  0.00    -0.344 N 
ATOM     31  H   UNL     1      -9.344   1.412   3.034  0.00  0.00    +0.167 HD
ENDBRANCH  19  22
ENDBRANCH  17  18
ENDBRANCH   1  17
TORSDOF 6
