REMARK  Name = ZINC22311204
REMARK  8 active torsions:
REMARK  status: ('A' for Active; 'I' for Inactive)
REMARK    1  A    between atoms: C_1  and  C_2
REMARK    2  A    between atoms: C_2  and  N_3
REMARK    3  A    between atoms: C_7  and  S_24
REMARK    4  A    between atoms: C_11  and  S_12
REMARK    5  A    between atoms: S_12  and  C_13
REMARK    6  A    between atoms: C_13  and  C_14
REMARK    7  A    between atoms: N_16  and  C_17
REMARK    8  A    between atoms: S_24  and  N_27
REMARK                            x       y       z     vdW  Elec       q    Type
REMARK                         _______ _______ _______ _____ _____    ______ ____
ROOT
ATOM      1  N   UNL     1      -1.709   4.867  -4.990  0.00  0.00    -0.319 N 
ATOM      2  C   UNL     1      -1.526   4.343  -3.721  0.00  0.00    +0.070 A 
ATOM      3  C   UNL     1      -0.989   4.841  -2.544  0.00  0.00    +0.030 A 
ATOM      4  C   UNL     1      -0.955   4.048  -1.415  0.00  0.00    +0.030 A 
ATOM      5  C   UNL     1      -1.444   2.751  -1.453  0.00  0.00    +0.107 A 
ATOM      6  C   UNL     1      -1.982   2.240  -2.613  0.00  0.00    +0.058 A 
ATOM      7  C   UNL     1      -2.029   3.032  -3.763  0.00  0.00    +0.092 A 
ATOM      8  N   UNL     1      -2.485   2.819  -5.025  0.00  0.00    -0.222 NA
ATOM      9  C   UNL     1      -2.299   3.896  -5.748  0.00  0.00    +0.170 A 
ENDROOT
BRANCH   5  10
ATOM     10  S   UNL     1      -1.385   1.752  -0.003  0.00  0.00    +0.056 S 
ATOM     11  O   UNL     1      -2.404   0.771  -0.143  0.00  0.00    -0.153 OA
ATOM     12  O   UNL     1      -1.332   2.643   1.103  0.00  0.00    -0.153 OA
BRANCH  10  13
ATOM     13  N   UNL     1       0.059   0.941  -0.026  0.00  0.00    -0.204 NA
ATOM     14  H   UNL     1       0.135   0.302   0.867  0.00  0.00    +0.144 HD
ATOM     15  H   UNL     1       0.886   1.665  -0.031  0.00  0.00    +0.144 HD
ENDBRANCH  10  13
ENDBRANCH   5  10
BRANCH   1  17
ATOM     16  C   UNL     1      -2.513   7.167  -5.203  0.00  0.00    +0.027 C 
ATOM     17  C   UNL     1      -1.340   6.213  -5.436  0.00  0.00    +0.121 C 
ENDBRANCH   1  17
BRANCH   9  18
ATOM     18  S   UNL     1      -2.742   4.065  -7.445  0.00  0.00    -0.078 S 
BRANCH  18  19
ATOM     19  C   UNL     1      -3.446   2.425  -7.751  0.00  0.00    +0.173 C 
BRANCH  19  20
ATOM     20  C   UNL     1      -3.906   2.336  -9.183  0.00  0.00    +0.228 C 
ATOM     21  O   UNL     1      -3.772   3.287  -9.924  0.00  0.00    -0.275 OA
ATOM     22  N   UNL     1      -4.468   1.199  -9.641  0.00  0.00    -0.284 N 
ATOM     23  H   UNL     1      -4.522   0.312  -8.992  0.00  0.00    +0.155 HD
BRANCH  22  24
ATOM     24  C   UNL     1      -4.981   1.146 -10.942  0.00  0.00    +0.047 A 
ATOM     25  C   UNL     1      -4.361   1.853 -11.963  0.00  0.00    +0.024 A 
ATOM     26  C   UNL     1      -4.868   1.796 -13.247  0.00  0.00    +0.002 A 
ATOM     27  C   UNL     1      -5.997   1.043 -13.514  0.00  0.00    +0.001 A 
ATOM     28  C   UNL     1      -6.619   0.342 -12.498  0.00  0.00    +0.017 A 
ATOM     29  C   UNL     1      -6.115   0.391 -11.213  0.00  0.00    +0.039 A 
ATOM     30 BR   UNL     1      -6.968  -0.568  -9.824  0.00  0.00    -0.048 Br
ENDBRANCH  22  24
ENDBRANCH  19  20
ENDBRANCH  18  19
ENDBRANCH   9  18
TORSDOF 7
