REMARK  Name = ZINC59435197
REMARK  10 active torsions:
REMARK  status: ('A' for Active; 'I' for Inactive)
REMARK    1  A    between atoms: C_1  and  C_2
REMARK    2  A    between atoms: C_2  and  C_3
REMARK    3  A    between atoms: C_2  and  C_4
REMARK    4  A    between atoms: C_2  and  N_5
REMARK    5  A    between atoms: N_5  and  C_6
REMARK    6  A    between atoms: C_6  and  C_7
REMARK    7  A    between atoms: C_13  and  S_15
REMARK    8  A    between atoms: S_15  and  C_16
REMARK    9  A    between atoms: C_16  and  C_17
REMARK   10  A    between atoms: N_19  and  C_20
REMARK                            x       y       z     vdW  Elec       q    Type
REMARK                         _______ _______ _______ _____ _____    ______ ____
ROOT
ATOM      1  C   UNL     1       2.786  -0.492  -2.436  0.00  0.00    +0.202 C 
ATOM      2  O   UNL     1       2.199  -1.195  -3.231  0.00  0.00    -0.278 OA
ATOM      3  N   UNL     1       4.066  -0.139  -2.664  0.00  0.00    -0.265 N 
ATOM      4  C   UNL     1       4.716  -0.583  -3.813  0.00  0.00    +0.188 A 
ATOM      5  N   UNL     1       4.272  -1.341  -4.802  0.00  0.00    -0.125 NA
ATOM      6  N   UNL     1       5.001  -1.655  -5.783  0.00  0.00    -0.133 NA
ATOM      7  C   UNL     1       6.256  -1.243  -5.883  0.00  0.00    +0.160 A 
ATOM      8  S   UNL     1       6.389  -0.283  -4.378  0.00  0.00    -0.024 S 
ATOM      9  H   UNL     1       4.535   0.423  -2.028  0.00  0.00    +0.157 HD
ENDROOT
BRANCH   1  10
ATOM     10  C   UNL     1       2.082  -0.012  -1.192  0.00  0.00    +0.016 C 
BRANCH  10  11
ATOM     11  N   UNL     1       0.707  -0.528  -1.177  0.00  0.00    +0.388 N 
ATOM     12  H   UNL     1       0.727  -1.537  -1.184  0.00  0.00    -0.084 HD
ATOM     13  H   UNL     1       0.214  -0.196  -1.992  0.00  0.00    -0.084 HD
BRANCH  11  15
ATOM     14  C   UNL     1      -0.008   1.469   0.045  0.00  0.00    -0.011 C 
ATOM     15  C   UNL     1       0.022  -0.060   0.035  0.00  0.00    -0.076 C 
ATOM     16  C   UNL     1       0.770  -0.564   1.271  0.00  0.00    -0.011 C 
ATOM     17  C   UNL     1      -1.410  -0.599   0.051  0.00  0.00    -0.011 C 
ENDBRANCH  11  15
ENDBRANCH  10  11
ENDBRANCH   1  10
BRANCH   7  18
ATOM     18  S   UNL     1       7.451  -1.548  -7.142  0.00  0.00    -0.088 S 
BRANCH  18  19
ATOM     19  C   UNL     1       6.573  -2.593  -8.337  0.00  0.00    +0.172 C 
BRANCH  19  20
ATOM     20  C   UNL     1       7.495  -2.932  -9.480  0.00  0.00    +0.227 C 
ATOM     21  O   UNL     1       8.632  -2.510  -9.488  0.00  0.00    -0.275 OA
ATOM     22  N   UNL     1       7.056  -3.704 -10.494  0.00  0.00    -0.285 N 
ATOM     23  H   UNL     1       6.170  -4.096 -10.455  0.00  0.00    +0.155 HD
BRANCH  22  24
ATOM     24  C   UNL     1       7.878  -3.939 -11.601  0.00  0.00    +0.033 A 
ATOM     25  C   UNL     1       7.322  -4.047 -12.870  0.00  0.00    +0.025 A 
ATOM     26  C   UNL     1       8.136  -4.279 -13.961  0.00  0.00    +0.022 A 
ATOM     27  C   UNL     1       9.504  -4.403 -13.792  0.00  0.00    +0.041 A 
ATOM     28  C   UNL     1      10.060  -4.296 -12.529  0.00  0.00    +0.022 A 
ATOM     29  C   UNL     1       9.251  -4.059 -11.435  0.00  0.00    +0.025 A 
ATOM     30 CL   UNL     1      10.524  -4.696 -15.166  0.00  0.00    -0.084 Cl
ENDBRANCH  22  24
ENDBRANCH  19  20
ENDBRANCH  18  19
ENDBRANCH   7  18
TORSDOF 7
