REMARK  Name = ZINC03307402
REMARK  7 active torsions:
REMARK  status: ('A' for Active; 'I' for Inactive)
REMARK    1  A    between atoms: C_1  and  C_2
REMARK    2  A    between atoms: N_4  and  C_5
REMARK    3  A    between atoms: C_8  and  N_11
REMARK    4  A    between atoms: C_12  and  C_14
REMARK    5  A    between atoms: C_17  and  N_20
REMARK    6  A    between atoms: N_20  and  S_21
REMARK    7  A    between atoms: S_21  and  C_24
REMARK                            x       y       z     vdW  Elec       q    Type
REMARK                         _______ _______ _______ _____ _____    ______ ____
ROOT
ATOM      1  C   UNL     1      -0.503   9.900   0.381  0.00  0.00    +0.037 A 
ATOM      2  C   UNL     1      -1.638  10.665   0.668  0.00  0.00    +0.015 A 
ATOM      3  C   UNL     1      -1.555  12.038   0.682  0.00  0.00    +0.025 A 
ATOM      4  C   UNL     1      -0.345  12.667   0.398  0.00  0.00    +0.048 A 
ATOM      5  C   UNL     1       0.785  11.909   0.106  0.00  0.00    +0.025 A 
ATOM      6  C   UNL     1       0.710  10.534   0.096  0.00  0.00    +0.015 A 
ENDROOT
BRANCH   1   8
ATOM      7  N   UNL     1      -1.758   7.818   0.645  0.00  0.00    -0.282 N 
ATOM      8  C   UNL     1      -0.587   8.428   0.371  0.00  0.00    +0.248 C 
ATOM      9  O   UNL     1       0.399   7.764   0.116  0.00  0.00    -0.270 OA
ATOM     10  H   UNL     1      -2.527   8.343   0.915  0.00  0.00    +0.155 HD
BRANCH   7  14
ATOM     11  C   UNL     1      -2.071   3.672   0.335  0.00  0.00    +0.033 A 
ATOM     12  C   UNL     1      -0.891   4.247   0.791  0.00  0.00    +0.025 A 
ATOM     13  C   UNL     1      -0.786   5.620   0.888  0.00  0.00    +0.025 A 
ATOM     14  C   UNL     1      -1.863   6.426   0.541  0.00  0.00    +0.034 A 
ATOM     15  C   UNL     1      -3.043   5.850   0.090  0.00  0.00    +0.025 A 
ATOM     16  C   UNL     1      -3.147   4.477  -0.013  0.00  0.00    +0.025 A 
BRANCH  11  20
ATOM     17  C   UNL     1      -1.177   0.039  -0.093  0.00  0.00    +0.109 C 
ATOM     18  C   UNL     1      -1.094   1.544  -0.094  0.00  0.00    +0.214 C 
ATOM     19  O   UNL     1      -0.054   2.093  -0.391  0.00  0.00    -0.276 OA
ATOM     20  N   UNL     1      -2.176   2.279   0.231  0.00  0.00    -0.286 N 
ATOM     21  H   UNL     1      -3.027   1.843   0.392  0.00  0.00    +0.155 HD
ENDBRANCH  11  20
ENDBRANCH   7  14
ENDBRANCH   1   8
BRANCH   4  22
ATOM     22  N   UNL     1      -0.266  14.055   0.407  0.00  0.00    -0.216 N 
ATOM     23  H   UNL     1      -0.271  14.536   1.250  0.00  0.00    +0.174 HD
BRANCH  22  24
ATOM     24  S   UNL     1      -0.164  14.888  -1.020  0.00  0.00    +0.079 S 
ATOM     25  O   UNL     1      -0.129  16.268  -0.684  0.00  0.00    -0.149 OA
ATOM     26  O   UNL     1       0.860  14.263  -1.783  0.00  0.00    -0.149 OA
BRANCH  24  27
ATOM     27  C   UNL     1      -1.673  14.620  -1.889  0.00  0.00    +0.147 A 
ATOM     28  C   UNL     1      -2.792  15.384  -1.912  0.00  0.00    +0.038 A 
ATOM     29  C   UNL     1      -3.870  14.973  -2.674  0.00  0.00    +0.025 A 
ATOM     30  C   UNL     1      -3.775  13.817  -3.377  0.00  0.00    +0.057 A 
ATOM     31  S   UNL     1      -2.122  13.275  -2.974  0.00  0.00    -0.061 S 
ATOM     32 BR   UNL     1      -5.057  12.996  -4.498  0.00  0.00    -0.043 Br
ENDBRANCH  24  27
ENDBRANCH  22  24
ENDBRANCH   4  22
TORSDOF 6
