REMARK  Name = ZINC00524167
REMARK  4 active torsions:
REMARK  status: ('A' for Active; 'I' for Inactive)
REMARK    1  A    between atoms: C_6  and  C_7
REMARK    2  A    between atoms: N_8  and  C_9
REMARK    3  A    between atoms: C_12  and  N_15
REMARK    4  A    between atoms: C_16  and  C_17
REMARK                            x       y       z     vdW  Elec       q    Type
REMARK                         _______ _______ _______ _____ _____    ______ ____
ROOT
ATOM      1  C   UNL     1      -1.748  -5.570  -0.259  0.00  0.00    +0.064 A 
ATOM      2  C   UNL     1      -2.305  -4.492   0.437  0.00  0.00    +0.030 A 
ATOM      3  C   UNL     1      -3.661  -4.361   0.523  0.00  0.00    +0.030 A 
ATOM      4  C   UNL     1      -4.495  -5.305  -0.086  0.00  0.00    +0.064 A 
ATOM      5  C   UNL     1      -3.939  -6.383  -0.782  0.00  0.00    +0.030 A 
ATOM      6  C   UNL     1      -2.582  -6.512  -0.872  0.00  0.00    +0.030 A 
ENDROOT
BRANCH   1   8
ATOM      7  C   UNL     1       0.348  -4.663  -0.621  0.00  0.00    +0.119 C 
ATOM      8  N   UNL     1      -0.391  -5.702  -0.344  0.00  0.00    -0.255 NA
BRANCH   7  14
ATOM      9  C   UNL     1       2.605  -3.693  -1.010  0.00  0.00    +0.012 A 
ATOM     10  C   UNL     1       3.974  -3.832  -1.094  0.00  0.00    +0.039 A 
ATOM     11  C   UNL     1       4.562  -5.070  -0.885  0.00  0.00    +0.123 A 
ATOM     12  C   UNL     1       3.779  -6.176  -0.591  0.00  0.00    +0.039 A 
ATOM     13  C   UNL     1       2.409  -6.051  -0.504  0.00  0.00    +0.012 A 
ATOM     14  C   UNL     1       1.810  -4.805  -0.713  0.00  0.00    -0.007 A 
ATOM     15  F   UNL     1       5.904  -5.200  -0.970  0.00  0.00    -0.205 F 
ENDBRANCH   7  14
ENDBRANCH   1   8
BRANCH   4  16
ATOM     16  N   UNL     1      -5.852  -5.174   0.000  0.00  0.00    -0.255 NA
ATOM     17  C   UNL     1      -6.574  -5.138  -1.085  0.00  0.00    +0.119 C 
BRANCH  17  18
ATOM     18  C   UNL     1      -5.957  -4.759  -2.366  0.00  0.00    -0.007 A 
ATOM     19  C   UNL     1      -6.664  -4.924  -3.562  0.00  0.00    +0.012 A 
ATOM     20  C   UNL     1      -6.081  -4.567  -4.758  0.00  0.00    +0.039 A 
ATOM     21  C   UNL     1      -4.796  -4.047  -4.779  0.00  0.00    +0.123 A 
ATOM     22  C   UNL     1      -4.089  -3.882  -3.597  0.00  0.00    +0.039 A 
ATOM     23  C   UNL     1      -4.664  -4.228  -2.393  0.00  0.00    +0.012 A 
ATOM     24  F   UNL     1      -4.229  -3.700  -5.955  0.00  0.00    -0.205 F 
ENDBRANCH  17  18
ENDBRANCH   4  16
TORSDOF 4
