REMARK  Name = ZINC64120725
REMARK  4 active torsions:
REMARK  status: ('A' for Active; 'I' for Inactive)
REMARK    1  A    between atoms: C_6  and  C_11
REMARK    2  A    between atoms: C_14  and  N_17
REMARK    3  A    between atoms: C_18  and  C_20
REMARK    4  A    between atoms: C_26  and  C_28
REMARK                            x       y       z     vdW  Elec       q    Type
REMARK                         _______ _______ _______ _____ _____    ______ ____
ROOT
ATOM      1  N   UNL     1       4.981  -4.674  -4.724  0.00  0.00    -0.285 N 
ATOM      2  C   UNL     1       5.521  -5.906  -4.639  0.00  0.00    +0.220 C 
ATOM      3  O   UNL     1       5.533  -6.491  -3.577  0.00  0.00    -0.275 OA
ATOM      4  H   UNL     1       4.902  -4.237  -5.587  0.00  0.00    +0.155 HD
ENDROOT
BRANCH   2   5
ATOM      5  C   UNL     1       6.111  -6.556  -5.864  0.00  0.00    +0.078 C 
ATOM      6  C   UNL     1       5.029  -6.699  -6.937  0.00  0.00    +0.032 C 
ATOM      7  C   UNL     1       5.641  -7.328  -8.193  0.00  0.00    +0.108 C 
ATOM      8  N   UNL     1       6.291  -8.592  -7.819  0.00  0.00    -0.299 N 
ATOM      9  C   UNL     1       7.283  -8.583  -6.736  0.00  0.00    +0.108 C 
ATOM     10  C   UNL     1       6.653  -7.939  -5.496  0.00  0.00    +0.032 C 
ATOM     11  C   UNL     1       5.983  -9.738  -8.459  0.00  0.00    +0.244 C 
ATOM     12  O   UNL     1       5.162  -9.732  -9.352  0.00  0.00    -0.273 OA
BRANCH  11  13
ATOM     13  C   UNL     1       6.658 -11.026  -8.064  0.00  0.00    +0.204 C 
ATOM     14  C   UNL     1       8.155 -10.934  -8.376  0.00  0.00    +0.041 C 
ATOM     15  C   UNL     1       8.823 -12.267  -8.028  0.00  0.00    +0.005 C 
ATOM     16  C   UNL     1       8.135 -13.390  -8.810  0.00  0.00    +0.028 C 
ATOM     17  C   UNL     1       6.640 -13.387  -8.482  0.00  0.00    +0.161 C 
ATOM     18  O   UNL     1       6.086 -12.109  -8.800  0.00  0.00    -0.367 OA
ENDBRANCH  11  13
ENDBRANCH   2   5
BRANCH   1  22
ATOM     19  C   UNL     1       3.649  -2.741  -1.283  0.00  0.00    -0.021 A 
ATOM     20  C   UNL     1       4.744  -3.583  -1.221  0.00  0.00    +0.008 A 
ATOM     21  C   UNL     1       5.188  -4.226  -2.360  0.00  0.00    +0.023 A 
ATOM     22  C   UNL     1       4.533  -4.025  -3.568  0.00  0.00    +0.033 A 
ATOM     23  C   UNL     1       3.434  -3.179  -3.627  0.00  0.00    +0.023 A 
ATOM     24  C   UNL     1       2.992  -2.543  -2.483  0.00  0.00    +0.008 A 
BRANCH  19  30
ATOM     25  C   UNL     1       5.865  -0.924   3.571  0.00  0.00    +0.001 A 
ATOM     26  C   UNL     1       5.350  -2.151   4.011  0.00  0.00    +0.002 A 
ATOM     27  C   UNL     1       4.487  -2.885   3.277  0.00  0.00    +0.026 A 
ATOM     28  C   UNL     1       4.060  -2.427   2.000  0.00  0.00    +0.043 A 
ATOM     29  N   UNL     1       3.245  -2.947   1.113  0.00  0.00    -0.374 N 
ATOM     30  C   UNL     1       3.167  -2.041  -0.038  0.00  0.00    +0.133 C 
ATOM     31  C   UNL     1       4.072  -0.875   0.290  0.00  0.00    +0.012 C 
ATOM     32  C   UNL     1       4.590  -1.134   1.512  0.00  0.00    -0.004 A 
ATOM     33  C   UNL     1       5.524  -0.398   2.372  0.00  0.00    +0.010 A 
ATOM     34  H   UNL     1       2.774  -3.790   1.204  0.00  0.00    +0.161 HD
ENDBRANCH  19  30
ENDBRANCH   1  22
TORSDOF 4
