REMARK  Name = ZINC50909786
REMARK  4 active torsions:
REMARK  status: ('A' for Active; 'I' for Inactive)
REMARK    1  A    between atoms: N_8  and  C_10
REMARK    2  A    between atoms: C_10  and  C_11
REMARK    3  A    between atoms: N_13  and  C_14
REMARK    4  A    between atoms: C_19  and  N_20
REMARK                            x       y       z     vdW  Elec       q    Type
REMARK                         _______ _______ _______ _____ _____    ______ ____
ROOT
ATOM      1  C   UNL     1       5.011  -3.524  -0.367  0.00  0.00    +0.201 C 
ATOM      2  O   UNL     1       5.404  -2.763  -1.225  0.00  0.00    -0.278 OA
ATOM      3  N   UNL     1       5.822  -4.496   0.095  0.00  0.00    -0.286 N 
ATOM      4  H   UNL     1       5.537  -5.054   0.836  0.00  0.00    +0.155 HD
ENDROOT
BRANCH   3   5
ATOM      5  C   UNL     1       7.077  -4.701  -0.495  0.00  0.00    +0.054 A 
ATOM      6  C   UNL     1       7.300  -4.314  -1.807  0.00  0.00    +0.028 A 
ATOM      7  C   UNL     1       8.538  -4.517  -2.388  0.00  0.00    +0.040 A 
ATOM      8  C   UNL     1       9.559  -5.107  -1.662  0.00  0.00    +0.125 A 
ATOM      9  C   UNL     1       9.345  -5.496  -0.351  0.00  0.00    +0.063 A 
ATOM     10  C   UNL     1       8.107  -5.290   0.239  0.00  0.00    +0.049 A 
ATOM     11  F   UNL     1      10.767  -5.303  -2.234  0.00  0.00    -0.205 F 
BRANCH  10  12
ATOM     12  N   UNL     1       7.889  -5.677   1.566  0.00  0.00    -0.356 N 
ATOM     13  H   UNL     1       7.022  -5.536   1.976  0.00  0.00    +0.142 HD
ATOM     14  H   UNL     1       8.606  -6.086   2.075  0.00  0.00    +0.142 HD
ENDBRANCH  10  12
ENDBRANCH   3   5
BRANCH   1  15
ATOM     15  C   UNL     1       3.614  -3.384   0.182  0.00  0.00    +0.020 C 
BRANCH  15  23
ATOM     16  C   UNL     1      -0.042   1.353  -0.010  0.00  0.00    +0.000 A 
ATOM     17  C   UNL     1       1.143   2.065  -0.008  0.00  0.00    +0.000 A 
ATOM     18  C   UNL     1       2.352   1.396  -0.017  0.00  0.00    +0.002 A 
ATOM     19  C   UNL     1       2.378   0.015  -0.029  0.00  0.00    -0.063 A 
ATOM     20  C   UNL     1       1.192  -0.699  -0.031  0.00  0.00    -0.063 A 
ATOM     21  C   UNL     1      -0.017  -0.029  -0.021  0.00  0.00    +0.002 A 
ATOM     22  C   UNL     1       1.526  -2.174  -0.045  0.00  0.00    -0.042 C 
ATOM     23  N   UNL     1       2.939  -2.259  -0.480  0.00  0.00    +0.391 N 
ATOM     24  C   UNL     1       3.524  -0.972  -0.042  0.00  0.00    -0.042 C 
ATOM     25  H   UNL     1       2.996  -2.351  -1.483  0.00  0.00    -0.080 HD
ENDBRANCH  15  23
ENDBRANCH   1  15
TORSDOF 4
