REMARK  Name = ZINC09391404
REMARK  9 active torsions:
REMARK  status: ('A' for Active; 'I' for Inactive)
REMARK    1  A    between atoms: C_1  and  C_2
REMARK    2  A    between atoms: C_4  and  C_34
REMARK    3  A    between atoms: N_10  and  C_11
REMARK    4  A    between atoms: C_11  and  C_13
REMARK    5  A    between atoms: C_16  and  S_19
REMARK    6  A    between atoms: S_19  and  N_22
REMARK    7  A    between atoms: C_24  and  C_31
REMARK    8  A    between atoms: C_27  and  C_30
REMARK    9  A    between atoms: N_32  and  C_33
REMARK                            x       y       z     vdW  Elec       q    Type
REMARK                         _______ _______ _______ _____ _____    ______ ____
ROOT
ATOM      1  C   UNL     1       0.146   4.453   0.717  0.00  0.00    +0.039 A 
ATOM      2  C   UNL     1       1.436   3.949   0.552  0.00  0.00    +0.015 A 
ATOM      3  C   UNL     1       1.701   2.628   0.850  0.00  0.00    +0.029 A 
ATOM      4  C   UNL     1       0.690   1.804   1.311  0.00  0.00    +0.106 A 
ATOM      5  C   UNL     1      -0.593   2.296   1.471  0.00  0.00    +0.029 A 
ATOM      6  C   UNL     1      -0.869   3.617   1.182  0.00  0.00    +0.015 A 
ENDROOT
BRANCH   4   7
ATOM      7  S   UNL     1       1.036   0.118   1.688  0.00  0.00    +0.061 S 
ATOM      8  O   UNL     1      -0.196  -0.583   1.582  0.00  0.00    -0.153 OA
ATOM      9  O   UNL     1       2.184  -0.241   0.931  0.00  0.00    -0.153 OA
BRANCH   7  10
ATOM     10  N   UNL     1       1.481   0.054   3.282  0.00  0.00    -0.172 NA
ATOM     11  C   UNL     1       2.891   0.192   3.680  0.00  0.00    +0.140 C 
ATOM     12  C   UNL     1       2.975   1.260   4.782  0.00  0.00    +0.131 C 
ATOM     13  O   UNL     1       2.050   0.934   5.823  0.00  0.00    -0.371 OA
ATOM     14  C   UNL     1       0.681   0.931   5.410  0.00  0.00    +0.131 C 
ATOM     15  C   UNL     1       0.479  -0.149   4.340  0.00  0.00    +0.140 C 
ATOM     16  C   UNL     1      -0.216   0.633   6.613  0.00  0.00    +0.039 C 
ATOM     17  C   UNL     1       2.625   2.631   4.199  0.00  0.00    +0.039 C 
ENDBRANCH   7  10
ENDBRANCH   4   7
BRANCH   1  18
ATOM     18  C   UNL     1      -0.145   5.870   0.399  0.00  0.00    +0.269 C 
ATOM     19  O   UNL     1       0.744   6.598  -0.008  0.00  0.00    -0.268 OA
BRANCH  18  29
ATOM     20  C   UNL     1      -2.911  12.178   5.370  0.00  0.00    +0.044 C 
ATOM     21  C   UNL     1      -2.304  11.049   4.577  0.00  0.00    -0.049 A 
ATOM     22  C   UNL     1      -0.994  10.661   4.801  0.00  0.00    +0.008 A 
ATOM     23  C   UNL     1      -0.423   9.633   4.088  0.00  0.00    -0.026 A 
ATOM     24  C   UNL     1      -1.156   8.946   3.108  0.00  0.00    +0.060 A 
ATOM     25  C   UNL     1      -2.480   9.361   2.903  0.00  0.00    +0.039 A 
ATOM     26  C   UNL     1      -3.050  10.389   3.617  0.00  0.00    +0.020 A 
ATOM     27  S   UNL     1      -3.054   8.276   1.621  0.00  0.00    -0.052 S 
ATOM     28  C   UNL     1      -1.602   7.352   1.403  0.00  0.00    +0.166 A 
ATOM     29  N   UNL     1      -1.382   6.350   0.558  0.00  0.00    -0.152 NA
ATOM     30  N   UNL     1      -0.745   7.895   2.309  0.00  0.00    -0.324 N 
ATOM     31  C   UNL     1       0.616   7.369   2.436  0.00  0.00    +0.151 C 
ATOM     32  C   UNL     1       1.006   9.241   4.361  0.00  0.00    +0.046 C 
ENDBRANCH  18  29
ENDBRANCH   1  18
TORSDOF 4
