REMARK  Name = ZINC16038078
REMARK  3 active torsions:
REMARK  status: ('A' for Active; 'I' for Inactive)
REMARK    1  A    between atoms: C_6  and  N_11
REMARK    2  A    between atoms: C_27  and  C_33
REMARK    3  A    between atoms: N_35  and  C_36
REMARK                            x       y       z     vdW  Elec       q    Type
REMARK                         _______ _______ _______ _____ _____    ______ ____
ROOT
ATOM      1  N   UNL     1      -5.399   2.987  -2.029  0.00  0.00    -0.210 N 
ATOM      2  C   UNL     1      -4.360   2.409  -1.341  0.00  0.00    +0.232 C 
ATOM      3  O   UNL     1      -4.170   1.229  -1.137  0.00  0.00    -0.274 OA
ATOM      4  C   UNL     1      -3.543   3.526  -0.913  0.00  0.00    +0.113 C 
ATOM      5  C   UNL     1      -2.513   3.900   0.040  0.00  0.00    +0.100 C 
ATOM      6  C   UNL     1      -1.248   3.122   0.026  0.00  0.00    -0.021 A 
ATOM      7  C   UNL     1      -1.217   1.748   0.006  0.00  0.00    +0.006 A 
ATOM      8  C   UNL     1      -0.005   1.078  -0.001  0.00  0.00    +0.000 A 
ATOM      9  C   UNL     1       1.184   1.786   0.000  0.00  0.00    +0.001 A 
ATOM     10  C   UNL     1       1.171   3.166   0.015  0.00  0.00    +0.008 A 
ATOM     11  C   UNL     1      -0.044   3.848   0.029  0.00  0.00    -0.019 A 
ATOM     12  C   UNL     1      -0.090   5.320   0.059  0.00  0.00    +0.022 C 
ATOM     13  C   UNL     1      -1.233   6.002  -0.017  0.00  0.00    +0.054 C 
ATOM     14  N   UNL     1      -2.451   5.381  -0.128  0.00  0.00    -0.383 NA
ATOM     15  C   UNL     1      -3.825   5.838  -0.435  0.00  0.00    +0.156 C 
ATOM     16  C   UNL     1      -4.683   4.579  -0.570  0.00  0.00    +0.118 C 
ATOM     17  C   UNL     1      -5.460   4.344  -1.843  0.00  0.00    +0.232 C 
ATOM     18  O   UNL     1      -6.012   5.168  -2.540  0.00  0.00    -0.274 OA
ATOM     19  H   UNL     1      -1.932   6.349  -0.065  0.00  0.00    +0.127 HD
ENDROOT
BRANCH   1  25
ATOM     20  C   UNL     1      -9.952   0.756  -5.865  0.00  0.00    +0.001 A 
ATOM     21  C   UNL     1     -10.098   2.136  -5.739  0.00  0.00    +0.001 A 
ATOM     22  C   UNL     1      -9.244   2.863  -4.967  0.00  0.00    +0.008 A 
ATOM     23  C   UNL     1      -8.199   2.215  -4.286  0.00  0.00    -0.016 A 
ATOM     24  C   UNL     1      -7.303   2.932  -3.476  0.00  0.00    +0.032 A 
ATOM     25  C   UNL     1      -6.296   2.270  -2.833  0.00  0.00    +0.044 A 
ATOM     26  C   UNL     1      -6.152   0.884  -2.961  0.00  0.00    +0.024 A 
ATOM     27  C   UNL     1      -7.006   0.161  -3.734  0.00  0.00    +0.010 A 
ATOM     28  C   UNL     1      -8.051   0.811  -4.414  0.00  0.00    -0.018 A 
ATOM     29  C   UNL     1      -8.952   0.095  -5.220  0.00  0.00    +0.008 A 
ENDBRANCH   1  25
BRANCH  15  30
ATOM     30  C   UNL     1      -3.836   6.612  -1.728  0.00  0.00    +0.237 C 
ATOM     31  O   UNL     1      -2.903   6.520  -2.497  0.00  0.00    -0.273 OA
ATOM     32  N   UNL     1      -4.882   7.406  -2.029  0.00  0.00    -0.284 N 
ATOM     33  H   UNL     1      -5.762   7.431  -1.369  0.00  0.00    +0.155 HD
BRANCH  32  34
ATOM     34  C   UNL     1      -4.850   8.199  -3.183  0.00  0.00    +0.034 A 
ATOM     35  C   UNL     1      -5.447   9.452  -3.182  0.00  0.00    +0.025 A 
ATOM     36  C   UNL     1      -5.410  10.234  -4.320  0.00  0.00    +0.022 A 
ATOM     37  C   UNL     1      -4.786   9.766  -5.463  0.00  0.00    +0.041 A 
ATOM     38  C   UNL     1      -4.194   8.515  -5.468  0.00  0.00    +0.022 A 
ATOM     39  C   UNL     1      -4.225   7.731  -4.331  0.00  0.00    +0.025 A 
ATOM     40 CL   UNL     1      -4.746  10.749  -6.893  0.00  0.00    -0.084 Cl
ENDBRANCH  32  34
ENDBRANCH  15  30
TORSDOF 3
