REMARK  Name = ZINC49118184
REMARK  4 active torsions:
REMARK  status: ('A' for Active; 'I' for Inactive)
REMARK    1  A    between atoms: C_6  and  N_7
REMARK    2  A    between atoms: N_7  and  S_8
REMARK    3  A    between atoms: S_8  and  C_11
REMARK    4  A    between atoms: C_16  and  N_17
REMARK                            x       y       z     vdW  Elec       q    Type
REMARK                         _______ _______ _______ _____ _____    ______ ____
ROOT
ATOM      1  S   UNL     1      -1.461  -1.946  -1.105  0.00  0.00    +0.074 S 
ATOM      2  O   UNL     1      -2.783  -2.462  -1.034  0.00  0.00    -0.150 OA
ATOM      3  O   UNL     1      -0.933  -1.366  -2.290  0.00  0.00    -0.150 OA
ENDROOT
BRANCH   1   4
ATOM      4  C   UNL     1      -0.380  -3.266  -0.665  0.00  0.00    +0.130 A 
ATOM      5  C   UNL     1       0.701  -3.571  -1.469  0.00  0.00    +0.046 A 
ATOM      6  C   UNL     1       1.550  -4.607  -1.124  0.00  0.00    +0.020 A 
ATOM      7  C   UNL     1       1.319  -5.341   0.026  0.00  0.00    +0.017 A 
ATOM      8  C   UNL     1       0.240  -5.041   0.833  0.00  0.00    +0.026 A 
ATOM      9  C   UNL     1      -0.611  -3.997   0.493  0.00  0.00    +0.052 A 
ATOM     10 BR   UNL     1       3.028  -5.023  -2.228  0.00  0.00    -0.050 Br
BRANCH   9  11
ATOM     11  N   UNL     1      -1.701  -3.687   1.311  0.00  0.00    -0.356 N 
ATOM     12  H   UNL     1      -2.249  -2.911   1.114  0.00  0.00    +0.142 HD
ATOM     13  H   UNL     1      -1.908  -4.246   2.075  0.00  0.00    +0.142 HD
ENDBRANCH   9  11
ENDBRANCH   1   4
BRANCH   1  14
ATOM     14  N   UNL     1      -1.338  -0.796   0.080  0.00  0.00    -0.216 N 
ATOM     15  H   UNL     1      -2.094  -0.613   0.659  0.00  0.00    +0.174 HD
BRANCH  14  21
ATOM     16  C   UNL     1      -0.169   1.292   0.400  0.00  0.00    +0.026 A 
ATOM     17  C   UNL     1       1.012   1.990   0.563  0.00  0.00    +0.025 A 
ATOM     18  C   UNL     1       2.220   1.316   0.574  0.00  0.00    +0.076 A 
ATOM     19  C   UNL     1       2.249  -0.061   0.420  0.00  0.00    +0.143 A 
ATOM     20  C   UNL     1       1.069  -0.764   0.256  0.00  0.00    +0.064 A 
ATOM     21  C   UNL     1      -0.144  -0.088   0.245  0.00  0.00    +0.051 A 
ATOM     22  F   UNL     1       3.430  -0.717   0.430  0.00  0.00    -0.204 F 
ATOM     23 CL   UNL     1       3.702   2.197   0.779  0.00  0.00    -0.081 Cl
ENDBRANCH  14  21
ENDBRANCH   1  14
TORSDOF 4
