REMARK  Name = ZINC03359546
REMARK  6 active torsions:
REMARK  status: ('A' for Active; 'I' for Inactive)
REMARK    1  A    between atoms: C_1  and  C_2
REMARK    2  A    between atoms: C_2  and  C_4
REMARK    3  A    between atoms: C_2  and  S_24
REMARK    4  A    between atoms: C_7  and  C_19
REMARK    5  A    between atoms: C_10  and  C_12
REMARK    6  A    between atoms: S_24  and  C_25
REMARK                            x       y       z     vdW  Elec       q    Type
REMARK                         _______ _______ _______ _____ _____    ______ ____
ROOT
ATOM      1  C   UNL     1      -1.412  -0.526   0.013  0.00  0.00    +0.246 C 
ATOM      2  O   UNL     1      -1.939  -0.827   1.062  0.00  0.00    -0.273 OA
ATOM      3  N   UNL     1      -2.090  -0.657  -1.144  0.00  0.00    -0.207 N 
ATOM      4  C   UNL     1      -3.470  -1.142  -1.311  0.00  0.00    +0.187 C 
ATOM      5  C   UNL     1      -3.721  -1.084  -2.802  0.00  0.00    +0.030 C 
ATOM      6  C   UNL     1      -2.611  -0.624  -3.374  0.00  0.00    +0.050 C 
ATOM      7  N   UNL     1      -1.627  -0.355  -2.432  0.00  0.00    -0.261 N 
ATOM      8  H   UNL     1      -0.745  -0.008  -2.636  0.00  0.00    +0.170 HD
ENDROOT
BRANCH   6   9
ATOM      9  C   UNL     1      -2.448  -0.419  -4.832  0.00  0.00    -0.003 A 
ATOM     10  C   UNL     1      -3.500  -0.709  -5.701  0.00  0.00    +0.011 A 
ATOM     11  C   UNL     1      -3.342  -0.516  -7.058  0.00  0.00    +0.020 A 
ATOM     12  C   UNL     1      -2.143  -0.036  -7.557  0.00  0.00    +0.041 A 
ATOM     13  C   UNL     1      -1.096   0.253  -6.699  0.00  0.00    +0.020 A 
ATOM     14  C   UNL     1      -1.244   0.069  -5.339  0.00  0.00    +0.011 A 
ATOM     15 CL   UNL     1      -1.952   0.204  -9.266  0.00  0.00    -0.084 Cl
ENDBRANCH   6   9
BRANCH   4  16
ATOM     16  C   UNL     1      -4.434  -0.244  -0.579  0.00  0.00    +0.131 A 
ATOM     17  C   UNL     1      -5.502  -0.649   0.131  0.00  0.00    +0.047 A 
ATOM     18  C   UNL     1      -6.120   0.515   0.642  0.00  0.00    +0.041 A 
ATOM     19  C   UNL     1      -5.392   1.562   0.214  0.00  0.00    +0.195 A 
ATOM     20  O   UNL     1      -4.369   1.096  -0.520  0.00  0.00    -0.466 OA
ENDBRANCH   4  16
BRANCH   1  22
ATOM     21  C   UNL     1      -0.019   1.526   0.010  0.00  0.00    +0.029 C 
ATOM     22  C   UNL     1       0.002  -0.004   0.002  0.00  0.00    +0.138 C 
BRANCH  22  23
ATOM     23  S   UNL     1       0.879  -0.605   1.472  0.00  0.00    -0.084 S 
BRANCH  23  24
ATOM     24  C   UNL     1       2.533  -0.042   1.241  0.00  0.00    +0.161 A 
ATOM     25  N   UNL     1       3.046   0.660   0.249  0.00  0.00    -0.133 NA
ATOM     26  N   UNL     1       4.380   0.997   0.267  0.00  0.00    -0.125 NA
ATOM     27  C   UNL     1       5.139   0.617   1.277  0.00  0.00    +0.180 A 
ATOM     28  S   UNL     1       3.961  -0.262   2.291  0.00  0.00    -0.025 S 
ATOM     29  N   UNL     1       6.493   0.845   1.495  0.00  0.00    -0.336 N 
ATOM     30  H   UNL     1       7.010   1.350   0.849  0.00  0.00    +0.144 HD
ATOM     31  H   UNL     1       6.920   0.499   2.294  0.00  0.00    +0.144 HD
ENDBRANCH  23  24
ENDBRANCH  22  23
ENDBRANCH   1  22
TORSDOF 5
