REMARK  Name = ZINC66997380
REMARK  3 active torsions:
REMARK  status: ('A' for Active; 'I' for Inactive)
REMARK    1  A    between atoms: C_1  and  C_2
REMARK    2  A    between atoms: C_12  and  C_14
REMARK    3  A    between atoms: N_16  and  C_17
REMARK                            x       y       z     vdW  Elec       q    Type
REMARK                         _______ _______ _______ _____ _____    ______ ____
ROOT
ATOM      1  C   UNL     1      -1.461   1.504   0.951  0.00  0.00    +0.045 C 
ATOM      2  C   UNL     1      -1.296   0.025   0.719  0.00  0.00    -0.029 A 
ATOM      3  C   UNL     1      -2.084  -0.620  -0.214  0.00  0.00    +0.008 A 
ATOM      4  C   UNL     1      -1.932  -1.977  -0.426  0.00  0.00    +0.039 A 
ATOM      5  C   UNL     1      -0.992  -2.692   0.296  0.00  0.00    +0.128 A 
ATOM      6  C   UNL     1      -0.198  -2.052   1.235  0.00  0.00    +0.009 A 
ATOM      7  C   UNL     1      -0.346  -0.689   1.441  0.00  0.00    +0.045 A 
ATOM      8  N   UNL     1       0.452  -0.014   2.372  0.00  0.00    -0.263 N 
ATOM      9  C   UNL     1       1.236  -0.797   3.336  0.00  0.00    +0.114 C 
ATOM     10  C   UNL     1       1.906  -1.947   2.572  0.00  0.00    +0.024 C 
ATOM     11  C   UNL     1       0.812  -2.860   2.008  0.00  0.00    +0.041 C 
ATOM     12  C   UNL     1       0.500   1.333   2.383  0.00  0.00    +0.306 C 
ATOM     13  O   UNL     1       0.356   1.954   1.351  0.00  0.00    -0.265 OA
ATOM     14  F   UNL     1      -0.849  -4.019   0.085  0.00  0.00    -0.205 F 
ENDROOT
BRANCH  12  15
ATOM     15  C   UNL     1       0.730   2.062   3.667  0.00  0.00    +0.300 C 
ATOM     16  O   UNL     1       0.775   1.448   4.713  0.00  0.00    -0.265 OA
ATOM     17  N   UNL     1       0.887   3.400   3.663  0.00  0.00    -0.305 N 
ATOM     18  H   UNL     1       0.851   3.890   2.827  0.00  0.00    +0.149 HD
BRANCH  17  19
ATOM     19  C   UNL     1       1.113   4.114   4.922  0.00  0.00    +0.074 C 
ATOM     20  C   UNL     1      -0.233   4.420   5.583  0.00  0.00    +0.027 C 
ATOM     21  C   UNL     1       0.003   5.163   6.900  0.00  0.00    +0.067 C 
ATOM     22  C   UNL     1       0.748   6.469   6.621  0.00  0.00    +0.170 C 
ATOM     23  C   UNL     1       2.092   6.168   5.956  0.00  0.00    +0.067 C 
ATOM     24  C   UNL     1       1.853   5.423   4.640  0.00  0.00    +0.027 C 
ATOM     25  O   UNL     1      -0.043   7.293   5.748  0.00  0.00    -0.346 OA
ATOM     26  C   UNL     1      -0.762   8.185   6.633  0.00  0.00    +0.191 C 
ATOM     27  C   UNL     1       0.287   8.441   7.743  0.00  0.00    +0.191 C 
ATOM     28  O   UNL     1       0.965   7.173   7.850  0.00  0.00    -0.346 OA
ENDBRANCH  17  19
ENDBRANCH  12  15
TORSDOF 2
