REMARK  Name = ZINC61365036
REMARK  1 active torsions:
REMARK  status: ('A' for Active; 'I' for Inactive)
REMARK    1  A    between atoms: N_10  and  C_11
REMARK                            x       y       z     vdW  Elec       q    Type
REMARK                         _______ _______ _______ _____ _____    ______ ____
ROOT
ATOM      1  C   UNL     1       6.243  -0.828   0.703  0.00  0.00    +0.022 A 
ATOM      2  C   UNL     1       5.793   0.463   0.512  0.00  0.00    +0.029 A 
ATOM      3  C   UNL     1       4.459   0.692   0.216  0.00  0.00    +0.071 A 
ATOM      4  C   UNL     1       3.567  -0.388   0.111  0.00  0.00    +0.092 A 
ATOM      5  C   UNL     1       4.037  -1.689   0.306  0.00  0.00    +0.050 A 
ATOM      6  C   UNL     1       5.367  -1.899   0.600  0.00  0.00    +0.043 A 
ATOM      7 CL   UNL     1       5.951  -3.516   0.843  0.00  0.00    -0.083 Cl
ATOM      8  N   UNL     1       2.345   0.129  -0.183  0.00  0.00    -0.215 NA
ATOM      9  C   UNL     1       2.427   1.433  -0.263  0.00  0.00    +0.195 A 
ATOM     10  N   UNL     1       3.711   1.833  -0.025  0.00  0.00    -0.305 N 
ATOM     11  N   UNL     1       1.374   2.277  -0.546  0.00  0.00    -0.329 N 
ATOM     12  H   UNL     1       0.507   1.910  -0.779  0.00  0.00    +0.145 HD
ATOM     13  H   UNL     1       1.500   3.238  -0.513  0.00  0.00    +0.145 HD
ENDROOT
BRANCH  10  14
ATOM     14  C   UNL     1       4.205   3.213  -0.025  0.00  0.00    +0.121 C 
ATOM     15  C   UNL     1       4.941   3.494  -1.335  0.00  0.00    +0.030 C 
ATOM     16  C   UNL     1       6.222   2.658  -1.407  0.00  0.00    +0.007 C 
ATOM     17  C   UNL     1       7.228   3.209  -0.384  0.00  0.00    +0.043 C 
ATOM     18  C   UNL     1       6.518   3.398   0.917  0.00  0.00    -0.005 A 
ATOM     19  C   UNL     1       5.173   3.409   1.138  0.00  0.00    -0.014 A 
ATOM     20  C   UNL     1       4.754   3.603   2.454  0.00  0.00    +0.013 A 
ATOM     21  C   UNL     1       5.668   3.772   3.438  0.00  0.00    +0.046 A 
ATOM     22  S   UNL     1       7.211   3.660   2.528  0.00  0.00    -0.101 S 
ENDBRANCH  10  14
TORSDOF 1
