REMARK  Name = ZINC35372852
REMARK  9 active torsions:
REMARK  status: ('A' for Active; 'I' for Inactive)
REMARK    1  A    between atoms: C_1  and  C_2
REMARK    2  A    between atoms: C_2  and  N_3
REMARK    3  A    between atoms: C_10  and  C_27
REMARK    4  A    between atoms: C_11  and  S_13
REMARK    5  A    between atoms: S_13  and  C_14
REMARK    6  A    between atoms: C_14  and  C_15
REMARK    7  A    between atoms: N_17  and  C_18
REMARK    8  A    between atoms: C_23  and  O_24
REMARK    9  A    between atoms: O_24  and  C_25
REMARK                            x       y       z     vdW  Elec       q    Type
REMARK                         _______ _______ _______ _____ _____    ______ ____
ROOT
ATOM      1  N   UNL     1       0.647  -0.353  -1.184  0.00  0.00    +0.380 N 
ATOM      2  C   UNL     1      -0.118   0.044  -2.372  0.00  0.00    -0.075 C 
ATOM      3  C   UNL     1       0.630  -0.393  -3.634  0.00  0.00    +0.035 C 
ATOM      4  C   UNL     1       0.810  -1.911  -3.612  0.00  0.00    +0.150 C 
ATOM      5  C   UNL     1       1.532  -2.329  -2.331  0.00  0.00    +0.035 C 
ATOM      6  C   UNL     1       0.749  -1.815  -1.120  0.00  0.00    -0.075 C 
ATOM      7  N   UNL     1      -0.495  -2.574  -3.693  0.00  0.00    -0.251 NA
ATOM      8  C   UNL     1      -0.492  -3.299  -4.772  0.00  0.00    +0.100 C 
ATOM      9  C   UNL     1       0.811  -3.155  -5.462  0.00  0.00    +0.120 C 
ATOM     10  N   UNL     1       1.573  -2.345  -4.786  0.00  0.00    -0.246 NA
ATOM     11  H   UNL     1       1.573   0.046  -1.234  0.00  0.00    -0.082 HD
ENDROOT
BRANCH   8  12
ATOM     12  C   UNL     1      -1.619  -4.138  -5.240  0.00  0.00    +0.003 A 
ATOM     13  C   UNL     1      -1.377  -5.244  -6.056  0.00  0.00    +0.010 A 
ATOM     14  C   UNL     1      -2.430  -6.022  -6.489  0.00  0.00    +0.001 A 
ATOM     15  C   UNL     1      -3.725  -5.709  -6.114  0.00  0.00    +0.000 A 
ATOM     16  C   UNL     1      -3.972  -4.614  -5.305  0.00  0.00    +0.001 A 
ATOM     17  C   UNL     1      -2.926  -3.831  -4.861  0.00  0.00    +0.010 A 
ENDBRANCH   8  12
BRANCH   1  19
ATOM     18  C   UNL     1      -0.028   1.672   0.017  0.00  0.00    -0.017 C 
ATOM     19  C   UNL     1      -0.031   0.142   0.022  0.00  0.00    -0.082 C 
ENDBRANCH   1  19
BRANCH   9  20
ATOM     20  S   UNL     1       1.261  -3.957  -6.965  0.00  0.00    -0.095 S 
BRANCH  20  21
ATOM     21  C   UNL     1       2.952  -3.381  -7.281  0.00  0.00    +0.172 C 
BRANCH  21  22
ATOM     22  C   UNL     1       3.463  -4.001  -8.556  0.00  0.00    +0.228 C 
ATOM     23  O   UNL     1       2.757  -4.756  -9.189  0.00  0.00    -0.275 OA
ATOM     24  N   UNL     1       4.706  -3.715  -8.992  0.00  0.00    -0.282 N 
ATOM     25  H   UNL     1       5.300  -3.178  -8.446  0.00  0.00    +0.155 HD
BRANCH  24  26
ATOM     26  C   UNL     1       5.139  -4.195 -10.236  0.00  0.00    +0.077 A 
ATOM     27  C   UNL     1       4.241  -4.317 -11.285  0.00  0.00    +0.047 A 
ATOM     28  C   UNL     1       4.671  -4.790 -12.512  0.00  0.00    +0.043 A 
ATOM     29  C   UNL     1       5.997  -5.143 -12.694  0.00  0.00    +0.024 A 
ATOM     30  C   UNL     1       6.897  -5.024 -11.652  0.00  0.00    +0.049 A 
ATOM     31  C   UNL     1       6.475  -4.545 -10.422  0.00  0.00    +0.141 A 
ATOM     32 CL   UNL     1       3.546  -4.943 -13.825  0.00  0.00    -0.083 Cl
BRANCH  31  33
ATOM     33  O   UNL     1       7.361  -4.422  -9.398  0.00  0.00    -0.493 OA
ATOM     34  C   UNL     1       8.713  -4.799  -9.662  0.00  0.00    +0.277 C 
ENDBRANCH  31  33
ENDBRANCH  24  26
ENDBRANCH  21  22
ENDBRANCH  20  21
ENDBRANCH   9  20
TORSDOF 7
