REMARK  Name = ZINC45698031
REMARK  4 active torsions:
REMARK  status: ('A' for Active; 'I' for Inactive)
REMARK    1  A    between atoms: C_1  and  C_2
REMARK    2  A    between atoms: C_10  and  C_12
REMARK    3  A    between atoms: C_12  and  N_13
REMARK    4  A    between atoms: C_23  and  C_26
REMARK                            x       y       z     vdW  Elec       q    Type
REMARK                         _______ _______ _______ _____ _____    ______ ____
ROOT
ATOM      1  N   UNL     1      -1.093  -4.117   4.726  0.00  0.00    +0.384 N 
ATOM      2  C   UNL     1      -1.107  -4.718   6.059  0.00  0.00    -0.077 C 
ATOM      3  C   UNL     1      -2.538  -4.978   6.474  0.00  0.00    +0.000 C 
ATOM      4  C   UNL     1      -2.927  -6.419   6.097  0.00  0.00    +0.104 C 
ATOM      5  N   UNL     1      -2.374  -6.791   4.779  0.00  0.00    -0.316 N 
ATOM      6  C   UNL     1      -2.373  -5.880   3.653  0.00  0.00    +0.088 C 
ATOM      7  C   UNL     1      -1.075  -5.040   3.657  0.00  0.00    -0.059 C 
ATOM      8  C   UNL     1      -1.833  -8.061   4.613  0.00  0.00    +0.140 A 
ATOM      9  C   UNL     1      -2.623  -9.086   4.099  0.00  0.00    +0.081 A 
ATOM     10  C   UNL     1      -2.072 -10.345   3.939  0.00  0.00    +0.037 A 
ATOM     11  C   UNL     1      -0.744 -10.537   4.299  0.00  0.00    +0.074 A 
ATOM     12  C   UNL     1      -0.019  -9.476   4.802  0.00  0.00    +0.125 A 
ATOM     13  N   UNL     1      -0.570  -8.284   4.940  0.00  0.00    -0.238 NA
ATOM     14 CL   UNL     1      -4.278  -8.789   3.666  0.00  0.00    -0.080 Cl
ATOM     15  H   UNL     1      -1.914  -3.538   4.632  0.00  0.00    -0.081 HD
ENDROOT
BRANCH  11  16
ATOM     16  C   UNL     1      -0.102 -11.892   4.143  0.00  0.00    +0.419 C 
ATOM     17  F   UNL     1       0.475 -11.990   2.872  0.00  0.00    -0.166 F 
ATOM     18  F   UNL     1       0.888 -12.054   5.118  0.00  0.00    -0.166 F 
ATOM     19  F   UNL     1      -1.072 -12.888   4.293  0.00  0.00    -0.166 F 
ENDBRANCH  11  16
BRANCH   1  20
ATOM     20  C   UNL     1       0.093  -3.258   4.618  0.00  0.00    -0.022 C 
BRANCH  20  30
ATOM     21  C   UNL     1       0.588   1.095   9.573  0.00  0.00    +0.064 C 
ATOM     22  C   UNL     1      -0.342   0.890   8.405  0.00  0.00    +0.033 A 
ATOM     23  C   UNL     1      -1.353   1.738   8.216  0.00  0.00    +0.070 A 
ATOM     24  S   UNL     1      -2.120   1.071   6.748  0.00  0.00    -0.057 S 
ATOM     25  C   UNL     1      -1.010  -0.300   6.508  0.00  0.00    +0.180 A 
ATOM     26  N   UNL     1      -0.130  -0.163   7.548  0.00  0.00    -0.259 N 
ATOM     27  C   UNL     1       0.868  -1.093   7.628  0.00  0.00    +0.259 A 
ATOM     28  O   UNL     1       1.686  -1.036   8.532  0.00  0.00    -0.267 OA
ATOM     29  C   UNL     1       0.950  -2.110   6.675  0.00  0.00    +0.092 A 
ATOM     30  C   UNL     1       0.022  -2.169   5.657  0.00  0.00    +0.033 A 
ATOM     31  N   UNL     1      -0.942  -1.254   5.613  0.00  0.00    -0.229 NA
ENDBRANCH  20  30
ENDBRANCH   1  20
TORSDOF 3
