REMARK  Name = ZINC11842539
REMARK  6 active torsions:
REMARK  status: ('A' for Active; 'I' for Inactive)
REMARK    1  A    between atoms: C_1  and  C_2
REMARK    2  A    between atoms: N_7  and  C_10
REMARK    3  A    between atoms: C_11  and  C_15
REMARK    4  A    between atoms: C_15  and  N_48
REMARK    5  A    between atoms: C_16  and  C_17
REMARK    6  A    between atoms: C_16  and  N_48
REMARK                            x       y       z     vdW  Elec       q    Type
REMARK                         _______ _______ _______ _____ _____    ______ ____
ROOT
ATOM      1  C   UNL     1      -0.590   3.764   0.259  0.00  0.00    +0.100 A 
ATOM      2  C   UNL     1       0.617   3.075   0.328  0.00  0.00    -0.026 A 
ATOM      3  C   UNL     1       0.612   1.748   0.718  0.00  0.00    +0.006 A 
ATOM      4  C   UNL     1      -0.604   1.153   1.027  0.00  0.00    +0.018 A 
ATOM      5  C   UNL     1      -1.764   1.894   0.930  0.00  0.00    +0.084 A 
ATOM      6  N   UNL     1      -1.796   3.201   0.556  0.00  0.00    -0.349 N 
ATOM      7  H   UNL     1      -2.674   3.731   0.501  0.00  0.00    +0.167 HD
ENDROOT
BRANCH   1  14
ATOM      8  C   UNL     1      -3.249   8.805  -2.087  0.00  0.00    +0.109 C 
ATOM      9  C   UNL     1      -2.432   8.670  -0.828  0.00  0.00    +0.213 C 
ATOM     10  O   UNL     1      -2.563   9.476   0.069  0.00  0.00    -0.276 OA
ATOM     11  N   UNL     1      -1.557   7.653  -0.698  0.00  0.00    -0.299 N 
ATOM     12  C   UNL     1      -1.297   6.734  -1.816  0.00  0.00    +0.126 C 
ATOM     13  C   UNL     1      -1.454   5.296  -1.310  0.00  0.00    +0.125 C 
ATOM     14  N   UNL     1      -0.600   5.098  -0.132  0.00  0.00    -0.314 N 
ATOM     15  C   UNL     1      -1.012   5.968   0.978  0.00  0.00    +0.125 C 
ATOM     16  C   UNL     1      -0.837   7.434   0.566  0.00  0.00    +0.126 C 
ENDBRANCH   1  14
BRANCH   2  17
ATOM     17  C   UNL     1       1.911   3.765  -0.017  0.00  0.00    -0.043 C 
BRANCH  17  18
ATOM     18  N   UNL     1       2.331   4.604   1.122  0.00  0.00    +0.385 N 
ATOM     19  H   UNL     1       2.471   4.009   1.947  0.00  0.00    -0.085 HD
ATOM     20  H   UNL     1       1.599   5.297   1.320  0.00  0.00    -0.085 HD
BRANCH  18  21
ATOM     21  C   UNL     1       3.591   5.303   0.806  0.00  0.00    -0.042 C 
BRANCH  21  22
ATOM     22  C   UNL     1       4.052   6.063   2.023  0.00  0.00    -0.011 A 
ATOM     23  C   UNL     1       4.801   5.424   2.997  0.00  0.00    +0.126 A 
ATOM     24  C   UNL     1       5.224   6.123   4.114  0.00  0.00    +0.038 A 
ATOM     25  C   UNL     1       4.898   7.459   4.258  0.00  0.00    +0.004 A 
ATOM     26  C   UNL     1       4.151   8.097   3.286  0.00  0.00    +0.020 A 
ATOM     27  C   UNL     1       3.732   7.401   2.166  0.00  0.00    +0.045 A 
ATOM     28 CL   UNL     1       2.799   8.205   0.943  0.00  0.00    -0.083 Cl
ATOM     29  F   UNL     1       5.118   4.118   2.856  0.00  0.00    -0.205 F 
ENDBRANCH  21  22
ENDBRANCH  18  21
ENDBRANCH  17  18
ENDBRANCH   2  17
TORSDOF 5
