REMARK  Name = ZINC35032373
REMARK  7 active torsions:
REMARK  status: ('A' for Active; 'I' for Inactive)
REMARK    1  A    between atoms: C_1  and  C_2
REMARK    2  A    between atoms: C_2  and  C_3
REMARK    3  A    between atoms: C_3  and  N_4
REMARK    4  A    between atoms: C_14  and  C_15
REMARK    5  A    between atoms: C_15  and  C_17
REMARK    6  A    between atoms: C_15  and  N_18
REMARK    7  A    between atoms: N_26  and  C_27
REMARK                            x       y       z     vdW  Elec       q    Type
REMARK                         _______ _______ _______ _____ _____    ______ ____
ROOT
ATOM      1  N   UNL     1      -3.176  -3.226  -2.299  0.00  0.00    +0.388 N 
ATOM      2  C   UNL     1      -4.601  -3.083  -2.620  0.00  0.00    -0.059 C 
ATOM      3  C   UNL     1      -5.192  -4.460  -2.942  0.00  0.00    +0.091 C 
ATOM      4  N   UNL     1      -4.388  -5.074  -4.010  0.00  0.00    -0.289 N 
ATOM      5  C   UNL     1      -2.927  -5.112  -3.843  0.00  0.00    +0.091 C 
ATOM      6  C   UNL     1      -2.443  -3.704  -3.478  0.00  0.00    -0.059 C 
ATOM      7  C   UNL     1      -4.974  -5.587  -5.110  0.00  0.00    +0.306 C 
ATOM      8  O   UNL     1      -6.171  -5.458  -5.278  0.00  0.00    -0.252 OA
ATOM      9  N   UNL     1      -4.232  -6.245  -6.023  0.00  0.00    -0.269 N 
ATOM     10  H   UNL     1      -3.295  -6.423  -5.850  0.00  0.00    +0.156 HD
ATOM     11  H   UNL     1      -3.068  -3.889  -1.546  0.00  0.00    -0.081 HD
ENDROOT
BRANCH   9  12
ATOM     12  C   UNL     1      -4.815  -6.671  -7.223  0.00  0.00    +0.035 A 
ATOM     13  C   UNL     1      -5.805  -5.905  -7.825  0.00  0.00    +0.024 A 
ATOM     14  C   UNL     1      -6.378  -6.328  -9.008  0.00  0.00    +0.017 A 
ATOM     15  C   UNL     1      -5.968  -7.513  -9.593  0.00  0.00    +0.018 A 
ATOM     16  C   UNL     1      -4.982  -8.277  -8.995  0.00  0.00    +0.017 A 
ATOM     17  C   UNL     1      -4.401  -7.857  -7.814  0.00  0.00    +0.024 A 
ATOM     18 BR   UNL     1      -6.755  -8.089 -11.213  0.00  0.00    -0.050 Br
ENDBRANCH   9  12
BRANCH   1  19
ATOM     19  C   UNL     1      -2.636  -1.925  -1.884  0.00  0.00    -0.004 C 
ATOM     20  C   UNL     1      -3.322  -1.476  -0.592  0.00  0.00    -0.005 C 
BRANCH  19  31
ATOM     21  N   UNL     1      -0.309  -1.397  -2.491  0.00  0.00    -0.297 N 
ATOM     22  C   UNL     1       1.031  -1.471  -2.318  0.00  0.00    +0.262 A 
ATOM     23  O   UNL     1       1.798  -0.888  -3.062  0.00  0.00    -0.267 OA
ATOM     24  C   UNL     1       1.525  -2.283  -1.196  0.00  0.00    +0.065 A 
ATOM     25  C   UNL     1       2.885  -2.424  -0.931  0.00  0.00    +0.015 A 
ATOM     26  C   UNL     1       3.293  -3.196   0.134  0.00  0.00    +0.001 A 
ATOM     27  C   UNL     1       2.360  -3.833   0.943  0.00  0.00    +0.002 A 
ATOM     28  C   UNL     1       1.012  -3.707   0.698  0.00  0.00    +0.028 A 
ATOM     29  C   UNL     1       0.574  -2.929  -0.376  0.00  0.00    +0.078 A 
ATOM     30  N   UNL     1      -0.746  -2.776  -0.653  0.00  0.00    -0.235 NA
ATOM     31  C   UNL     1      -1.152  -2.048  -1.648  0.00  0.00    +0.099 A 
BRANCH  21  32
ATOM     32  C   UNL     1      -0.856  -0.602  -3.593  0.00  0.00    +0.126 C 
BRANCH  32  34
ATOM     33  C   UNL     1      -1.656   1.668  -4.264  0.00  0.00    +0.005 C 
ATOM     34  C   UNL     1      -1.201   0.801  -3.088  0.00  0.00    +0.018 C 
ENDBRANCH  32  34
ENDBRANCH  21  32
ENDBRANCH  19  31
ENDBRANCH   1  19
TORSDOF 5
