REMARK  Name = ZINC59502129
REMARK  11 active torsions:
REMARK  status: ('A' for Active; 'I' for Inactive)
REMARK    1  A    between atoms: C_1  and  C_2
REMARK    2  A    between atoms: C_2  and  N_3
REMARK    3  A    between atoms: N_3  and  N_4
REMARK    4  A    between atoms: C_5  and  C_7
REMARK    5  A    between atoms: N_9  and  N_10
REMARK    6  A    between atoms: N_10  and  C_11
REMARK    7  A    between atoms: C_11  and  C_23
REMARK    8  A    between atoms: C_12  and  C_13
REMARK    9  A    between atoms: N_15  and  C_16
REMARK   10  A    between atoms: C_24  and  C_25
REMARK   11  A    between atoms: N_27  and  C_28
REMARK                            x       y       z     vdW  Elec       q    Type
REMARK                         _______ _______ _______ _____ _____    ______ ____
ROOT
ATOM      1  N   UNL     1      -0.783   1.876  -3.256  0.00  0.00    -0.229 N 
ATOM      2  C   UNL     1      -0.569   2.147  -4.559  0.00  0.00    +0.316 C 
ATOM      3  O   UNL     1       0.528   2.513  -4.929  0.00  0.00    -0.264 OA
ATOM      4  H   UNL     1      -1.659   1.584  -2.960  0.00  0.00    +0.173 HD
ENDROOT
BRANCH   2   5
ATOM      5  C   UNL     1      -1.680   1.999  -5.546  0.00  0.00    +0.316 C 
ATOM      6  O   UNL     1      -2.777   1.634  -5.175  0.00  0.00    -0.264 OA
ATOM      7  N   UNL     1      -1.466   2.271  -6.849  0.00  0.00    -0.229 N 
ATOM      8  H   UNL     1      -0.589   2.563  -7.145  0.00  0.00    +0.173 HD
BRANCH   7   9
ATOM      9  N   UNL     1      -2.508   2.132  -7.774  0.00  0.00    -0.268 N 
ATOM     10  H   UNL     1      -3.384   1.840  -7.478  0.00  0.00    +0.170 HD
BRANCH   9  11
ATOM     11  C   UNL     1      -2.290   2.407  -9.095  0.00  0.00    +0.024 C 
ATOM     12  C   UNL     1      -1.071   2.813  -9.508  0.00  0.00    +0.087 C 
ATOM     13  C   UNL     1      -3.411   2.257 -10.091  0.00  0.00    +0.062 C 
BRANCH  12  14
ATOM     14  C   UNL     1      -0.895   3.295 -10.825  0.00  0.00    +0.243 C 
ATOM     15  O   UNL     1      -1.859   3.437 -11.556  0.00  0.00    -0.270 OA
ATOM     16  N   UNL     1       0.340   3.598 -11.273  0.00  0.00    -0.281 N 
ATOM     17  H   UNL     1       1.115   3.412 -10.720  0.00  0.00    +0.155 HD
BRANCH  16  18
ATOM     18  C   UNL     1       0.504   4.180 -12.534  0.00  0.00    +0.052 A 
ATOM     19  C   UNL     1       1.652   3.925 -13.275  0.00  0.00    +0.062 A 
ATOM     20  C   UNL     1       1.810   4.501 -14.521  0.00  0.00    +0.022 A 
ATOM     21  C   UNL     1       0.827   5.331 -15.030  0.00  0.00    +0.002 A 
ATOM     22  C   UNL     1      -0.315   5.587 -14.295  0.00  0.00    +0.002 A 
ATOM     23  C   UNL     1      -0.482   5.010 -13.051  0.00  0.00    +0.025 A 
ATOM     24 CL   UNL     1       2.885   2.884 -12.636  0.00  0.00    -0.082 Cl
ENDBRANCH  16  18
ENDBRANCH  12  14
ENDBRANCH   9  11
ENDBRANCH   7   9
ENDBRANCH   2   5
BRANCH   1  25
ATOM     25  N   UNL     1       0.259   2.015  -2.330  0.00  0.00    -0.268 N 
ATOM     26  H   UNL     1       1.135   2.307  -2.627  0.00  0.00    +0.170 HD
BRANCH  25  28
ATOM     27  C   UNL     1       1.162   1.889  -0.013  0.00  0.00    +0.062 C 
ATOM     28  C   UNL     1       0.041   1.740  -1.009  0.00  0.00    +0.024 C 
ATOM     29  C   UNL     1      -1.178   1.333  -0.597  0.00  0.00    +0.087 C 
BRANCH  29  30
ATOM     30  C   UNL     1      -1.359   0.873   0.728  0.00  0.00    +0.243 C 
ATOM     31  O   UNL     1      -0.418   0.859   1.502  0.00  0.00    -0.270 OA
ATOM     32  N   UNL     1      -2.572   0.450   1.134  0.00  0.00    -0.281 N 
ATOM     33  H   UNL     1      -3.302   0.387   0.498  0.00  0.00    +0.155 HD
BRANCH  32  34
ATOM     34  C   UNL     1      -2.779   0.101   2.473  0.00  0.00    +0.052 A 
ATOM     35  C   UNL     1      -3.703  -0.885   2.801  0.00  0.00    +0.062 A 
ATOM     36  C   UNL     1      -3.904  -1.227   4.125  0.00  0.00    +0.022 A 
ATOM     37  C   UNL     1      -3.187  -0.590   5.122  0.00  0.00    +0.002 A 
ATOM     38  C   UNL     1      -2.268   0.391   4.798  0.00  0.00    +0.002 A 
ATOM     39  C   UNL     1      -2.058   0.734   3.476  0.00  0.00    +0.025 A 
ATOM     40 CL   UNL     1      -4.603  -1.684   1.550  0.00  0.00    -0.082 Cl
ENDBRANCH  32  34
ENDBRANCH  29  30
ENDBRANCH  25  28
ENDBRANCH   1  25
TORSDOF 9
