REMARK  Name = ZINC19295363
REMARK  5 active torsions:
REMARK  status: ('A' for Active; 'I' for Inactive)
REMARK    1  A    between atoms: C_1  and  C_2
REMARK    2  A    between atoms: C_6  and  C_16
REMARK    3  A    between atoms: N_8  and  C_9
REMARK    4  A    between atoms: N_18  and  C_19
REMARK    5  A    between atoms: C_22  and  C_25
REMARK                            x       y       z     vdW  Elec       q    Type
REMARK                         _______ _______ _______ _____ _____    ______ ____
ROOT
ATOM      1  C   UNL     1      -0.072   1.502   0.015  0.00  0.00    +0.066 C 
ATOM      2  C   UNL     1      -0.024  -0.005   0.004  0.00  0.00    +0.044 A 
ATOM      3  C   UNL     1       0.098  -0.678   1.173  0.00  0.00    +0.076 A 
ATOM      4  C   UNL     1       0.139  -2.096   1.119  0.00  0.00    +0.213 A 
ATOM      5  O   UNL     1       0.247  -2.768   2.133  0.00  0.00    -0.285 OA
ATOM      6  C   UNL     1       0.045  -2.721  -0.209  0.00  0.00    +0.192 A 
ATOM      7  N   UNL     1      -0.070  -1.946  -1.267  0.00  0.00    -0.158 NA
ATOM      8  N   UNL     1      -0.108  -0.668  -1.175  0.00  0.00    -0.236 N 
ENDROOT
BRANCH   8   9
ATOM      9  C   UNL     1      -0.239   0.079  -2.350  0.00  0.00    +0.066 A 
ATOM     10  C   UNL     1      -1.181  -0.283  -3.304  0.00  0.00    +0.029 A 
ATOM     11  C   UNL     1      -1.311   0.459  -4.461  0.00  0.00    +0.022 A 
ATOM     12  C   UNL     1      -0.496   1.557  -4.675  0.00  0.00    +0.041 A 
ATOM     13  C   UNL     1       0.448   1.917  -3.729  0.00  0.00    +0.022 A 
ATOM     14  C   UNL     1       0.578   1.181  -2.568  0.00  0.00    +0.029 A 
ATOM     15 CL   UNL     1      -0.657   2.484  -6.134  0.00  0.00    -0.084 Cl
ENDBRANCH   8   9
BRANCH   6  16
ATOM     16  C   UNL     1       0.080  -4.190  -0.353  0.00  0.00    +0.268 C 
ATOM     17  O   UNL     1       0.187  -4.895   0.632  0.00  0.00    -0.268 OA
ATOM     18  N   UNL     1      -0.006  -4.750  -1.576  0.00  0.00    -0.307 N 
ATOM     19  H   UNL     1      -0.103  -4.112  -2.467  0.00  0.00    +0.149 HD
BRANCH  18  20
ATOM     20  C   UNL     1       0.028  -6.208  -1.718  0.00  0.00    +0.073 C 
ATOM     21  C   UNL     1       1.482  -6.681  -1.765  0.00  0.00    +0.022 C 
ATOM     22  C   UNL     1       2.190  -6.036  -2.958  0.00  0.00    +0.005 C 
ATOM     23  C   UNL     1       1.481  -6.438  -4.252  0.00  0.00    -0.014 C 
ATOM     24  C   UNL     1       0.027  -5.965  -4.205  0.00  0.00    +0.005 C 
ATOM     25  C   UNL     1      -0.682  -6.611  -3.012  0.00  0.00    +0.022 C 
ATOM     26  C   UNL     1       2.189  -5.793  -5.444  0.00  0.00    +0.007 C 
ENDBRANCH  18  20
ENDBRANCH   6  16
TORSDOF 3
