REMARK  Name = ZINC26283396
REMARK  10 active torsions:
REMARK  status: ('A' for Active; 'I' for Inactive)
REMARK    1  A    between atoms: C_1  and  C_2
REMARK    2  A    between atoms: C_5  and  O_31
REMARK    3  A    between atoms: C_6  and  C_8
REMARK    4  A    between atoms: C_8  and  C_10
REMARK    5  A    between atoms: C_8  and  N_11
REMARK    6  A    between atoms: N_14  and  C_15
REMARK    7  A    between atoms: N_18  and  C_21
REMARK    8  A    between atoms: C_21  and  C_22
REMARK    9  A    between atoms: N_24  and  C_25
REMARK   10  A    between atoms: O_31  and  C_32
REMARK                            x       y       z     vdW  Elec       q    Type
REMARK                         _______ _______ _______ _____ _____    ______ ____
ROOT
ATOM      1  C   UNL     1      -1.203   7.024   2.448  0.00  0.00    +0.071 C 
ATOM      2  C   UNL     1      -0.997   6.830   3.953  0.00  0.00    +0.004 C 
ATOM      3  C   UNL     1      -1.104   8.185   4.657  0.00  0.00    -0.076 C 
ATOM      4  N   UNL     1      -2.425   8.770   4.397  0.00  0.00    +0.386 N 
ATOM      5  C   UNL     1      -2.628   9.009   2.963  0.00  0.00    -0.076 C 
ATOM      6  C   UNL     1      -2.567   7.679   2.208  0.00  0.00    +0.004 C 
ATOM      7  H   UNL     1      -3.183   8.044   4.726  0.00  0.00    -0.081 HD
ENDROOT
BRANCH   1  11
ATOM      8  N   UNL     1       0.063   3.997   0.790  0.00  0.00    -0.293 N 
ATOM      9  C   UNL     1       0.023   5.194   1.408  0.00  0.00    +0.300 C 
ATOM     10  O   UNL     1       1.055   5.796   1.633  0.00  0.00    -0.253 OA
ATOM     11  N   UNL     1      -1.160   5.723   1.776  0.00  0.00    -0.297 N 
ATOM     12  H   UNL     1      -0.871   3.452   0.586  0.00  0.00    +0.151 HD
ATOM     13  H   UNL     1      -2.094   5.178   1.573  0.00  0.00    +0.151 HD
BRANCH   8  14
ATOM     14  C   UNL     1       1.349   3.421   0.389  0.00  0.00    +0.105 C 
ATOM     15  C   UNL     1       1.753   3.977  -0.979  0.00  0.00    +0.033 C 
BRANCH  14  21
ATOM     16  C   UNL     1      -1.468  -0.663  -0.254  0.00  0.00    +0.044 C 
ATOM     17  C   UNL     1      -0.123  -0.033  -0.002  0.00  0.00    -0.050 A 
ATOM     18  C   UNL     1       0.996  -0.833   0.151  0.00  0.00    +0.007 A 
ATOM     19  C   UNL     1       2.230  -0.258   0.382  0.00  0.00    +0.046 A 
ATOM     20  C   UNL     1       2.348   1.123   0.461  0.00  0.00    +0.125 A 
ATOM     21  C   UNL     1       1.225   1.922   0.306  0.00  0.00    +0.014 A 
ATOM     22  C   UNL     1      -0.008   1.342   0.075  0.00  0.00    +0.012 A 
BRANCH  20  23
ATOM     23  O   UNL     1       3.561   1.690   0.689  0.00  0.00    -0.495 OA
ATOM     24  C   UNL     1       4.674   0.806   0.838  0.00  0.00    +0.277 C 
ENDBRANCH  20  23
ENDBRANCH  14  21
ENDBRANCH   8  14
ENDBRANCH   1  11
BRANCH   4  25
ATOM     25  C   UNL     1      -2.615  10.005   5.169  0.00  0.00    +0.019 C 
BRANCH  25  26
ATOM     26  C   UNL     1      -4.059  10.429   5.091  0.00  0.00    +0.201 C 
ATOM     27  O   UNL     1      -4.875   9.709   4.556  0.00  0.00    -0.278 OA
ATOM     28  N   UNL     1      -4.444  11.609   5.618  0.00  0.00    -0.287 N 
ATOM     29  H   UNL     1      -3.693  12.296   6.036  0.00  0.00    +0.155 HD
BRANCH  28  30
ATOM     30  C   UNL     1      -5.798  11.960   5.631  0.00  0.00    +0.033 A 
ATOM     31  C   UNL     1      -6.624  11.589   4.578  0.00  0.00    +0.023 A 
ATOM     32  C   UNL     1      -7.962  11.932   4.598  0.00  0.00    +0.002 A 
ATOM     33  C   UNL     1      -8.477  12.653   5.659  0.00  0.00    +0.000 A 
ATOM     34  C   UNL     1      -7.656  13.029   6.707  0.00  0.00    +0.002 A 
ATOM     35  C   UNL     1      -6.319  12.684   6.696  0.00  0.00    +0.023 A 
ENDBRANCH  28  30
ENDBRANCH  25  26
ENDBRANCH   4  25
TORSDOF 7
