REMARK  Name = ZINC40704201
REMARK  5 active torsions:
REMARK  status: ('A' for Active; 'I' for Inactive)
REMARK    1  A    between atoms: C_6  and  N_7
REMARK    2  A    between atoms: C_9  and  N_26
REMARK    3  A    between atoms: C_10  and  N_14
REMARK    4  A    between atoms: N_14  and  N_15
REMARK    5  A    between atoms: C_16  and  C_18
REMARK                            x       y       z     vdW  Elec       q    Type
REMARK                         _______ _______ _______ _____ _____    ______ ____
ROOT
ATOM      1  N   UNL     1      -1.198  -0.721   0.010  0.00  0.00    -0.298 N 
ATOM      2  C   UNL     1      -1.181  -2.106  -0.102  0.00  0.00    +0.149 A 
ATOM      3  C   UNL     1      -2.375  -2.824  -0.206  0.00  0.00    +0.107 A 
ATOM      4  C   UNL     1      -2.301  -4.213  -0.317  0.00  0.00    +0.161 A 
ATOM      5  N   UNL     1      -1.105  -4.797  -0.320  0.00  0.00    -0.217 NA
ATOM      6  C   UNL     1      -0.002  -4.083  -0.220  0.00  0.00    +0.225 A 
ATOM      7  N   UNL     1      -0.027  -2.769  -0.119  0.00  0.00    -0.219 NA
ATOM      8  H   UNL     1      -2.043  -0.252   0.099  0.00  0.00    +0.154 HD
ENDROOT
BRANCH   1  14
ATOM      9  C   UNL     1       1.075  -0.458  -0.760  0.00  0.00    +0.025 A 
ATOM     10  C   UNL     1       2.260   0.252  -0.773  0.00  0.00    +0.023 A 
ATOM     11  C   UNL     1       2.378   1.416  -0.035  0.00  0.00    +0.059 A 
ATOM     12  C   UNL     1       1.310   1.872   0.720  0.00  0.00    +0.061 A 
ATOM     13  C   UNL     1       0.123   1.165   0.737  0.00  0.00    +0.044 A 
ATOM     14  C   UNL     1       0.002  -0.004  -0.004  0.00  0.00    +0.034 A 
ATOM     15 CL   UNL     1       1.463   3.333   1.645  0.00  0.00    -0.082 Cl
ATOM     16 CL   UNL     1       3.869   2.305  -0.053  0.00  0.00    -0.082 Cl
ENDBRANCH   1  14
BRANCH   3  17
ATOM     17  N   UNL     1      -3.615  -2.166  -0.198  0.00  0.00    -0.353 N 
ATOM     18  H   UNL     1      -3.651  -1.200  -0.120  0.00  0.00    +0.143 HD
ATOM     19  H   UNL     1      -4.436  -2.677  -0.271  0.00  0.00    +0.143 HD
ENDBRANCH   3  17
BRANCH   4  20
ATOM     20  N   UNL     1      -3.458  -4.975  -0.423  0.00  0.00    -0.247 N 
ATOM     21  H   UNL     1      -4.326  -4.542  -0.419  0.00  0.00    +0.172 HD
BRANCH  20  22
ATOM     22  N   UNL     1      -3.372  -6.369  -0.534  0.00  0.00    -0.231 N 
ATOM     23  C   UNL     1      -4.494  -7.108  -0.636  0.00  0.00    +0.262 C 
ATOM     24  O   UNL     1      -5.582  -6.565  -0.632  0.00  0.00    -0.269 OA
ATOM     25  H   UNL     1      -2.504  -6.803  -0.537  0.00  0.00    +0.173 HD
BRANCH  23  26
ATOM     26  C   UNL     1      -4.403  -8.578  -0.753  0.00  0.00    +0.057 A 
ATOM     27  C   UNL     1      -3.155  -9.205  -0.752  0.00  0.00    +0.016 A 
ATOM     28  C   UNL     1      -3.076 -10.577  -0.862  0.00  0.00    +0.021 A 
ATOM     29  C   UNL     1      -4.231 -11.335  -0.972  0.00  0.00    +0.042 A 
ATOM     30  C   UNL     1      -5.471 -10.720  -0.973  0.00  0.00    +0.040 A 
ATOM     31  C   UNL     1      -5.564  -9.347  -0.859  0.00  0.00    +0.054 A 
ATOM     32 CL   UNL     1      -7.121  -8.578  -0.855  0.00  0.00    -0.083 Cl
ATOM     33 CL   UNL     1      -4.122 -13.062  -1.109  0.00  0.00    -0.083 Cl
ENDBRANCH  23  26
ENDBRANCH  20  22
ENDBRANCH   4  20
TORSDOF 5
