REMARK  Name = ZINC13252187
REMARK  6 active torsions:
REMARK  status: ('A' for Active; 'I' for Inactive)
REMARK    1  A    between atoms: C_3  and  S_20
REMARK    2  A    between atoms: C_6  and  N_7
REMARK    3  A    between atoms: C_8  and  C_10
REMARK    4  A    between atoms: C_10  and  C_11
REMARK    5  A    between atoms: C_11  and  C_17
REMARK    6  A    between atoms: S_20  and  N_23
REMARK                            x       y       z     vdW  Elec       q    Type
REMARK                         _______ _______ _______ _____ _____    ______ ____
ROOT
ATOM      1  C   UNL     1      -3.054   4.618   4.572  0.00  0.00    +0.025 A 
ATOM      2  C   UNL     1      -3.679   5.083   5.712  0.00  0.00    +0.031 A 
ATOM      3  C   UNL     1      -3.448   6.374   6.152  0.00  0.00    +0.113 A 
ATOM      4  C   UNL     1      -2.587   7.201   5.455  0.00  0.00    +0.031 A 
ATOM      5  C   UNL     1      -1.954   6.740   4.317  0.00  0.00    +0.025 A 
ATOM      6  C   UNL     1      -2.183   5.445   3.873  0.00  0.00    +0.033 A 
ENDROOT
BRANCH   6   7
ATOM      7  N   UNL     1      -1.544   4.975   2.720  0.00  0.00    -0.285 N 
ATOM      8  C   UNL     1      -1.195   3.676   2.625  0.00  0.00    +0.218 C 
ATOM      9  O   UNL     1      -1.350   2.936   3.573  0.00  0.00    -0.275 OA
ATOM     10  H   UNL     1      -1.326   5.665   1.892  0.00  0.00    +0.155 HD
BRANCH   8  11
ATOM     11  C   UNL     1      -0.611   3.145   1.341  0.00  0.00    +0.114 C 
BRANCH  11  12
ATOM     12  C   UNL     1      -0.170   1.694   1.543  0.00  0.00    +0.080 C 
ATOM     13  C   UNL     1       0.926   1.638   2.610  0.00  0.00    +0.019 C 
ATOM     14  C   UNL     1       2.122   2.477   2.157  0.00  0.00    +0.001 C 
ATOM     15  C   UNL     1       2.665   1.920   0.839  0.00  0.00    +0.000 C 
ATOM     16  C   UNL     1       1.570   1.976  -0.228  0.00  0.00    +0.001 C 
ATOM     17  C   UNL     1       0.373   1.138   0.226  0.00  0.00    +0.019 C 
BRANCH  12  18
ATOM     18  C   UNL     1      -1.349   0.869   1.990  0.00  0.00    +0.362 C 
ATOM     19  O   UNL     1      -1.278   0.213   3.003  0.00  0.00    -0.246 OA
ATOM     20  O   UNL     1      -2.477   0.861   1.263  0.00  0.00    -0.246 OA
ENDBRANCH  12  18
ENDBRANCH  11  12
ENDBRANCH   8  11
ENDBRANCH   6   7
BRANCH   3  21
ATOM     21  S   UNL     1      -4.253   6.965   7.603  0.00  0.00    +0.101 S 
ATOM     22  O   UNL     1      -4.586   5.821   8.378  0.00  0.00    -0.146 OA
ATOM     23  O   UNL     1      -3.451   8.022   8.110  0.00  0.00    -0.146 OA
BRANCH  21  24
ATOM     24  N   UNL     1      -5.686   7.646   7.125  0.00  0.00    -0.103 NA
ATOM     25  C   UNL     1      -6.674   6.856   6.559  0.00  0.00    +0.191 A 
ATOM     26  N   UNL     1      -6.660   5.559   6.315  0.00  0.00    -0.339 N 
ATOM     27  C   UNL     1      -7.699   4.956   5.769  0.00  0.00    +0.092 A 
ATOM     28  C   UNL     1      -8.784   5.701   5.450  0.00  0.00    +0.066 A 
ATOM     29  S   UNL     1      -8.245   7.319   5.982  0.00  0.00    -0.057 S 
ATOM     30  H   UNL     1      -5.772   4.961   6.568  0.00  0.00    +0.167 HD
ENDBRANCH  21  24
ENDBRANCH   3  21
TORSDOF 6
