REMARK  Name = ZINC67430570
REMARK  2 active torsions:
REMARK  status: ('A' for Active; 'I' for Inactive)
REMARK    1  A    between atoms: C_10  and  N_12
REMARK    2  A    between atoms: C_13  and  C_15
REMARK                            x       y       z     vdW  Elec       q    Type
REMARK                         _______ _______ _______ _____ _____    ______ ____
ROOT
ATOM      1  N   UNL     1       4.191   2.376   1.318  0.00  0.00    -0.301 N 
ATOM      2  C   UNL     1       3.903   3.625   1.734  0.00  0.00    +0.300 C 
ATOM      3  O   UNL     1       3.319   4.391   0.996  0.00  0.00    -0.265 OA
ATOM      4  H   UNL     1       4.657   1.763   1.908  0.00  0.00    +0.150 HD
ENDROOT
BRANCH   1  14
ATOM      5  C   UNL     1      -0.017   1.379   0.010  0.00  0.00    +0.020 A 
ATOM      6  C   UNL     1       1.171   2.084   0.002  0.00  0.00    +0.007 A 
ATOM      7  C   UNL     1       2.381   1.412  -0.014  0.00  0.00    -0.024 A 
ATOM      8  C   UNL     1       2.401   0.029  -0.021  0.00  0.00    -0.041 A 
ATOM      9  C   UNL     1       1.210  -0.677  -0.013  0.00  0.00    +0.024 A 
ATOM     10  C   UNL     1       0.002  -0.004   0.002  0.00  0.00    +0.041 A 
ATOM     11 CL   UNL     1      -1.489  -0.894   0.012  0.00  0.00    -0.084 Cl
ATOM     12  C   UNL     1       3.832  -0.462  -0.039  0.00  0.00    +0.037 C 
ATOM     13  C   UNL     1       4.671   0.755  -0.482  0.00  0.00    +0.032 C 
ATOM     14  C   UNL     1       3.798   1.943  -0.026  0.00  0.00    +0.104 C 
ENDBRANCH   1  14
BRANCH   2  15
ATOM     15  C   UNL     1       4.303   4.066   3.104  0.00  0.00    +0.305 C 
ATOM     16  O   UNL     1       4.886   3.299   3.842  0.00  0.00    -0.265 OA
ATOM     17  N   UNL     1       4.015   5.315   3.520  0.00  0.00    -0.255 N 
ATOM     18  C   UNL     1       4.387   5.725   4.794  0.00  0.00    +0.188 A 
ATOM     19  N   UNL     1       5.027   5.065   5.750  0.00  0.00    -0.126 NA
ATOM     20  N   UNL     1       5.288   5.596   6.864  0.00  0.00    -0.148 NA
ATOM     21  C   UNL     1       4.942   6.836   7.149  0.00  0.00    +0.183 A 
ATOM     22  S   UNL     1       4.146   7.298   5.614  0.00  0.00    -0.039 S 
ATOM     23  H   UNL     1       3.549   5.928   2.930  0.00  0.00    +0.157 HD
ENDBRANCH   2  15
TORSDOF 2
