REMARK  Name = ZINC08876937
REMARK  3 active torsions:
REMARK  status: ('A' for Active; 'I' for Inactive)
REMARK    1  A    between atoms: C_1  and  C_2
REMARK    2  A    between atoms: C_12  and  C_13
REMARK    3  A    between atoms: C_13  and  C_14
REMARK                            x       y       z     vdW  Elec       q    Type
REMARK                         _______ _______ _______ _____ _____    ______ ____
ROOT
ATOM      1  C   UNL     1      -1.045  -0.755   6.514  0.00  0.00    +0.045 C 
ATOM      2  C   UNL     1       0.254  -0.026   6.284  0.00  0.00    -0.029 A 
ATOM      3  C   UNL     1       1.164   0.269   7.393  0.00  0.00    +0.021 A 
ATOM      4  C   UNL     1       0.855  -0.121   8.700  0.00  0.00    +0.019 A 
ATOM      5  C   UNL     1       1.713   0.169   9.725  0.00  0.00    -0.005 A 
ATOM      6  C   UNL     1       2.899   0.851   9.474  0.00  0.00    +0.128 A 
ATOM      7  C   UNL     1       3.219   1.245   8.181  0.00  0.00    +0.093 A 
ATOM      8  C   UNL     1       2.361   0.959   7.130  0.00  0.00    +0.143 A 
ATOM      9  O   UNL     1       2.671   1.338   5.874  0.00  0.00    -0.422 OA
ATOM     10  C   UNL     1       1.842   1.061   4.862  0.00  0.00    +0.341 A 
ATOM     11  O   UNL     1       2.153   1.416   3.740  0.00  0.00    -0.245 OA
ATOM     12  C   UNL     1       0.624   0.377   5.039  0.00  0.00    +0.049 A 
ATOM     13  O   UNL     1       3.775   1.147  10.469  0.00  0.00    -0.485 OA
ATOM     14  C   UNL     1       3.305   1.081  11.814  0.00  0.00    +0.111 C 
ATOM     15  C   UNL     1       2.331   2.229  12.080  0.00  0.00    +0.048 C 
ATOM     16  C   UNL     1       3.051   3.565  11.889  0.00  0.00    +0.004 C 
ATOM     17  C   UNL     1       4.227   3.655  12.864  0.00  0.00    +0.000 C 
ATOM     18  C   UNL     1       5.203   2.508  12.590  0.00  0.00    +0.004 C 
ATOM     19  C   UNL     1       4.485   1.171  12.782  0.00  0.00    +0.048 C 
ATOM     20  C   UNL     1       2.582  -0.257  12.013  0.00  0.00    +0.053 C 
ATOM     21  C   UNL     1       1.339  -0.267  11.120  0.00  0.00    +0.043 C 
ENDROOT
BRANCH  12  22
ATOM     22  C   UNL     1      -0.268   0.098   3.857  0.00  0.00    +0.138 C 
BRANCH  22  23
ATOM     23  C   UNL     1       0.100  -1.233   3.253  0.00  0.00    +0.220 C 
ATOM     24  O   UNL     1       0.998  -1.890   3.735  0.00  0.00    -0.275 OA
ATOM     25  N   UNL     1      -0.569  -1.692   2.177  0.00  0.00    -0.300 N 
ATOM     26  C   UNL     1      -0.224  -2.986   1.576  0.00  0.00    +0.113 C 
ATOM     27  C   UNL     1      -0.032  -2.835   0.073  0.00  0.00    +0.027 C 
ATOM     28  C   UNL     1      -1.214  -2.100  -0.560  0.00  0.00    +0.018 C 
ATOM     29  C   UNL     1      -1.327  -0.718   0.089  0.00  0.00    +0.054 C 
ATOM     30  C   UNL     1      -1.661  -0.908   1.578  0.00  0.00    +0.117 C 
ATOM     31  C   UNL     1       0.002  -0.004   0.002  0.00  0.00    +0.027 A 
ATOM     32  C   UNL     1      -0.016   1.355   0.009  0.00  0.00    +0.022 A 
ATOM     33  C   UNL     1       1.178   2.083   0.002  0.00  0.00    +0.007 A 
ATOM     34  C   UNL     1       2.362   1.406   0.021  0.00  0.00    +0.070 A 
ATOM     35  C   UNL     1       2.346   0.004   0.026  0.00  0.00    +0.251 A 
ATOM     36  O   UNL     1       3.397  -0.612   0.112  0.00  0.00    -0.268 OA
ATOM     37  N   UNL     1       1.176  -0.674  -0.063  0.00  0.00    -0.312 N 
ATOM     38  C   UNL     1       1.263  -2.120  -0.267  0.00  0.00    +0.130 C 
ENDBRANCH  22  23
ENDBRANCH  12  22
TORSDOF 2
