REMARK  Name = ZINC67578199
REMARK  11 active torsions:
REMARK  status: ('A' for Active; 'I' for Inactive)
REMARK    1  A    between atoms: C_1  and  C_2
REMARK    2  A    between atoms: C_2  and  C_3
REMARK    3  A    between atoms: C_8  and  N_9
REMARK    4  A    between atoms: C_10  and  C_12
REMARK    5  A    between atoms: C_12  and  N_13
REMARK    6  A    between atoms: N_13  and  C_14
REMARK    7  A    between atoms: N_17  and  C_18
REMARK    8  A    between atoms: C_22  and  C_24
REMARK    9  A    between atoms: C_24  and  C_26
REMARK   10  A    between atoms: C_24  and  S_27
REMARK   11  A    between atoms: S_27  and  C_28
REMARK                            x       y       z     vdW  Elec       q    Type
REMARK                         _______ _______ _______ _____ _____    ______ ____
ROOT
ATOM      1  N   UNL     1      -2.222  -0.564  -6.085  0.00  0.00    -0.280 N 
ATOM      2  C   UNL     1      -3.234   0.420  -6.479  0.00  0.00    +0.134 C 
ATOM      3  C   UNL     1      -2.243  -1.802  -6.617  0.00  0.00    +0.307 C 
ATOM      4  O   UNL     1      -1.403  -2.618  -6.289  0.00  0.00    -0.252 OA
ATOM      5  N   UNL     1      -3.194  -2.136  -7.511  0.00  0.00    -0.269 N 
ATOM      6  H   UNL     1      -3.818  -1.464  -7.829  0.00  0.00    +0.156 HD
ENDROOT
BRANCH   5   7
ATOM      7  C   UNL     1      -3.282  -3.451  -7.981  0.00  0.00    +0.035 A 
ATOM      8  C   UNL     1      -3.682  -3.697  -9.288  0.00  0.00    +0.023 A 
ATOM      9  C   UNL     1      -3.767  -4.996  -9.750  0.00  0.00    +0.002 A 
ATOM     10  C   UNL     1      -3.455  -6.051  -8.911  0.00  0.00    +0.005 A 
ATOM     11  C   UNL     1      -3.058  -5.809  -7.610  0.00  0.00    -0.033 A 
ATOM     12  C   UNL     1      -2.964  -4.512  -7.144  0.00  0.00    +0.028 A 
BRANCH  11  13
ATOM     13  C   UNL     1      -2.720  -6.962  -6.699  0.00  0.00    +0.073 C 
ATOM     14  C   UNL     1      -3.942  -7.869  -6.550  0.00  0.00    +0.024 C 
BRANCH  13  15
ATOM     15  S   UNL     1      -1.346  -7.910  -7.409  0.00  0.00    -0.156 S 
ATOM     16  C   UNL     1      -0.966  -9.149  -6.140  0.00  0.00    +0.085 C 
ENDBRANCH  13  15
ENDBRANCH  11  13
ENDBRANCH   5   7
BRANCH   1  17
ATOM     17  C   UNL     1      -1.188  -0.201  -5.113  0.00  0.00    +0.205 C 
BRANCH  17  19
ATOM     18  N   UNL     1      -0.884  -0.265  -2.659  0.00  0.00    -0.284 N 
ATOM     19  C   UNL     1      -1.674  -0.517  -3.721  0.00  0.00    +0.235 C 
ATOM     20  O   UNL     1      -2.775  -0.998  -3.558  0.00  0.00    -0.274 OA
ATOM     21  H   UNL     1      -0.031   0.180  -2.783  0.00  0.00    +0.155 HD
BRANCH  18  27
ATOM     22  C   UNL     1      -0.354  -1.038  -0.433  0.00  0.00    -0.026 A 
ATOM     23  C   UNL     1      -0.762  -1.408   0.834  0.00  0.00    +0.005 A 
ATOM     24  C   UNL     1      -2.105  -1.393   1.161  0.00  0.00    +0.000 A 
ATOM     25  C   UNL     1      -3.045  -1.008   0.222  0.00  0.00    +0.002 A 
ATOM     26  C   UNL     1      -2.643  -0.637  -1.046  0.00  0.00    +0.023 A 
ATOM     27  C   UNL     1      -1.294  -0.646  -1.376  0.00  0.00    +0.037 A 
BRANCH  22  29
ATOM     28  C   UNL     1       1.701   0.342  -0.581  0.00  0.00    +0.009 C 
ATOM     29  C   UNL     1       1.110  -1.054  -0.788  0.00  0.00    +0.033 C 
ENDBRANCH  22  29
ENDBRANCH  18  27
ENDBRANCH  17  19
ENDBRANCH   1  17
TORSDOF 7
