REMARK  Name = ZINC08746493
REMARK  7 active torsions:
REMARK  status: ('A' for Active; 'I' for Inactive)
REMARK    1  A    between atoms: C_1  and  C_2
REMARK    2  A    between atoms: C_2  and  C_4
REMARK    3  A    between atoms: C_2  and  S_16
REMARK    4  A    between atoms: N_6  and  C_7
REMARK    5  A    between atoms: C_10  and  C_13
REMARK    6  A    between atoms: S_16  and  C_17
REMARK    7  A    between atoms: N_21  and  C_22
REMARK                            x       y       z     vdW  Elec       q    Type
REMARK                         _______ _______ _______ _____ _____    ______ ____
ROOT
ATOM      1  C   UNL     1      -6.909   6.177  -1.103  0.00  0.00    +0.029 C 
ATOM      2  C   UNL     1      -6.272   6.035   0.281  0.00  0.00    +0.137 C 
ENDROOT
BRANCH   2   3
ATOM      3  C   UNL     1      -4.958   5.309   0.158  0.00  0.00    +0.230 C 
ATOM      4  O   UNL     1      -3.918   5.933   0.157  0.00  0.00    -0.274 OA
ATOM      5  N   UNL     1      -4.938   3.966   0.048  0.00  0.00    -0.285 N 
ATOM      6  H   UNL     1      -5.770   3.472  -0.018  0.00  0.00    +0.155 HD
BRANCH   5   7
ATOM      7  C   UNL     1      -3.721   3.286   0.030  0.00  0.00    +0.033 A 
ATOM      8  C   UNL     1      -2.613   3.861  -0.586  0.00  0.00    +0.024 A 
ATOM      9  C   UNL     1      -1.410   3.192  -0.605  0.00  0.00    +0.015 A 
ATOM     10  C   UNL     1      -1.301   1.935  -0.006  0.00  0.00    +0.037 A 
ATOM     11  C   UNL     1      -2.417   1.357   0.607  0.00  0.00    +0.015 A 
ATOM     12  C   UNL     1      -3.616   2.034   0.627  0.00  0.00    +0.024 A 
BRANCH  10  13
ATOM     13  C   UNL     1      -0.013   1.215  -0.025  0.00  0.00    +0.242 C 
ATOM     14  O   UNL     1       0.955   1.716  -0.563  0.00  0.00    -0.270 OA
ATOM     15  N   UNL     1       0.091   0.004   0.558  0.00  0.00    -0.325 N 
ATOM     16  H   UNL     1       0.939  -0.467   0.549  0.00  0.00    +0.145 HD
ATOM     17  H   UNL     1      -0.681  -0.396   0.987  0.00  0.00    +0.145 HD
ENDBRANCH  10  13
ENDBRANCH   5   7
ENDBRANCH   2   3
BRANCH   2  18
ATOM     18  S   UNL     1      -5.990   7.678   0.987  0.00  0.00    -0.075 S 
BRANCH  18  19
ATOM     19  C   UNL     1      -7.655   8.228   1.157  0.00  0.00    +0.174 A 
ATOM     20  N   UNL     1      -8.727   7.548   0.824  0.00  0.00    -0.230 NA
ATOM     21  C   UNL     1      -9.821   8.278   1.098  0.00  0.00    +0.131 A 
ATOM     22  C   UNL     1      -9.427   9.457   1.611  0.00  0.00    +0.113 A 
ATOM     23  N   UNL     1      -8.050   9.436   1.653  0.00  0.00    -0.295 N 
BRANCH  23  24
ATOM     24  C   UNL     1      -7.213  10.461   2.118  0.00  0.00    +0.049 A 
ATOM     25  C   UNL     1      -6.215  10.179   3.040  0.00  0.00    +0.027 A 
ATOM     26  C   UNL     1      -5.390  11.190   3.494  0.00  0.00    +0.017 A 
ATOM     27  C   UNL     1      -5.564  12.484   3.037  0.00  0.00    +0.018 A 
ATOM     28  C   UNL     1      -6.562  12.768   2.121  0.00  0.00    +0.017 A 
ATOM     29  C   UNL     1      -7.386  11.761   1.661  0.00  0.00    +0.027 A 
ATOM     30 BR   UNL     1      -4.438  13.867   3.665  0.00  0.00    -0.050 Br
ENDBRANCH  23  24
ENDBRANCH  18  19
ENDBRANCH   2  18
TORSDOF 6
