REMARK  Name = ZINC09357914
REMARK  7 active torsions:
REMARK  status: ('A' for Active; 'I' for Inactive)
REMARK    1  A    between atoms: C_1  and  C_2
REMARK    2  A    between atoms: C_5  and  S_8
REMARK    3  A    between atoms: S_8  and  N_11
REMARK    4  A    between atoms: N_11  and  C_12
REMARK    5  A    between atoms: C_12  and  C_31
REMARK    6  A    between atoms: N_20  and  C_25
REMARK    7  A    between atoms: C_25  and  C_26
REMARK                            x       y       z     vdW  Elec       q    Type
REMARK                         _______ _______ _______ _____ _____    ______ ____
ROOT
ATOM      1  C   UNL     1       2.407  -4.555   1.004  0.00  0.00    +0.245 C 
ATOM      2  C   UNL     1       3.842  -4.969   0.776  0.00  0.00    +0.092 C 
ATOM      3  C   UNL     1       4.778  -4.663  -0.160  0.00  0.00    +0.253 C 
ATOM      4  O   UNL     1       4.482  -3.811  -1.164  0.00  0.00    -0.270 OA
ATOM      5  N   UNL     1       6.025  -5.227  -0.077  0.00  0.00    -0.236 N 
ATOM      6  H   UNL     1       6.697  -5.012  -0.743  0.00  0.00    +0.159 HD
ATOM      7  C   UNL     1       6.322  -6.076   0.923  0.00  0.00    +0.314 C 
ATOM      8  O   UNL     1       7.435  -6.565   0.977  0.00  0.00    -0.252 OA
ATOM      9  N   UNL     1       5.417  -6.397   1.863  0.00  0.00    -0.234 N 
ATOM     10  C   UNL     1       4.147  -5.854   1.821  0.00  0.00    +0.133 C 
ATOM     11  N   UNL     1       3.098  -6.014   2.621  0.00  0.00    -0.163 NA
ATOM     12  C   UNL     1       2.032  -5.320   2.259  0.00  0.00    +0.273 C 
ATOM     13  O   UNL     1       0.956  -5.298   2.825  0.00  0.00    -0.271 OA
ENDROOT
BRANCH   1  14
ATOM     14  C   UNL     1       2.304  -3.047   1.237  0.00  0.00    +0.422 C 
ATOM     15  F   UNL     1       0.964  -2.696   1.433  0.00  0.00    -0.168 F 
ATOM     16  F   UNL     1       3.048  -2.698   2.369  0.00  0.00    -0.168 F 
ATOM     17  F   UNL     1       2.805  -2.367   0.122  0.00  0.00    -0.168 F 
ENDBRANCH   1  14
BRANCH   1  18
ATOM     18  N   UNL     1       1.564  -4.963  -0.123  0.00  0.00    -0.162 NA
ATOM     19  H   UNL     1       1.037  -4.302  -0.599  0.00  0.00    +0.150 HD
BRANCH  18  20
ATOM     20  S   UNL     1       1.511  -6.553  -0.585  0.00  0.00    +0.060 S 
ATOM     21  O   UNL     1       2.858  -7.004  -0.642  0.00  0.00    -0.153 OA
ATOM     22  O   UNL     1       0.636  -6.622  -1.702  0.00  0.00    -0.153 OA
BRANCH  20  27
ATOM     23  C   UNL     1      -1.147  -9.622   3.878  0.00  0.00    +0.044 C 
ATOM     24  C   UNL     1      -0.483  -8.855   2.764  0.00  0.00    -0.050 A 
ATOM     25  C   UNL     1      -1.253  -8.185   1.832  0.00  0.00    +0.005 A 
ATOM     26  C   UNL     1      -0.644  -7.481   0.809  0.00  0.00    +0.029 A 
ATOM     27  C   UNL     1       0.735  -7.448   0.719  0.00  0.00    +0.105 A 
ATOM     28  C   UNL     1       1.505  -8.118   1.652  0.00  0.00    +0.029 A 
ATOM     29  C   UNL     1       0.896  -8.818   2.676  0.00  0.00    +0.005 A 
ENDBRANCH  20  27
ENDBRANCH  18  20
ENDBRANCH   1  18
BRANCH   9  30
ATOM     30  C   UNL     1       5.777  -7.325   2.938  0.00  0.00    +0.190 C 
BRANCH  30  31
ATOM     31  C   UNL     1       6.341  -6.552   4.102  0.00  0.00    +0.123 A 
ATOM     32  C   UNL     1       5.634  -6.056   5.133  0.00  0.00    +0.046 A 
ATOM     33  C   UNL     1       6.556  -5.409   5.988  0.00  0.00    +0.041 A 
ATOM     34  C   UNL     1       7.771  -5.549   5.428  0.00  0.00    +0.195 A 
ATOM     35  O   UNL     1       7.636  -6.247   4.289  0.00  0.00    -0.466 OA
ENDBRANCH  30  31
ENDBRANCH   9  30
TORSDOF 6
