REMARK  Name = ZINC44714386
REMARK  8 active torsions:
REMARK  status: ('A' for Active; 'I' for Inactive)
REMARK    1  A    between atoms: C_1  and  C_2
REMARK    2  A    between atoms: C_6  and  C_8
REMARK    3  A    between atoms: C_12  and  C_21
REMARK    4  A    between atoms: N_23  and  C_24
REMARK    5  A    between atoms: C_24  and  C_25
REMARK    6  A    between atoms: C_25  and  C_26
REMARK    7  A    between atoms: C_27  and  C_38
REMARK    8  A    between atoms: C_33  and  C_36
REMARK                            x       y       z     vdW  Elec       q    Type
REMARK                         _______ _______ _______ _____ _____    ______ ____
ROOT
ATOM      1  C   UNL     1       0.053  -2.845   2.455  0.00  0.00    +0.247 C 
ATOM      2  O   UNL     1       0.158  -2.250   3.510  0.00  0.00    -0.270 OA
ATOM      3  N   UNL     1      -0.032  -4.190   2.446  0.00  0.00    -0.296 N 
ATOM      4  C   UNL     1      -0.035  -5.092   1.270  0.00  0.00    +0.121 C 
ATOM      5  C   UNL     1       0.819  -6.304   1.705  0.00  0.00    +0.100 C 
ATOM      6  C   UNL     1       0.743  -6.306   3.241  0.00  0.00    -0.004 C 
ATOM      7  C   UNL     1      -0.135  -5.102   3.610  0.00  0.00    +0.115 C 
ATOM      8  C   UNL     1       2.137  -6.138   3.838  0.00  0.00    -0.010 C 
ATOM      9  C   UNL     1       2.043  -6.200   5.366  0.00  0.00    -0.082 C 
ATOM     10  N   UNL     1       1.468  -7.489   5.770  0.00  0.00    +0.379 N 
ATOM     11  C   UNL     1       0.093  -7.603   5.268  0.00  0.00    -0.082 C 
ATOM     12  C   UNL     1       0.104  -7.599   3.737  0.00  0.00    -0.010 C 
ATOM     13  H   UNL     1       2.026  -8.238   5.391  0.00  0.00    -0.086 HD
ATOM     14  H   UNL     1       1.463  -7.552   6.777  0.00  0.00    -0.086 HD
ENDROOT
BRANCH   1  20
ATOM     15  C   UNL     1      -1.279  -2.541  -2.344  0.00  0.00    +0.044 C 
ATOM     16  C   UNL     1      -0.621  -1.943  -1.128  0.00  0.00    -0.050 A 
ATOM     17  C   UNL     1      -0.047  -0.685  -1.201  0.00  0.00    +0.003 A 
ATOM     18  C   UNL     1       0.558  -0.129  -0.089  0.00  0.00    +0.001 A 
ATOM     19  C   UNL     1       0.594  -0.825   1.102  0.00  0.00    +0.013 A 
ATOM     20  C   UNL     1       0.018  -2.093   1.183  0.00  0.00    +0.037 A 
ATOM     21  C   UNL     1      -0.597  -2.647   0.058  0.00  0.00    +0.016 A 
ENDBRANCH   1  20
BRANCH   5  22
ATOM     22  C   UNL     1       0.241  -7.579   1.147  0.00  0.00    +0.218 C 
ATOM     23  O   UNL     1      -0.938  -7.641   0.871  0.00  0.00    -0.275 OA
ATOM     24  N   UNL     1       1.036  -8.651   0.955  0.00  0.00    -0.315 N 
ATOM     25  H   UNL     1       1.979  -8.601   1.176  0.00  0.00    +0.149 HD
BRANCH  24  26
ATOM     26  C   UNL     1       0.474  -9.891   0.413  0.00  0.00    +0.109 C 
BRANCH  26  27
ATOM     27  C   UNL     1       1.580 -10.942   0.295  0.00  0.00    +0.056 C 
BRANCH  27  28
ATOM     28  C   UNL     1       1.002 -12.218  -0.263  0.00  0.00    -0.018 A 
ATOM     29  C   UNL     1       0.475 -13.231   0.442  0.00  0.00    +0.017 A 
ATOM     30  N   UNL     1       0.052 -14.219  -0.406  0.00  0.00    -0.358 N 
ATOM     31  H   UNL     1      -0.364 -15.050  -0.128  0.00  0.00    +0.166 HD
ATOM     32  C   UNL     1       0.302 -13.859  -1.709  0.00  0.00    +0.047 A 
ATOM     33  C   UNL     1       0.905 -12.585  -1.678  0.00  0.00    +0.004 A 
ATOM     34  C   UNL     1       1.270 -11.959  -2.867  0.00  0.00    +0.029 A 
ATOM     35  C   UNL     1       1.031 -12.601  -4.079  0.00  0.00    +0.052 A 
ATOM     36  C   UNL     1       0.428 -13.866  -4.096  0.00  0.00    +0.021 A 
ATOM     37  C   UNL     1       0.075 -14.484  -2.932  0.00  0.00    +0.027 A 
ATOM     38  C   UNL     1       0.365 -13.274   1.944  0.00  0.00    +0.063 C 
BRANCH  35  39
ATOM     39  C   UNL     1       1.400 -11.968  -5.309  0.00  0.00    +0.099 C 
ATOM     40  N   UNL     1       1.694 -11.466  -6.285  0.00  0.00    -0.191 NA
ENDBRANCH  35  39
ENDBRANCH  27  28
ENDBRANCH  26  27
ENDBRANCH  24  26
ENDBRANCH   5  22
TORSDOF 6
