REMARK  Name = ZINC21513682
REMARK  6 active torsions:
REMARK  status: ('A' for Active; 'I' for Inactive)
REMARK    1  A    between atoms: C_1  and  C_2
REMARK    2  A    between atoms: C_3  and  S_9
REMARK    3  A    between atoms: C_4  and  C_8
REMARK    4  A    between atoms: S_9  and  N_12
REMARK    5  A    between atoms: N_12  and  C_13
REMARK    6  A    between atoms: C_18  and  N_22
REMARK                            x       y       z     vdW  Elec       q    Type
REMARK                         _______ _______ _______ _____ _____    ______ ____
ROOT
ATOM      1  N   UNL     1       6.044   1.784  -0.046  0.00  0.00    -0.070 NA
ENDROOT
BRANCH   1   2
ATOM      2  C   UNL     1       4.735   1.343  -0.036  0.00  0.00    +0.202 A 
ATOM      3  N   UNL     1       3.629   2.049  -0.022  0.00  0.00    -0.222 NA
ATOM      4  C   UNL     1       2.402   1.478  -0.013  0.00  0.00    +0.080 A 
ATOM      5  C   UNL     1       1.143   2.119   0.003  0.00  0.00    +0.031 A 
ATOM      6  C   UNL     1      -0.017   1.389   0.010  0.00  0.00    +0.025 A 
ATOM      7  C   UNL     1       0.002  -0.004   0.002  0.00  0.00    +0.026 A 
ATOM      8  C   UNL     1       1.224  -0.664  -0.013  0.00  0.00    +0.040 A 
ATOM      9  C   UNL     1       2.386   0.065  -0.021  0.00  0.00    +0.043 A 
ATOM     10  S   UNL     1       4.118  -0.334  -0.039  0.00  0.00    -0.049 S 
BRANCH   7  11
ATOM     11  N   UNL     1      -1.195  -0.729   0.010  0.00  0.00    -0.358 N 
ATOM     12  H   UNL     1      -1.172  -1.829   0.004  0.00  0.00    +0.142 HD
ATOM     13  H   UNL     1      -2.159  -0.199   0.023  0.00  0.00    +0.142 HD
ENDBRANCH   7  11
ENDBRANCH   1   2
BRANCH   1  14
ATOM     14  S   UNL     1       6.371   3.408  -0.041  0.00  0.00    +0.097 S 
ATOM     15  O   UNL     1       7.786   3.537  -0.026  0.00  0.00    -0.148 OA
ATOM     16  O   UNL     1       5.563   3.988  -1.056  0.00  0.00    -0.148 OA
BRANCH  14  19
ATOM     17  C   UNL     1       7.938   3.714   2.830  0.00  0.00    +0.067 C 
ATOM     18  C   UNL     1       6.505   4.143   2.639  0.00  0.00    +0.060 A 
ATOM     19  C   UNL     1       5.791   4.051   1.494  0.00  0.00    +0.153 A 
ATOM     20  C   UNL     1       4.513   4.561   1.742  0.00  0.00    +0.087 A 
ATOM     21  N   UNL     1       4.458   4.937   2.994  0.00  0.00    -0.177 NA
ATOM     22  N   UNL     1       5.706   4.687   3.580  0.00  0.00    -0.280 N 
ATOM     23  H   UNL     1       6.088   4.854   4.598  0.00  0.00    +0.189 HD
ATOM     24  C   UNL     1       3.390   4.657   0.741  0.00  0.00    +0.069 C 
ENDBRANCH  14  19
ENDBRANCH   1  14
TORSDOF 4
