REMARK  Name = ZINC09057762
REMARK  9 active torsions:
REMARK  status: ('A' for Active; 'I' for Inactive)
REMARK    1  A    between atoms: C_1  and  C_2
REMARK    2  A    between atoms: C_5  and  C_8
REMARK    3  A    between atoms: C_8  and  C_9
REMARK    4  A    between atoms: C_10  and  C_12
REMARK    5  A    between atoms: N_14  and  N_15
REMARK    6  A    between atoms: C_16  and  C_18
REMARK    7  A    between atoms: C_18  and  C_19
REMARK    8  A    between atoms: C_18  and  C_25
REMARK    9  A    between atoms: C_18  and  O_31
REMARK                            x       y       z     vdW  Elec       q    Type
REMARK                         _______ _______ _______ _____ _____    ______ ____
ROOT
ATOM      1  N   UNL     1       0.575  -8.879   4.450  0.00  0.00    -0.231 N 
ATOM      2  C   UNL     1       0.437 -10.149   4.021  0.00  0.00    +0.270 C 
ATOM      3  O   UNL     1       0.520 -10.402   2.838  0.00  0.00    -0.270 OA
ATOM      4  H   UNL     1       0.509  -8.677   5.397  0.00  0.00    +0.173 HD
ENDROOT
BRANCH   1   7
ATOM      5  C   UNL     1       0.954  -6.581   3.959  0.00  0.00    +0.300 C 
ATOM      6  O   UNL     1       0.870  -6.327   5.144  0.00  0.00    -0.265 OA
ATOM      7  N   UNL     1       0.815  -7.851   3.529  0.00  0.00    -0.228 N 
ATOM      8  H   UNL     1       0.882  -8.053   2.583  0.00  0.00    +0.173 HD
BRANCH   5  10
ATOM      9  C   UNL     1       1.346  -4.218   3.416  0.00  0.00    +0.107 C 
ATOM     10  C   UNL     1       1.208  -5.493   2.985  0.00  0.00    +0.245 C 
ATOM     11  O   UNL     1       1.300  -5.775   1.665  0.00  0.00    -0.282 OA
BRANCH   9  12
ATOM     12  C   UNL     1       1.597  -3.142   2.452  0.00  0.00    +0.190 C 
ATOM     13  O   UNL     1       1.681  -3.395   1.265  0.00  0.00    -0.287 OA
BRANCH  12  18
ATOM     14  C   UNL     1       2.187   2.282   4.284  0.00  0.00    +0.044 C 
ATOM     15  C   UNL     1       2.032   0.862   3.805  0.00  0.00    -0.050 A 
ATOM     16  C   UNL     1       2.129   0.577   2.454  0.00  0.00    +0.004 A 
ATOM     17  C   UNL     1       1.988  -0.721   2.008  0.00  0.00    +0.012 A 
ATOM     18  C   UNL     1       1.749  -1.748   2.923  0.00  0.00    +0.022 A 
ATOM     19  C   UNL     1       1.654  -1.454   4.285  0.00  0.00    +0.012 A 
ATOM     20  C   UNL     1       1.801  -0.152   4.717  0.00  0.00    +0.004 A 
ENDBRANCH  12  18
ENDBRANCH   9  12
ENDBRANCH   5  10
ENDBRANCH   1   7
BRANCH   2  21
ATOM     21  C   UNL     1       0.179 -11.255   5.011  0.00  0.00    +0.194 C 
BRANCH  21  22
ATOM     22  C   UNL     1      -1.299 -11.342   5.293  0.00  0.00    -0.003 A 
ATOM     23  C   UNL     1      -2.209 -11.189   4.264  0.00  0.00    +0.007 A 
ATOM     24  C   UNL     1      -3.565 -11.269   4.523  0.00  0.00    +0.000 A 
ATOM     25  C   UNL     1      -4.010 -11.502   5.811  0.00  0.00    +0.000 A 
ATOM     26  C   UNL     1      -3.100 -11.656   6.840  0.00  0.00    +0.000 A 
ATOM     27  C   UNL     1      -1.744 -11.581   6.580  0.00  0.00    +0.007 A 
ENDBRANCH  21  22
BRANCH  21  28
ATOM     28  C   UNL     1       0.659 -12.564   4.439  0.00  0.00    -0.003 A 
ATOM     29  C   UNL     1       1.712 -13.234   5.034  0.00  0.00    +0.007 A 
ATOM     30  C   UNL     1       2.152 -14.434   4.509  0.00  0.00    +0.000 A 
ATOM     31  C   UNL     1       1.540 -14.965   3.390  0.00  0.00    +0.000 A 
ATOM     32  C   UNL     1       0.486 -14.296   2.795  0.00  0.00    +0.000 A 
ATOM     33  C   UNL     1       0.043 -13.098   3.322  0.00  0.00    +0.007 A 
ENDBRANCH  21  28
BRANCH  21  34
ATOM     34  O   UNL     1       0.880 -10.980   6.226  0.00  0.00    -0.371 OA
ATOM     35  H   UNL     1       1.839 -10.911   6.119  0.00  0.00    +0.212 HD
ENDBRANCH  21  34
ENDBRANCH   2  21
TORSDOF 8
