REMARK  Name = ZINC41250774
REMARK  8 active torsions:
REMARK  status: ('A' for Active; 'I' for Inactive)
REMARK    1  A    between atoms: C_3  and  C_11
REMARK    2  A    between atoms: C_5  and  C_7
REMARK    3  A    between atoms: C_13  and  C_16
REMARK    4  A    between atoms: C_16  and  N_17
REMARK    5  A    between atoms: C_20  and  C_23
REMARK    6  A    between atoms: N_25  and  C_26
REMARK    7  A    between atoms: C_26  and  C_27
REMARK    8  A    between atoms: C_27  and  C_28
REMARK                            x       y       z     vdW  Elec       q    Type
REMARK                         _______ _______ _______ _____ _____    ______ ____
ROOT
ATOM      1  N   UNL     1       5.761   5.696   1.370  0.00  0.00    +0.386 N 
ATOM      2  C   UNL     1       6.798   4.876   2.008  0.00  0.00    -0.077 C 
ATOM      3  C   UNL     1       6.943   5.282   3.476  0.00  0.00    -0.006 C 
ATOM      4  C   UNL     1       7.338   6.759   3.554  0.00  0.00    +0.071 C 
ATOM      5  C   UNL     1       6.288   7.598   2.822  0.00  0.00    -0.006 C 
ATOM      6  C   UNL     1       6.167   7.107   1.378  0.00  0.00    -0.077 C 
ATOM      7  H   UNL     1       4.894   5.593   1.877  0.00  0.00    -0.081 HD
ENDROOT
BRANCH   4   8
ATOM      8  C   UNL     1       7.407   7.186   4.998  0.00  0.00    +0.216 C 
ATOM      9  O   UNL     1       7.164   6.389   5.879  0.00  0.00    -0.276 OA
ATOM     10  N   UNL     1       7.739   8.455   5.311  0.00  0.00    -0.315 N 
ATOM     11  H   UNL     1       7.933   9.093   4.606  0.00  0.00    +0.149 HD
BRANCH  10  12
ATOM     12  C   UNL     1       7.805   8.870   6.714  0.00  0.00    +0.109 C 
BRANCH  12  13
ATOM     13  C   UNL     1       8.200  10.346   6.791  0.00  0.00    +0.061 C 
BRANCH  13  14
ATOM     14  C   UNL     1       8.269  10.773   8.234  0.00  0.00    -0.009 A 
ATOM     15  C   UNL     1       9.326  10.747   9.083  0.00  0.00    +0.011 A 
ATOM     16  C   UNL     1       9.155  11.194  10.380  0.00  0.00    +0.008 A 
ATOM     17  C   UNL     1       7.937  11.647  10.764  0.00  0.00    +0.045 A 
ATOM     18  S   UNL     1       6.982  11.453   9.268  0.00  0.00    -0.102 S 
ENDBRANCH  13  14
ENDBRANCH  12  13
ENDBRANCH  10  12
ENDBRANCH   4   8
BRANCH   1  19
ATOM     19  C   UNL     1       5.570   5.250  -0.017  0.00  0.00    +0.022 C 
BRANCH  19  22
ATOM     20  C   UNL     1       3.660   2.164  -0.022  0.00  0.00    +0.202 A 
ATOM     21  N   UNL     1       3.778   3.504  -0.011  0.00  0.00    -0.193 NA
ATOM     22  C   UNL     1       5.036   3.841  -0.023  0.00  0.00    +0.211 A 
ATOM     23  O   UNL     1       5.775   2.724  -0.043  0.00  0.00    -0.340 OA
ATOM     24  N   UNL     1       4.860   1.639  -0.036  0.00  0.00    -0.056 NA
BRANCH  20  27
ATOM     25  C   UNL     1      -0.017   1.379   0.010  0.00  0.00    +0.001 A 
ATOM     26  C   UNL     1       1.168   2.088   0.002  0.00  0.00    +0.012 A 
ATOM     27  C   UNL     1       2.384   1.408  -0.013  0.00  0.00    +0.023 A 
ATOM     28  C   UNL     1       2.397   0.014  -0.021  0.00  0.00    +0.024 A 
ATOM     29  C   UNL     1       1.206  -0.684  -0.013  0.00  0.00    +0.055 A 
ATOM     30  C   UNL     1       0.002  -0.004   0.002  0.00  0.00    +0.012 A 
BRANCH  29  31
ATOM     31  C   UNL     1       1.219  -2.191  -0.022  0.00  0.00    +0.417 C 
ATOM     32  F   UNL     1       1.236  -2.665   1.294  0.00  0.00    -0.166 F 
ATOM     33  F   UNL     1       0.074  -2.663  -0.673  0.00  0.00    -0.166 F 
ATOM     34  F   UNL     1       2.359  -2.644  -0.695  0.00  0.00    -0.166 F 
ENDBRANCH  29  31
ENDBRANCH  20  27
ENDBRANCH  19  22
ENDBRANCH   1  19
TORSDOF 8
