REMARK  Name = ZINC08741282
REMARK  4 active torsions:
REMARK  status: ('A' for Active; 'I' for Inactive)
REMARK    1  A    between atoms: C_1  and  C_2
REMARK    2  A    between atoms: C_12  and  C_13
REMARK    3  A    between atoms: C_15  and  O_22
REMARK    4  A    between atoms: C_17  and  O_21
REMARK                            x       y       z     vdW  Elec       q    Type
REMARK                         _______ _______ _______ _____ _____    ______ ____
ROOT
ATOM      1  C   UNL     1      -2.434  -0.310  -0.614  0.00  0.00    +0.045 C 
ATOM      2  C   UNL     1      -2.463   1.147  -0.232  0.00  0.00    -0.026 A 
ATOM      3  C   UNL     1      -1.274   1.902  -0.161  0.00  0.00    +0.022 A 
ATOM      4  C   UNL     1      -0.037   1.298  -0.434  0.00  0.00    +0.017 A 
ATOM      5  C   UNL     1       1.117   2.030  -0.391  0.00  0.00    -0.025 A 
ATOM      6  C   UNL     1       1.077   3.397  -0.089  0.00  0.00    +0.040 A 
ATOM      7  C   UNL     1      -0.135   4.001   0.228  0.00  0.00    +0.017 A 
ATOM      8  C   UNL     1      -1.317   3.263   0.190  0.00  0.00    +0.144 A 
ATOM      9  O   UNL     1      -2.477   3.884   0.487  0.00  0.00    -0.421 OA
ATOM     10  C   UNL     1      -3.634   3.214   0.429  0.00  0.00    +0.345 A 
ATOM     11  O   UNL     1      -4.673   3.789   0.695  0.00  0.00    -0.245 OA
ATOM     12  C   UNL     1      -3.670   1.790   0.062  0.00  0.00    +0.064 A 
ATOM     13  C   UNL     1      -0.259   5.447   0.620  0.00  0.00    +0.042 C 
ATOM     14  C   UNL     1       1.087   6.154   0.648  0.00  0.00    +0.024 C 
ATOM     15  C   UNL     1       1.996   5.554  -0.425  0.00  0.00    +0.105 C 
ATOM     16  N   UNL     1       2.244   4.144  -0.097  0.00  0.00    -0.329 N 
ATOM     17  C   UNL     1       3.251   3.592  -1.011  0.00  0.00    +0.105 C 
ATOM     18  C   UNL     1       3.619   2.184  -0.544  0.00  0.00    +0.024 C 
ATOM     19  C   UNL     1       2.397   1.284  -0.652  0.00  0.00    +0.038 C 
ENDROOT
BRANCH  12  20
ATOM     20  C   UNL     1      -4.891   1.091   0.009  0.00  0.00    +0.033 C 
ATOM     21  C   UNL     1      -5.874   1.474  -0.902  0.00  0.00    +0.101 C 
ATOM     22  C   UNL     1      -5.622   2.462  -1.892  0.00  0.00    +0.229 C 
ATOM     23  N   UNL     1      -6.592   2.781  -2.733  0.00  0.00    -0.161 NA
ATOM     24  C   UNL     1      -7.790   2.216  -2.672  0.00  0.00    +0.311 C 
ATOM     25  N   UNL     1      -8.113   1.296  -1.784  0.00  0.00    -0.123 NA
ATOM     26  C   UNL     1      -7.223   0.875  -0.876  0.00  0.00    +0.277 C 
ATOM     27  O   UNL     1      -7.518   0.024  -0.051  0.00  0.00    -0.268 OA
BRANCH  24  28
ATOM     28  O   UNL     1      -8.729   2.604  -3.565  0.00  0.00    -0.480 OA
ATOM     29  H   UNL     1      -9.578   2.152  -3.464  0.00  0.00    +0.295 HD
ENDBRANCH  24  28
BRANCH  22  30
ATOM     30  O   UNL     1      -4.413   3.061  -1.976  0.00  0.00    -0.492 OA
ATOM     31  H   UNL     1      -4.348   3.717  -2.683  0.00  0.00    +0.294 HD
ENDBRANCH  22  30
ENDBRANCH  12  20
TORSDOF 3
