REMARK  Name = ZINC05346297
REMARK  2 active torsions:
REMARK  status: ('A' for Active; 'I' for Inactive)
REMARK    1  A    between atoms: C_3  and  N_24
REMARK    2  A    between atoms: C_6  and  C_7
REMARK                            x       y       z     vdW  Elec       q    Type
REMARK                         _______ _______ _______ _____ _____    ______ ____
ROOT
ATOM      1  C   UNL     1      -3.303   2.358   0.034  0.00  0.00    +0.182 A 
ATOM      2  N   UNL     1      -2.530   3.449   0.043  0.00  0.00    -0.206 NA
ATOM      3  C   UNL     1      -1.263   3.088   0.027  0.00  0.00    +0.168 A 
ATOM      4  C   UNL     1       0.006   3.843   0.015  0.00  0.00    +0.055 A 
ATOM      5  C   UNL     1       0.208   5.292   0.016  0.00  0.00    -0.024 A 
ATOM      6  C   UNL     1       1.487   5.726   0.006  0.00  0.00    -0.004 A 
ATOM      7  S   UNL     1       2.475   4.253   0.005  0.00  0.00    -0.073 S 
ATOM      8  C   UNL     1       1.166   3.054   0.005  0.00  0.00    +0.114 A 
ATOM      9  N   UNL     1       1.117   1.727   0.001  0.00  0.00    -0.228 NA
ATOM     10  C   UNL     1      -0.013   1.076   0.008  0.00  0.00    +0.226 A 
ATOM     11  N   UNL     1      -1.209   1.723   0.017  0.00  0.00    -0.201 N 
ATOM     12  N   UNL     1      -2.540   1.282   0.026  0.00  0.00    -0.143 NA
ATOM     13  C   UNL     1       1.976   7.141  -0.009  0.00  0.00    +0.043 C 
ATOM     14  C   UNL     1       1.250   7.940   1.081  0.00  0.00    +0.005 C 
ATOM     15  C   UNL     1      -0.020   8.530   0.477  0.00  0.00    +0.001 C 
ATOM     16  C   UNL     1      -0.584   7.586  -0.583  0.00  0.00    +0.005 C 
ATOM     17  C   UNL     1      -0.977   6.253   0.043  0.00  0.00    +0.037 C 
ENDROOT
BRANCH   1  23
ATOM     18  C   UNL     1      -5.485   3.565   0.061  0.00  0.00    +0.013 A 
ATOM     19  C   UNL     1      -6.863   3.563   0.066  0.00  0.00    +0.023 A 
ATOM     20  C   UNL     1      -7.557   2.358   0.067  0.00  0.00    +0.025 A 
ATOM     21  C   UNL     1      -6.863   1.153   0.059  0.00  0.00    +0.023 A 
ATOM     22  C   UNL     1      -5.485   1.151   0.048  0.00  0.00    +0.013 A 
ATOM     23  C   UNL     1      -4.787   2.358   0.046  0.00  0.00    +0.021 A 
BRANCH  20  24
ATOM     24  N   UNL     1      -8.952   2.358   0.078  0.00  0.00    -0.358 N 
ATOM     25  H   UNL     1      -9.437   1.518   0.080  0.00  0.00    +0.142 HD
ATOM     26  H   UNL     1      -9.437   3.198   0.084  0.00  0.00    +0.142 HD
ENDBRANCH  20  24
ENDBRANCH   1  23
TORSDOF 2
