REMARK  Name = ZINC17197194
REMARK  9 active torsions:
REMARK  status: ('A' for Active; 'I' for Inactive)
REMARK    1  A    between atoms: C_4  and  C_7
REMARK    2  A    between atoms: C_7  and  C_9
REMARK    3  A    between atoms: C_7  and  C_11
REMARK    4  A    between atoms: C_11  and  C_21
REMARK    5  A    between atoms: N_12  and  N_13
REMARK    6  A    between atoms: N_19  and  N_20
REMARK    7  A    between atoms: C_21  and  C_23
REMARK    8  A    between atoms: C_23  and  C_25
REMARK    9  A    between atoms: C_23  and  C_27
REMARK                            x       y       z     vdW  Elec       q    Type
REMARK                         _______ _______ _______ _____ _____    ______ ____
ROOT
ATOM      1  C   UNL     1       0.018   0.030  -0.042  0.00  0.00    +0.124 C 
ATOM      2  N   UNL     1      -0.842  -0.491   0.790  0.00  0.00    -0.179 NA
ENDROOT
BRANCH   2   3
ATOM      3  N   UNL     1      -0.459  -1.552   1.621  0.00  0.00    -0.204 N 
ATOM      4  C   UNL     1      -1.390  -2.171   2.416  0.00  0.00    +0.252 A 
ATOM      5  N   UNL     1      -2.668  -1.859   2.492  0.00  0.00    -0.184 NA
ATOM      6  C   UNL     1      -3.285  -2.668   3.362  0.00  0.00    +0.223 A 
ATOM      7  S   UNL     1      -4.948  -2.618   3.765  0.00  0.00    -0.007 SA
ATOM      8  N   UNL     1      -2.377  -3.525   3.872  0.00  0.00    -0.122 NA
ATOM      9  N   UNL     1      -1.148  -3.213   3.267  0.00  0.00    -0.149 N 
ATOM     10  H   UNL     1       0.588  -1.888   1.635  0.00  0.00    +0.178 HD
BRANCH   9  11
ATOM     11  N   UNL     1       0.052  -3.828   3.486  0.00  0.00    -0.279 N 
ATOM     12  H   UNL     1       0.120  -4.661   4.201  0.00  0.00    +0.164 HD
ATOM     13  H   UNL     1       0.950  -3.490   2.948  0.00  0.00    +0.164 HD
ENDBRANCH   9  11
ENDBRANCH   2   3
BRANCH   1  14
ATOM     14  C   UNL     1      -0.329   1.176  -0.792  0.00  0.00    +0.201 C 
ATOM     15  O   UNL     1       0.471   1.661  -1.565  0.00  0.00    -0.289 OA
BRANCH  14  16
ATOM     16  C   UNL     1      -1.695   1.794  -0.635  0.00  0.00    +0.193 C 
BRANCH  16  17
ATOM     17  C   UNL     1      -2.103   2.445  -1.932  0.00  0.00    -0.023 A 
ATOM     18  C   UNL     1      -1.338   3.468  -2.462  0.00  0.00    +0.005 A 
ATOM     19  C   UNL     1      -1.710   4.063  -3.653  0.00  0.00    +0.000 A 
ATOM     20  C   UNL     1      -2.851   3.642  -4.309  0.00  0.00    +0.000 A 
ATOM     21  C   UNL     1      -3.619   2.623  -3.776  0.00  0.00    +0.000 A 
ATOM     22  C   UNL     1      -3.245   2.025  -2.587  0.00  0.00    +0.005 A 
ENDBRANCH  16  17
BRANCH  16  23
ATOM     23  C   UNL     1      -1.657   2.806   0.432  0.00  0.00    +0.079 C 
ATOM     24  N   UNL     1      -1.627   3.587   1.256  0.00  0.00    -0.195 NA
ENDBRANCH  16  23
ENDBRANCH  14  16
ENDBRANCH   1  14
BRANCH   1  25
ATOM     25  C   UNL     1       1.382  -0.591  -0.203  0.00  0.00    +0.175 C 
BRANCH  25  29
ATOM     26  C   UNL     1       1.523  -2.788  -3.863  0.00  0.00    +0.000 A 
ATOM     27  C   UNL     1       1.740  -3.434  -2.661  0.00  0.00    +0.000 A 
ATOM     28  C   UNL     1       1.694  -2.723  -1.476  0.00  0.00    +0.005 A 
ATOM     29  C   UNL     1       1.432  -1.366  -1.494  0.00  0.00    -0.025 A 
ATOM     30  C   UNL     1       1.210  -0.721  -2.696  0.00  0.00    +0.005 A 
ATOM     31  C   UNL     1       1.260  -1.431  -3.881  0.00  0.00    +0.000 A 
ENDBRANCH  25  29
BRANCH  25  32
ATOM     32  C   UNL     1       2.404   0.468  -0.226  0.00  0.00    +0.077 C 
ATOM     33  N   UNL     1       3.192   1.286  -0.244  0.00  0.00    -0.196 NA
ENDBRANCH  25  32
ENDBRANCH   1  25
TORSDOF 9
