REMARK  Name = ZINC40811712
REMARK  5 active torsions:
REMARK  status: ('A' for Active; 'I' for Inactive)
REMARK    1  A    between atoms: C_1  and  C_2
REMARK    2  A    between atoms: C_9  and  C_11
REMARK    3  A    between atoms: C_12  and  C_31
REMARK    4  A    between atoms: N_20  and  N_21
REMARK    5  A    between atoms: C_22  and  C_24
REMARK                            x       y       z     vdW  Elec       q    Type
REMARK                         _______ _______ _______ _____ _____    ______ ____
ROOT
ATOM      1  C   UNL     1      -0.129  -6.298  -0.953  0.00  0.00    +0.193 A 
ATOM      2  C   UNL     1      -0.226  -7.138  -2.027  0.00  0.00    +0.009 A 
ATOM      3  C   UNL     1      -0.287  -8.436  -1.505  0.00  0.00    +0.042 A 
ATOM      4  C   UNL     1      -0.227  -8.332  -0.135  0.00  0.00    +0.115 A 
ATOM      5  O   UNL     1      -0.125  -7.042   0.176  0.00  0.00    -0.454 OA
ATOM      6  C   UNL     1      -0.272  -9.529   0.781  0.00  0.00    +0.075 C 
ATOM      7  C   UNL     1      -0.891 -10.716   0.037  0.00  0.00    +0.014 C 
ATOM      8  C   UNL     1      -0.168 -10.957  -1.292  0.00  0.00    +0.058 C 
ATOM      9  C   UNL     1      -0.394  -9.746  -2.185  0.00  0.00    +0.070 C 
ATOM     10  N   UNL     1      -0.662  -9.853  -3.450  0.00  0.00    -0.184 NA
ATOM     11  C   UNL     1      -0.260  -6.746  -3.482  0.00  0.00    +0.048 C 
ENDROOT
BRANCH   1  20
ATOM     12  C   UNL     1      -0.026   1.495  -0.184  0.00  0.00    +0.045 C 
ATOM     13  C   UNL     1      -0.004  -0.007  -0.065  0.00  0.00    -0.032 A 
ATOM     14  C   UNL     1       0.010  -0.610   1.186  0.00  0.00    +0.008 A 
ATOM     15  C   UNL     1       0.031  -1.992   1.251  0.00  0.00    +0.044 A 
ATOM     16  C   UNL     1       0.037  -2.725   0.070  0.00  0.00    +0.125 A 
ATOM     17  N   UNL     1       0.024  -2.113  -1.104  0.00  0.00    -0.240 NA
ATOM     18  C   UNL     1      -0.002  -0.797  -1.197  0.00  0.00    +0.116 A 
ATOM     19  N   UNL     1       0.058  -4.117   0.121  0.00  0.00    -0.264 N 
ATOM     20  C   UNL     1      -0.039  -4.835  -1.015  0.00  0.00    +0.285 C 
ATOM     21  O   UNL     1      -0.052  -4.270  -2.093  0.00  0.00    -0.266 OA
ATOM     22  H   UNL     1       0.143  -4.569   0.975  0.00  0.00    +0.157 HD
ENDBRANCH   1  20
BRANCH  10  23
ATOM     23  N   UNL     1      -0.752 -11.120  -4.041  0.00  0.00    -0.203 N 
ATOM     24  C   UNL     1      -1.030 -11.232  -5.355  0.00  0.00    +0.263 C 
ATOM     25  O   UNL     1      -1.204 -10.234  -6.027  0.00  0.00    -0.268 OA
ATOM     26  H   UNL     1      -0.614 -11.917  -3.505  0.00  0.00    +0.178 HD
BRANCH  24  27
ATOM     27  C   UNL     1      -1.125 -12.568  -5.979  0.00  0.00    +0.038 A 
ATOM     28  C   UNL     1      -0.932 -13.717  -5.209  0.00  0.00    +0.014 A 
ATOM     29  C   UNL     1      -1.021 -14.961  -5.797  0.00  0.00    +0.021 A 
ATOM     30  C   UNL     1      -1.301 -15.072  -7.149  0.00  0.00    +0.041 A 
ATOM     31  C   UNL     1      -1.494 -13.937  -7.918  0.00  0.00    +0.021 A 
ATOM     32  C   UNL     1      -1.413 -12.687  -7.340  0.00  0.00    +0.014 A 
ATOM     33 CL   UNL     1      -1.411 -16.642  -7.882  0.00  0.00    -0.084 Cl
ENDBRANCH  24  27
ENDBRANCH  10  23
TORSDOF 3
