REMARK  Name = ZINC12570614
REMARK  10 active torsions:
REMARK  status: ('A' for Active; 'I' for Inactive)
REMARK    1  A    between atoms: C_1  and  O_2
REMARK    2  A    between atoms: O_2  and  C_3
REMARK    3  A    between atoms: C_6  and  C_10
REMARK    4  A    between atoms: C_7  and  O_9
REMARK    5  A    between atoms: C_10  and  N_58
REMARK    6  A    between atoms: C_17  and  C_22
REMARK    7  A    between atoms: C_19  and  O_20
REMARK    8  A    between atoms: O_20  and  C_21
REMARK    9  A    between atoms: C_25  and  S_28
REMARK   10  A    between atoms: S_28  and  C_29
REMARK                            x       y       z     vdW  Elec       q    Type
REMARK                         _______ _______ _______ _____ _____    ______ ____
ROOT
ATOM      1  C   UNL     1       0.259   1.529   0.022  0.00  0.00    -0.036 C 
ATOM      2  C   UNL     1      -0.275   2.222   1.257  0.00  0.00    +0.211 C 
ATOM      3  O   UNL     1      -1.547   1.686   1.633  0.00  0.00    -0.490 OA
ATOM      4  C   UNL     1      -2.621   2.240   1.005  0.00  0.00    +0.163 A 
ATOM      5  C   UNL     1      -2.816   2.025  -0.346  0.00  0.00    -0.018 A 
ATOM      6  C   UNL     1      -3.865   2.625  -1.008  0.00  0.00    +0.014 A 
ATOM      7  C   UNL     1      -4.747   3.447  -0.304  0.00  0.00    -0.014 A 
ATOM      8  C   UNL     1      -4.563   3.653   1.062  0.00  0.00    +0.058 A 
ATOM      9  C   UNL     1      -3.502   3.051   1.717  0.00  0.00    +0.162 A 
ATOM     10  C   UNL     1      -1.864   1.115  -1.098  0.00  0.00    -0.039 C 
ATOM     11  N   UNL     1      -0.553   1.801  -1.184  0.00  0.00    +0.387 N 
ATOM     12  H   UNL     1      -0.715   2.812  -1.252  0.00  0.00    -0.081 HD
ENDROOT
BRANCH   7  13
ATOM     13  C   UNL     1      -5.878   4.098  -1.008  0.00  0.00    -0.018 A 
ATOM     14  C   UNL     1      -6.058   3.896  -2.376  0.00  0.00    +0.009 A 
ATOM     15  C   UNL     1      -7.112   4.499  -3.028  0.00  0.00    +0.015 A 
ATOM     16  C   UNL     1      -7.990   5.317  -2.324  0.00  0.00    +0.008 A 
ATOM     17  C   UNL     1      -7.809   5.524  -0.961  0.00  0.00    +0.015 A 
ATOM     18  C   UNL     1      -6.758   4.919  -0.305  0.00  0.00    +0.009 A 
BRANCH  16  19
ATOM     19  S   UNL     1      -9.333   6.092  -3.161  0.00  0.00    -0.129 S 
ATOM     20  C   UNL     1      -9.160   5.535  -4.879  0.00  0.00    +0.090 C 
ENDBRANCH  16  19
ENDBRANCH   7  13
BRANCH   9  21
ATOM     21  O   UNL     1      -3.322   3.249   3.050  0.00  0.00    -0.491 OA
ATOM     22  C   UNL     1      -4.266   4.092   3.714  0.00  0.00    +0.277 C 
ENDBRANCH   9  21
BRANCH  11  23
ATOM     23  C   UNL     1       0.171   1.353  -2.384  0.00  0.00    -0.039 C 
BRANCH  23  27
ATOM     24  C   UNL     1      -1.727   3.057  -5.817  0.00  0.00    +0.124 A 
ATOM     25  C   UNL     1      -1.879   1.707  -5.534  0.00  0.00    +0.046 A 
ATOM     26  C   UNL     1      -1.260   1.158  -4.427  0.00  0.00    +0.009 A 
ATOM     27  C   UNL     1      -0.497   1.954  -3.594  0.00  0.00    -0.022 A 
ATOM     28  C   UNL     1      -0.342   3.304  -3.873  0.00  0.00    +0.122 A 
ATOM     29  C   UNL     1      -0.958   3.856  -4.986  0.00  0.00    +0.091 A 
BRANCH  24  31
ATOM     30  C   UNL     1      -3.109   2.713  -7.721  0.00  0.00    +0.277 C 
ATOM     31  O   UNL     1      -2.331   3.595  -6.909  0.00  0.00    -0.495 OA
ENDBRANCH  24  31
BRANCH  28  32
ATOM     32  O   UNL     1       0.413   4.085  -3.055  0.00  0.00    -0.506 OA
ATOM     33  H   UNL     1       1.346   4.128  -3.305  0.00  0.00    +0.292 HD
ENDBRANCH  28  32
ENDBRANCH  23  27
ENDBRANCH  11  23
TORSDOF 7
