REMARK  Name = ZINC35758639
REMARK  6 active torsions:
REMARK  status: ('A' for Active; 'I' for Inactive)
REMARK    1  A    between atoms: C_4  and  C_7
REMARK    2  A    between atoms: C_10  and  C_12
REMARK    3  A    between atoms: N_22  and  C_31
REMARK    4  A    between atoms: N_24  and  C_25
REMARK    5  A    between atoms: C_31  and  C_32
REMARK    6  A    between atoms: N_34  and  C_35
REMARK                            x       y       z     vdW  Elec       q    Type
REMARK                         _______ _______ _______ _____ _____    ______ ____
ROOT
ATOM      1  C   UNL     1       5.349  -1.784   1.601  0.00  0.00    +0.219 C 
ATOM      2  O   UNL     1       6.195  -1.116   1.045  0.00  0.00    -0.275 OA
ATOM      3  N   UNL     1       5.692  -2.592   2.623  0.00  0.00    -0.301 N 
ATOM      4  C   UNL     1       4.679  -3.411   3.303  0.00  0.00    +0.110 C 
ATOM      5  C   UNL     1       4.744  -3.127   4.807  0.00  0.00    +0.054 C 
ATOM      6  C   UNL     1       6.173  -3.345   5.303  0.00  0.00    +0.115 C 
ATOM      7  C   UNL     1       7.131  -2.394   4.584  0.00  0.00    +0.054 C 
ATOM      8  C   UNL     1       7.088  -2.676   3.074  0.00  0.00    +0.110 C 
ATOM      9  C   UNL     1       6.244  -3.122   6.791  0.00  0.00    +0.241 C 
ATOM     10  O   UNL     1       5.978  -2.084   7.360  0.00  0.00    -0.273 OA
ATOM     11  N   UNL     1       6.648  -4.256   7.387  0.00  0.00    -0.275 N 
ATOM     12  C   UNL     1       6.875  -5.300   6.388  0.00  0.00    +0.217 C 
ATOM     13  N   UNL     1       6.579  -4.736   5.065  0.00  0.00    -0.300 N 
ENDROOT
BRANCH  13  14
ATOM     14  C   UNL     1       6.663  -5.389   3.833  0.00  0.00    +0.032 A 
ATOM     15  C   UNL     1       7.135  -6.694   3.768  0.00  0.00    +0.023 A 
ATOM     16  C   UNL     1       7.217  -7.337   2.549  0.00  0.00    +0.002 A 
ATOM     17  C   UNL     1       6.831  -6.683   1.393  0.00  0.00    +0.000 A 
ATOM     18  C   UNL     1       6.361  -5.384   1.454  0.00  0.00    +0.002 A 
ATOM     19  C   UNL     1       6.271  -4.737   2.671  0.00  0.00    +0.023 A 
ENDBRANCH  13  14
BRANCH   1  22
ATOM     20  C   UNL     1       3.586  -0.772  -0.015  0.00  0.00    +0.032 C 
ATOM     21  C   UNL     1       3.573  -2.287  -0.226  0.00  0.00    +0.022 C 
ATOM     22  C   UNL     1       3.913  -1.708   1.150  0.00  0.00    +0.083 C 
BRANCH  20  26
ATOM     23  C   UNL     1      -0.180   1.241   0.066  0.00  0.00    +0.000 A 
ATOM     24  C   UNL     1       0.993   1.972   0.045  0.00  0.00    +0.000 A 
ATOM     25  C   UNL     1       2.212   1.320   0.019  0.00  0.00    +0.004 A 
ATOM     26  C   UNL     1       2.258  -0.061   0.014  0.00  0.00    -0.044 A 
ATOM     27  C   UNL     1       1.084  -0.792   0.035  0.00  0.00    +0.004 A 
ATOM     28  C   UNL     1      -0.135  -0.140   0.060  0.00  0.00    +0.000 A 
ENDBRANCH  20  26
ENDBRANCH   1  22
BRANCH  11  29
ATOM     29  C   UNL     1       6.834  -4.423   8.830  0.00  0.00    +0.205 C 
BRANCH  29  30
ATOM     30  C   UNL     1       5.545  -4.896   9.451  0.00  0.00    +0.235 C 
ATOM     31  O   UNL     1       4.567  -5.076   8.757  0.00  0.00    -0.274 OA
ATOM     32  N   UNL     1       5.479  -5.120  10.779  0.00  0.00    -0.284 N 
ATOM     33  H   UNL     1       6.238  -4.907  11.345  0.00  0.00    +0.155 HD
BRANCH  32  34
ATOM     34  C   UNL     1       4.316  -5.659  11.341  0.00  0.00    +0.034 A 
ATOM     35  C   UNL     1       3.903  -5.256  12.604  0.00  0.00    +0.026 A 
ATOM     36  C   UNL     1       2.755  -5.789  13.157  0.00  0.00    +0.040 A 
ATOM     37  C   UNL     1       2.016  -6.724  12.453  0.00  0.00    +0.124 A 
ATOM     38  C   UNL     1       2.426  -7.127  11.194  0.00  0.00    +0.040 A 
ATOM     39  C   UNL     1       3.570  -6.593  10.634  0.00  0.00    +0.026 A 
ATOM     40  F   UNL     1       0.894  -7.245  12.996  0.00  0.00    -0.205 F 
ENDBRANCH  32  34
ENDBRANCH  29  30
ENDBRANCH  11  29
TORSDOF 6
