REMARK  Name = ZINC38710155
REMARK  3 active torsions:
REMARK  status: ('A' for Active; 'I' for Inactive)
REMARK    1  A    between atoms: C_1  and  C_2
REMARK    2  A    between atoms: C_4  and  C_17
REMARK    3  A    between atoms: C_20  and  O_24
REMARK                            x       y       z     vdW  Elec       q    Type
REMARK                         _______ _______ _______ _____ _____    ______ ____
ROOT
ATOM      1  C   UNL     1      -0.018   1.503   0.010  0.00  0.00    +0.067 C 
ATOM      2  C   UNL     1       0.002  -0.004   0.002  0.00  0.00    +0.064 C 
ATOM      3  C   UNL     1      -1.065  -0.769   0.003  0.00  0.00    +0.009 C 
ATOM      4  C   UNL     1      -2.537  -0.469  -0.129  0.00  0.00    +0.089 C 
ATOM      5  C   UNL     1      -3.057  -1.515  -1.103  0.00  0.00    +0.068 C 
ATOM      6  C   UNL     1      -2.323  -2.578  -1.515  0.00  0.00    +0.055 C 
ATOM      7  C   UNL     1      -3.201  -3.356  -2.461  0.00  0.00    +0.283 C 
ATOM      8  O   UNL     1      -4.436  -2.627  -2.515  0.00  0.00    -0.455 OA
ATOM      9  C   UNL     1      -4.320  -1.552  -1.709  0.00  0.00    +0.338 C 
ATOM     10  O   UNL     1      -5.196  -0.725  -1.531  0.00  0.00    -0.245 OA
ATOM     11  N   UNL     1      -1.038  -2.871  -1.139  0.00  0.00    -0.318 N 
ATOM     12  C   UNL     1      -0.528  -2.198   0.068  0.00  0.00    +0.241 C 
ATOM     13  N   UNL     1       0.921  -1.985   0.001  0.00  0.00    -0.160 NA
ATOM     14  N   UNL     1       1.126  -0.764  -0.013  0.00  0.00    -0.157 NA
ATOM     15  H   UNL     1      -0.490  -3.493  -1.644  0.00  0.00    +0.148 HD
ENDROOT
BRANCH   4  16
ATOM     16  C   UNL     1      -3.221  -0.604   1.207  0.00  0.00    -0.033 A 
ATOM     17  C   UNL     1      -3.194  -1.813   1.877  0.00  0.00    +0.023 A 
ATOM     18  C   UNL     1      -3.822  -1.940   3.103  0.00  0.00    +0.061 A 
ATOM     19  C   UNL     1      -4.479  -0.853   3.660  0.00  0.00    +0.145 A 
ATOM     20  C   UNL     1      -4.505   0.360   2.985  0.00  0.00    +0.061 A 
ATOM     21  C   UNL     1      -3.871   0.482   1.763  0.00  0.00    +0.023 A 
ATOM     22 BR   UNL     1      -5.400   1.844   3.740  0.00  0.00    -0.046 Br
ATOM     23 BR   UNL     1      -3.784  -3.595   4.018  0.00  0.00    -0.046 Br
BRANCH  19  24
ATOM     24  O   UNL     1      -5.098  -0.975   4.864  0.00  0.00    -0.505 OA
ATOM     25  H   UNL     1      -4.531  -0.768   5.620  0.00  0.00    +0.292 HD
ENDBRANCH  19  24
ENDBRANCH   4  16
TORSDOF 2
