REMARK  Name = ZINC40327378
REMARK  11 active torsions:
REMARK  status: ('A' for Active; 'I' for Inactive)
REMARK    1  A    between atoms: C_1  and  C_2
REMARK    2  A    between atoms: C_4  and  C_13
REMARK    3  A    between atoms: C_5  and  C_7
REMARK    4  A    between atoms: N_15  and  C_16
REMARK    5  A    between atoms: C_16  and  C_17
REMARK    6  A    between atoms: C_17  and  C_19
REMARK    7  A    between atoms: C_17  and  N_29
REMARK    8  A    between atoms: C_22  and  O_27
REMARK    9  A    between atoms: C_23  and  O_25
REMARK   10  A    between atoms: O_25  and  C_26
REMARK   11  A    between atoms: O_27  and  C_28
REMARK                            x       y       z     vdW  Elec       q    Type
REMARK                         _______ _______ _______ _____ _____    ______ ____
ROOT
ATOM      1  C   UNL     1      -0.274  -2.113  -5.099  0.00  0.00    -0.020 C 
ENDROOT
BRANCH   1   2
ATOM      2  N   UNL     1       0.794  -1.109  -4.995  0.00  0.00    +0.385 N 
ATOM      3  C   UNL     1       0.763  -0.525  -3.640  0.00  0.00    -0.078 C 
ATOM      4  C   UNL     1       2.138   0.008  -3.323  0.00  0.00    -0.019 C 
ATOM      5  C   UNL     1       2.240   1.515  -3.624  0.00  0.00    -0.002 C 
ATOM      6  C   UNL     1       1.521   1.887  -4.936  0.00  0.00    -0.002 C 
ATOM      7  C   UNL     1       1.760   0.876  -6.028  0.00  0.00    -0.019 C 
ATOM      8  C   UNL     1       0.622  -0.165  -6.009  0.00  0.00    -0.078 C 
ATOM      9  H   UNL     1       1.683  -1.568  -5.128  0.00  0.00    -0.081 HD
ENDBRANCH   1   2
BRANCH   1  10
ATOM     10  C   UNL     1      -0.250  -2.730  -6.474  0.00  0.00    -0.056 A 
ATOM     11  C   UNL     1       0.958  -3.027  -7.077  0.00  0.00    +0.006 A 
ATOM     12  C   UNL     1       0.985  -3.593  -8.338  0.00  0.00    +0.049 A 
ATOM     13  C   UNL     1      -0.202  -3.863  -9.001  0.00  0.00    +0.161 A 
ATOM     14  C   UNL     1      -1.418  -3.564  -8.395  0.00  0.00    +0.162 A 
ATOM     15  C   UNL     1      -1.438  -3.002  -7.128  0.00  0.00    +0.051 A 
BRANCH  14  16
ATOM     16  O   UNL     1      -2.585  -3.828  -9.041  0.00  0.00    -0.491 OA
ATOM     17  C   UNL     1      -3.795  -3.495  -8.358  0.00  0.00    +0.277 C 
ENDBRANCH  14  16
BRANCH  13  18
ATOM     18  O   UNL     1      -0.177  -4.419 -10.242  0.00  0.00    -0.491 OA
ATOM     19  C   UNL     1       1.107  -4.699 -10.802  0.00  0.00    +0.277 C 
ENDBRANCH  13  18
ENDBRANCH   1  10
BRANCH   1  20
ATOM     20  C   UNL     1      -0.054  -3.203  -4.048  0.00  0.00    +0.094 C 
BRANCH  20  23
ATOM     21  C   UNL     1       1.688  -4.785  -3.418  0.00  0.00    +0.264 C 
ATOM     22  O   UNL     1       0.916  -5.270  -2.613  0.00  0.00    -0.268 OA
ATOM     23  N   UNL     1       1.299  -3.748  -4.185  0.00  0.00    -0.311 N 
ATOM     24  H   UNL     1       1.915  -3.361  -4.827  0.00  0.00    +0.149 HD
BRANCH  21  28
ATOM     25  C   UNL     1       6.295  -4.756  -5.306  0.00  0.00    +0.073 C 
ATOM     26  C   UNL     1       5.158  -5.269  -4.459  0.00  0.00    +0.077 A 
ATOM     27  N   UNL     1       3.956  -4.775  -4.345  0.00  0.00    -0.239 NA
ATOM     28  C   UNL     1       3.046  -5.332  -3.556  0.00  0.00    +0.140 A 
ATOM     29  C   UNL     1       3.464  -6.474  -2.863  0.00  0.00    +0.051 A 
ATOM     30  S   UNL     1       5.145  -6.613  -3.448  0.00  0.00    -0.072 S 
BRANCH  29  31
ATOM     31  C   UNL     1       2.720  -7.328  -1.915  0.00  0.00    -0.009 A 
ATOM     32  C   UNL     1       1.518  -7.923  -2.303  0.00  0.00    +0.009 A 
ATOM     33  C   UNL     1       0.828  -8.720  -1.413  0.00  0.00    +0.001 A 
ATOM     34  C   UNL     1       1.325  -8.930  -0.138  0.00  0.00    +0.000 A 
ATOM     35  C   UNL     1       2.515  -8.342   0.253  0.00  0.00    +0.001 A 
ATOM     36  C   UNL     1       3.218  -7.548  -0.630  0.00  0.00    +0.009 A 
ENDBRANCH  29  31
ENDBRANCH  21  28
ENDBRANCH  20  23
ENDBRANCH   1  20
TORSDOF 8
