REMARK  Name = ZINC28395388
REMARK  12 active torsions:
REMARK  status: ('A' for Active; 'I' for Inactive)
REMARK    1  A    between atoms: C_1  and  C_2
REMARK    2  A    between atoms: N_9  and  C_10
REMARK    3  A    between atoms: C_10  and  C_11
REMARK    4  A    between atoms: C_11  and  C_12
REMARK    5  A    between atoms: C_12  and  C_13
REMARK    6  A    between atoms: C_13  and  C_14
REMARK    7  A    between atoms: C_14  and  CA_15
REMARK    8  A    between atoms: CA_15  and  C_17
REMARK    9  A    between atoms: CA_15  and  N_20
REMARK   10  A    between atoms: C_22  and  C_24
REMARK   11  A    between atoms: C_27  and  O_30
REMARK   12  A    between atoms: O_30  and  C_31
REMARK                            x       y       z     vdW  Elec       q    Type
REMARK                         _______ _______ _______ _____ _____    ______ ____
ROOT
ATOM      1  C   UNL     1       4.627  -6.656  -8.710  0.00  0.00    +0.044 C 
ATOM      2  C   UNL     1       4.224  -5.881  -7.482  0.00  0.00    -0.050 A 
ATOM      3  C   UNL     1       3.845  -6.557  -6.332  0.00  0.00    +0.007 A 
ATOM      4  C   UNL     1       3.473  -5.863  -5.199  0.00  0.00    +0.047 A 
ATOM      5  C   UNL     1       3.476  -4.475  -5.205  0.00  0.00    +0.138 A 
ATOM      6  C   UNL     1       3.860  -3.793  -6.368  0.00  0.00    +0.041 A 
ATOM      7  C   UNL     1       4.233  -4.502  -7.505  0.00  0.00    +0.017 A 
ATOM      8  C   UNL     1       3.856  -2.312  -6.351  0.00  0.00    +0.050 A 
ATOM      9  N   UNL     1       4.205  -1.614  -7.409  0.00  0.00    -0.384 N 
ATOM     10  C   UNL     1       3.452  -1.675  -5.143  0.00  0.00    +0.072 A 
ATOM     11  C   UNL     1       3.105  -2.433  -4.074  0.00  0.00    +0.138 A 
ATOM     12  O   UNL     1       3.115  -3.777  -4.106  0.00  0.00    -0.455 OA
ATOM     13  H   UNL     1       4.604  -2.125  -8.298  0.00  0.00    +0.160 HD
ENDROOT
BRANCH  11  14
ATOM     14  C   UNL     1       2.696  -1.757  -2.829  0.00  0.00    +0.018 A 
ATOM     15  C   UNL     1       2.327  -2.510  -1.711  0.00  0.00    +0.015 A 
ATOM     16  C   UNL     1       1.945  -1.874  -0.550  0.00  0.00    +0.046 A 
ATOM     17  C   UNL     1       1.926  -0.486  -0.489  0.00  0.00    +0.120 A 
ATOM     18  C   UNL     1       2.287   0.267  -1.600  0.00  0.00    +0.046 A 
ATOM     19  C   UNL     1       2.675  -0.361  -2.763  0.00  0.00    +0.015 A 
BRANCH  17  20
ATOM     20  O   UNL     1       1.549   0.136   0.657  0.00  0.00    -0.495 OA
ATOM     21  C   UNL     1       1.552   1.565   0.650  0.00  0.00    +0.277 C 
ENDBRANCH  17  20
ENDBRANCH  11  14
BRANCH   9  22
ATOM     22  C   UNL     1       4.061  -0.156  -7.405  0.00  0.00    +0.113 C 
BRANCH  22  23
ATOM     23  C   UNL     1       5.444   0.493  -7.479  0.00  0.00    +0.021 C 
BRANCH  23  24
ATOM     24  C   UNL     1       5.294   2.015  -7.475  0.00  0.00    +0.002 C 
BRANCH  24  25
ATOM     25  C   UNL     1       6.678   2.664  -7.548  0.00  0.00    -0.001 C 
BRANCH  25  26
ATOM     26  C   UNL     1       6.527   4.187  -7.544  0.00  0.00    -0.005 C 
BRANCH  26  27
ATOM     27  CA  UNL     1       7.911   4.836  -7.617  0.00  0.00    +0.040 C 
BRANCH  27  28
ATOM     28  N   UNL     1       8.667   4.517  -6.399  0.00  0.00    +0.387 N 
ATOM     29  H1  UNL     1       9.662   4.984  -6.451  0.00  0.00    -0.089 HD
ATOM     30  H2  UNL     1       8.778   3.426  -6.311  0.00  0.00    -0.089 HD
ATOM     31  H3  UNL     1       8.127   4.902  -5.521  0.00  0.00    -0.089 HD
ENDBRANCH  27  28
BRANCH  27  32
ATOM     32  C   UNL     1       7.759   6.331  -7.737  0.00  0.00    +0.342 C 
ATOM     33  O   UNL     1       7.894   7.032  -6.762  0.00  0.00    -0.248 OA
ATOM     34  OXT UNL     1       7.474   6.883  -8.927  0.00  0.00    -0.248 OA
ENDBRANCH  27  32
ENDBRANCH  26  27
ENDBRANCH  25  26
ENDBRANCH  24  25
ENDBRANCH  23  24
ENDBRANCH  22  23
ENDBRANCH   9  22
TORSDOF 10
