REMARK  Name = ZINC65239705
REMARK  2 active torsions:
REMARK  status: ('A' for Active; 'I' for Inactive)
REMARK    1  A    between atoms: C_12  and  C_16
REMARK    2  A    between atoms: N_21  and  C_24
REMARK                            x       y       z     vdW  Elec       q    Type
REMARK                         _______ _______ _______ _____ _____    ______ ____
ROOT
ATOM      1  C   UNL     1       1.160   1.342  -2.199  0.00  0.00    +0.002 A 
ATOM      2  C   UNL     1       1.644   0.529  -3.208  0.00  0.00    +0.002 A 
ATOM      3  C   UNL     1       2.234  -0.684  -2.898  0.00  0.00    +0.029 A 
ATOM      4  C   UNL     1       2.345  -1.076  -1.582  0.00  0.00    +0.115 A 
ATOM      5  C   UNL     1       1.878  -0.255  -0.561  0.00  0.00    +0.059 A 
ATOM      6  C   UNL     1       1.273   0.955  -0.878  0.00  0.00    +0.025 A 
ATOM      7  N   UNL     1       2.044  -0.625   0.779  0.00  0.00    -0.300 N 
ATOM      8  C   UNL     1       1.244  -0.093   1.897  0.00  0.00    +0.111 C 
ATOM      9  C   UNL     1       2.177  -0.170   3.124  0.00  0.00    +0.025 C 
ATOM     10  C   UNL     1       3.128  -1.329   2.754  0.00  0.00    +0.054 C 
ATOM     11  C   UNL     1       2.960  -1.517   1.265  0.00  0.00    +0.041 C 
ATOM     12  C   UNL     1       3.584  -2.470   0.523  0.00  0.00    +0.172 C 
ATOM     13  S   UNL     1       3.071  -2.631  -1.165  0.00  0.00    +0.033 S 
ATOM     14  O   UNL     1       4.251  -2.759  -1.945  0.00  0.00    -0.164 OA
ATOM     15  O   UNL     1       2.026  -3.594  -1.189  0.00  0.00    -0.164 OA
ENDROOT
BRANCH  12  16
ATOM     16  C   UNL     1       4.595  -3.293   1.072  0.00  0.00    +0.266 C 
ATOM     17  O   UNL     1       4.301  -4.359   1.583  0.00  0.00    -0.268 OA
ATOM     18  N   UNL     1       5.883  -2.898   1.030  0.00  0.00    -0.293 N 
ATOM     19  C   UNL     1       6.241  -1.569   0.514  0.00  0.00    +0.127 C 
ATOM     20  C   UNL     1       7.056  -0.832   1.583  0.00  0.00    +0.124 C 
ATOM     21  N   UNL     1       8.128  -1.721   2.054  0.00  0.00    -0.327 N 
ATOM     22  C   UNL     1       7.769  -3.050   2.570  0.00  0.00    +0.124 C 
ATOM     23  C   UNL     1       6.953  -3.785   1.506  0.00  0.00    +0.127 C 
BRANCH  21  24
ATOM     24  C   UNL     1       9.464  -1.311   2.010  0.00  0.00    +0.030 A 
ATOM     25  C   UNL     1      10.476  -2.204   2.335  0.00  0.00    +0.026 A 
ATOM     26  C   UNL     1      11.795  -1.797   2.291  0.00  0.00    +0.040 A 
ATOM     27  C   UNL     1      12.108  -0.499   1.923  0.00  0.00    +0.124 A 
ATOM     28  C   UNL     1      11.101   0.393   1.599  0.00  0.00    +0.040 A 
ATOM     29  C   UNL     1       9.780  -0.012   1.636  0.00  0.00    +0.026 A 
ATOM     30  F   UNL     1      13.399  -0.103   1.881  0.00  0.00    -0.205 F 
ENDBRANCH  21  24
ENDBRANCH  12  16
TORSDOF 2
