REMARK  Name = ZINC06395313
REMARK  5 active torsions:
REMARK  status: ('A' for Active; 'I' for Inactive)
REMARK    1  A    between atoms: C_1  and  C_2
REMARK    2  A    between atoms: C_5  and  C_7
REMARK    3  A    between atoms: C_5  and  O_10
REMARK    4  A    between atoms: C_11  and  C_13
REMARK    5  A    between atoms: C_15  and  C_19
REMARK                            x       y       z     vdW  Elec       q    Type
REMARK                         _______ _______ _______ _____ _____    ______ ____
ROOT
ATOM      1  C   UNL     1      -4.029  -0.398   1.249  0.00  0.00    +0.149 A 
ATOM      2  C   UNL     1      -4.633  -1.674   1.236  0.00  0.00    +0.062 A 
ATOM      3  C   UNL     1      -5.979  -1.439   1.240  0.00  0.00    +0.067 A 
ATOM      4  N   UNL     1      -6.144  -0.085   1.244  0.00  0.00    -0.276 N 
ATOM      5  H   UNL     1      -7.026   0.386   1.243  0.00  0.00    +0.189 HD
ATOM      6  N   UNL     1      -4.998   0.496   1.250  0.00  0.00    -0.169 NA
ENDROOT
BRANCH   1  13
ATOM      7  C   UNL     1      -2.929   4.767   1.275  0.00  0.00    +0.062 C 
ATOM      8  C   UNL     1      -2.302   3.396   1.271  0.00  0.00    +0.039 C 
ATOM      9  N   UNL     1      -2.943   2.300   1.262  0.00  0.00    -0.184 NA
ATOM     10  N   UNL     1      -2.139   1.158   1.261  0.00  0.00    -0.150 N 
ATOM     11  C   UNL     1      -0.729   1.579   1.267  0.00  0.00    +0.222 C 
ATOM     12  C   UNL     1      -0.816   3.119   1.275  0.00  0.00    +0.115 C 
ATOM     13  C   UNL     1      -2.579  -0.117   1.254  0.00  0.00    +0.289 C 
ATOM     14  O   UNL     1      -1.781  -1.034   1.253  0.00  0.00    -0.266 OA
BRANCH  11  15
ATOM     15  C   UNL     1      -0.013   1.086   0.008  0.00  0.00    +0.393 C 
ATOM     16  F   UNL     1       1.300   1.570  -0.002  0.00  0.00    -0.204 F 
ATOM     17  F   UNL     1      -0.689   1.549  -1.125  0.00  0.00    -0.204 F 
ENDBRANCH  11  15
BRANCH  11  18
ATOM     18  O   UNL     1      -0.066   1.105   2.441  0.00  0.00    -0.365 OA
ATOM     19  H   UNL     1      -0.015   0.142   2.502  0.00  0.00    +0.212 HD
ENDBRANCH  11  18
ENDBRANCH   1  13
BRANCH   3  20
ATOM     20  C   UNL     1      -7.053  -2.458   1.233  0.00  0.00    +0.001 A 
ATOM     21  C   UNL     1      -8.392  -2.064   1.230  0.00  0.00    +0.011 A 
ATOM     22  C   UNL     1      -9.389  -3.018   1.222  0.00  0.00    +0.022 A 
ATOM     23  C   UNL     1      -9.063  -4.363   1.219  0.00  0.00    +0.059 A 
ATOM     24  C   UNL     1      -7.736  -4.761   1.222  0.00  0.00    +0.060 A 
ATOM     25  C   UNL     1      -6.730  -3.814   1.223  0.00  0.00    +0.031 A 
ATOM     26 CL   UNL     1      -7.337  -6.450   1.216  0.00  0.00    -0.082 Cl
ATOM     27 CL   UNL     1     -10.323  -5.558   1.211  0.00  0.00    -0.082 Cl
ENDBRANCH   3  20
TORSDOF 4
