REMARK  Name = ZINC20330977
REMARK  11 active torsions:
REMARK  status: ('A' for Active; 'I' for Inactive)
REMARK    1  A    between atoms: C_1  and  C_2
REMARK    2  A    between atoms: C_2  and  C_3
REMARK    3  A    between atoms: C_3  and  C_5
REMARK    4  A    between atoms: C_3  and  C_6
REMARK    5  A    between atoms: C_9  and  O_12
REMARK    6  A    between atoms: O_12  and  C_13
REMARK    7  A    between atoms: C_13  and  C_14
REMARK    8  A    between atoms: C_14  and  O_15
REMARK    9  A    between atoms: O_15  and  C_16
REMARK   10  A    between atoms: C_19  and  C_22
REMARK   11  A    between atoms: C_32  and  C_34
REMARK                            x       y       z     vdW  Elec       q    Type
REMARK                         _______ _______ _______ _____ _____    ______ ____
ROOT
ATOM      1  C   UNL     1      -3.456 -10.181  -0.280  0.00  0.00    +0.121 A 
ATOM      2  C   UNL     1      -2.514 -10.806  -1.091  0.00  0.00    +0.046 A 
ATOM      3  C   UNL     1      -2.220 -12.127  -0.908  0.00  0.00    +0.011 A 
ATOM      4  C   UNL     1      -2.869 -12.854   0.101  0.00  0.00    -0.024 A 
ATOM      5  C   UNL     1      -3.817 -12.218   0.915  0.00  0.00    +0.011 A 
ATOM      6  C   UNL     1      -4.099 -10.895   0.726  0.00  0.00    +0.046 A 
ENDROOT
BRANCH   4   7
ATOM      7  C   UNL     1      -2.558 -14.271   0.302  0.00  0.00    +0.024 C 
ATOM      8  C   UNL     1      -2.527 -14.795   1.575  0.00  0.00    +0.079 C 
ATOM      9  C   UNL     1      -2.397 -16.259   1.818  0.00  0.00    +0.132 C 
ATOM     10  N   UNL     1      -1.717 -17.058   1.040  0.00  0.00    -0.385 N 
ATOM     11  N   UNL     1      -3.081 -16.698   2.972  0.00  0.00    -0.153 N 
ATOM     12  C   UNL     1      -3.334 -15.766   3.956  0.00  0.00    +0.181 C 
ATOM     13  N   UNL     1      -3.098 -14.478   3.914  0.00  0.00    -0.152 NA
ATOM     14  C   UNL     1      -2.616 -13.931   2.778  0.00  0.00    +0.273 C 
ATOM     15  O   UNL     1      -2.268 -12.762   2.739  0.00  0.00    -0.268 OA
ATOM     16  S   UNL     1      -4.059 -16.757   5.235  0.00  0.00    -0.033 S 
ATOM     17  C   UNL     1      -4.073 -18.310   4.350  0.00  0.00    +0.131 C 
ATOM     18  N   UNL     1      -3.513 -17.986   3.210  0.00  0.00    -0.164 NA
ATOM     19  H   UNL     1      -1.264 -16.704   0.258  0.00  0.00    +0.157 HD
ATOM     20  H   UNL     1      -1.664 -18.005   1.244  0.00  0.00    +0.157 HD
BRANCH  17  21
ATOM     21  C   UNL     1      -4.586 -19.626   4.792  0.00  0.00    +0.027 A 
ATOM     22  C   UNL     1      -5.164 -19.776   6.058  0.00  0.00    +0.013 A 
ATOM     23  C   UNL     1      -5.629 -21.027   6.423  0.00  0.00    +0.020 A 
ATOM     24  C   UNL     1      -5.509 -22.080   5.533  0.00  0.00    +0.111 A 
ATOM     25  N   UNL     1      -4.960 -21.909   4.346  0.00  0.00    -0.263 NA
ATOM     26  C   UNL     1      -4.508 -20.736   3.951  0.00  0.00    +0.121 A 
ENDBRANCH  17  21
ENDBRANCH   4   7
BRANCH   1  27
ATOM     27  O   UNL     1      -3.745  -8.868  -0.467  0.00  0.00    -0.489 OA
BRANCH  27  28
ATOM     28  C   UNL     1      -3.049  -8.194  -1.517  0.00  0.00    +0.270 C 
BRANCH  28  29
ATOM     29  C   UNL     1      -3.503  -6.734  -1.575  0.00  0.00    +0.270 C 
BRANCH  29  30
ATOM     30  O   UNL     1      -3.113  -6.066  -0.374  0.00  0.00    -0.489 OA
BRANCH  30  34
ATOM     31  C   UNL     1      -4.112  -2.078  -0.040  0.00  0.00    -0.044 A 
ATOM     32  C   UNL     1      -3.430  -2.707   0.986  0.00  0.00    +0.007 A 
ATOM     33  C   UNL     1      -3.095  -4.042   0.876  0.00  0.00    +0.046 A 
ATOM     34  C   UNL     1      -3.442  -4.753  -0.263  0.00  0.00    +0.121 A 
ATOM     35  C   UNL     1      -4.127  -4.119  -1.291  0.00  0.00    +0.046 A 
ATOM     36  C   UNL     1      -4.465  -2.785  -1.174  0.00  0.00    +0.007 A 
BRANCH  31  37
ATOM     37  C   UNL     1      -4.476  -0.621   0.082  0.00  0.00    +0.016 C 
ATOM     38  C   UNL     1      -5.371  -0.419   1.307  0.00  0.00    +0.012 C 
BRANCH  37  40
ATOM     39  C   UNL     1      -3.562   1.700   0.238  0.00  0.00    +0.004 C 
ATOM     40  C   UNL     1      -3.203   0.212   0.239  0.00  0.00    +0.004 C 
ENDBRANCH  37  40
ENDBRANCH  31  37
ENDBRANCH  30  34
ENDBRANCH  29  30
ENDBRANCH  28  29
ENDBRANCH  27  28
ENDBRANCH   1  27
TORSDOF 9
