REMARK  Name = ZINC16150994
REMARK  7 active torsions:
REMARK  status: ('A' for Active; 'I' for Inactive)
REMARK    1  A    between atoms: C_4  and  N_23
REMARK    2  A    between atoms: C_5  and  C_7
REMARK    3  A    between atoms: N_9  and  N_10
REMARK    4  A    between atoms: N_10  and  S_11
REMARK    5  A    between atoms: S_11  and  C_14
REMARK    6  A    between atoms: N_23  and  S_24
REMARK    7  A    between atoms: S_24  and  C_27
REMARK                            x       y       z     vdW  Elec       q    Type
REMARK                         _______ _______ _______ _____ _____    ______ ____
ROOT
ATOM      1  C   UNL     1       0.143  -0.194   0.193  0.00  0.00    +0.261 C 
ATOM      2  O   UNL     1       1.238  -0.698   0.030  0.00  0.00    -0.269 OA
ATOM      3  N   UNL     1      -0.950  -0.976   0.294  0.00  0.00    -0.228 N 
ATOM      4  H   UNL     1      -1.823  -0.574   0.424  0.00  0.00    +0.171 HD
ENDROOT
BRANCH   1   9
ATOM      5  C   UNL     1      -1.360   3.225   0.543  0.00  0.00    +0.001 A 
ATOM      6  C   UNL     1      -0.237   4.031   0.439  0.00  0.00    +0.002 A 
ATOM      7  C   UNL     1       1.010   3.470   0.255  0.00  0.00    +0.025 A 
ATOM      8  C   UNL     1       1.147   2.090   0.173  0.00  0.00    +0.060 A 
ATOM      9  C   UNL     1       0.012   1.272   0.278  0.00  0.00    +0.060 A 
ATOM     10  C   UNL     1      -1.245   1.855   0.459  0.00  0.00    +0.015 A 
BRANCH   8  11
ATOM     11  N   UNL     1       2.402   1.523  -0.012  0.00  0.00    -0.215 N 
ATOM     12  H   UNL     1       2.498   0.726  -0.557  0.00  0.00    +0.174 HD
BRANCH  11  13
ATOM     13  S   UNL     1       3.733   2.208   0.696  0.00  0.00    +0.079 S 
ATOM     14  O   UNL     1       4.824   1.335   0.438  0.00  0.00    -0.149 OA
ATOM     15  O   UNL     1       3.741   3.574   0.308  0.00  0.00    -0.149 OA
BRANCH  13  16
ATOM     16  C   UNL     1       3.467   2.181   2.438  0.00  0.00    +0.146 A 
ATOM     17  C   UNL     1       3.796   1.221   3.337  0.00  0.00    +0.036 A 
ATOM     18  C   UNL     1       3.487   1.417   4.670  0.00  0.00    +0.010 A 
ATOM     19  C   UNL     1       2.865   2.563   5.039  0.00  0.00    +0.047 A 
ATOM     20  S   UNL     1       2.702   3.414   3.478  0.00  0.00    -0.077 S 
ENDBRANCH  13  16
ENDBRANCH  11  13
ENDBRANCH   8  11
ENDBRANCH   1   9
BRANCH   3  21
ATOM     21  N   UNL     1      -0.825  -2.369   0.213  0.00  0.00    -0.108 NA
ATOM     22  H   UNL     1      -0.392  -2.773  -0.555  0.00  0.00    +0.172 HD
BRANCH  21  23
ATOM     23  S   UNL     1      -1.416  -3.326   1.428  0.00  0.00    +0.074 S 
ATOM     24  O   UNL     1      -1.271  -4.671   0.993  0.00  0.00    -0.152 OA
ATOM     25  O   UNL     1      -0.840  -2.849   2.637  0.00  0.00    -0.152 OA
BRANCH  23  26
ATOM     26  C   UNL     1      -3.147  -3.017   1.539  0.00  0.00    +0.107 A 
ATOM     27  C   UNL     1      -4.034  -3.770   0.793  0.00  0.00    +0.029 A 
ATOM     28  C   UNL     1      -5.391  -3.526   0.881  0.00  0.00    +0.006 A 
ATOM     29  C   UNL     1      -5.866  -2.528   1.716  0.00  0.00    -0.044 A 
ATOM     30  C   UNL     1      -4.980  -1.775   2.462  0.00  0.00    -0.042 A 
ATOM     31  C   UNL     1      -3.620  -2.025   2.376  0.00  0.00    +0.032 A 
ATOM     32  C   UNL     1      -5.740  -0.758   3.287  0.00  0.00    +0.036 C 
ATOM     33  C   UNL     1      -7.200  -1.259   3.299  0.00  0.00    +0.009 C 
ATOM     34  C   UNL     1      -7.283  -2.070   1.988  0.00  0.00    +0.036 C 
ENDBRANCH  23  26
ENDBRANCH  21  23
ENDBRANCH   3  21
TORSDOF 7
