REMARK  Name = ZINC11783192
REMARK  12 active torsions:
REMARK  status: ('A' for Active; 'I' for Inactive)
REMARK    1  A    between atoms: C_1  and  N_2
REMARK    2  A    between atoms: N_2  and  C_3
REMARK    3  A    between atoms: C_3  and  C_4
REMARK    4  A    between atoms: C_7  and  O_12
REMARK    5  A    between atoms: C_8  and  O_10
REMARK    6  A    between atoms: O_10  and  C_11
REMARK    7  A    between atoms: O_12  and  C_13
REMARK    8  A    between atoms: C_14  and  C_16
REMARK    9  A    between atoms: C_16  and  C_17
REMARK   10  A    between atoms: C_17  and  C_18
REMARK   11  A    between atoms: C_18  and  C_24
REMARK   12  A    between atoms: C_24  and  C_25
REMARK                            x       y       z     vdW  Elec       q    Type
REMARK                         _______ _______ _______ _____ _____    ______ ____
ROOT
ATOM      1  C   UNL     1      -0.013   1.086   0.008  0.00  0.00    +0.098 C 
ENDROOT
BRANCH   1   4
ATOM      2  C   UNL     1       0.913   0.447  -2.593  0.00  0.00    +0.132 C 
ATOM      3  N   UNL     1      -0.288   1.272  -2.443  0.00  0.00    -0.300 N 
ATOM      4  C   UNL     1      -0.742   1.585  -1.213  0.00  0.00    +0.216 C 
ATOM      5  O   UNL     1      -1.736   2.268  -1.088  0.00  0.00    -0.276 OA
BRANCH   3   6
ATOM      6  C   UNL     1      -0.997   1.758  -3.630  0.00  0.00    +0.142 C 
BRANCH   6   7
ATOM      7  C   UNL     1      -0.435   3.095  -4.038  0.00  0.00    -0.026 A 
ATOM      8  C   UNL     1       0.621   3.157  -4.928  0.00  0.00    +0.009 A 
ATOM      9  C   UNL     1       1.140   4.382  -5.305  0.00  0.00    +0.050 A 
ATOM     10  C   UNL     1       0.600   5.551  -4.793  0.00  0.00    +0.162 A 
ATOM     11  C   UNL     1      -0.464   5.488  -3.898  0.00  0.00    +0.162 A 
ATOM     12  C   UNL     1      -0.982   4.258  -3.527  0.00  0.00    +0.054 A 
BRANCH  11  13
ATOM     13  O   UNL     1      -0.997   6.632  -3.392  0.00  0.00    -0.491 OA
ATOM     14  C   UNL     1      -2.087   6.492  -2.479  0.00  0.00    +0.277 C 
ENDBRANCH  11  13
BRANCH  10  15
ATOM     15  O   UNL     1       1.109   6.756  -5.164  0.00  0.00    -0.491 OA
ATOM     16  C   UNL     1       2.200   6.743  -6.086  0.00  0.00    +0.277 C 
ENDBRANCH  10  15
ENDBRANCH   6   7
ENDBRANCH   3   6
ENDBRANCH   1   4
BRANCH   1  17
ATOM     17  C   UNL     1      -0.729   1.579   1.267  0.00  0.00    +0.035 C 
BRANCH  17  18
ATOM     18  C   UNL     1       0.011   1.072   2.506  0.00  0.00    +0.039 C 
ATOM     19  C   UNL     1      -0.661   1.612   3.788  0.00  0.00    +0.035 C 
ATOM     20  C   UNL     1       0.164   2.891   4.062  0.00  0.00    +0.098 C 
ATOM     21  C   UNL     1       1.494   2.625   3.392  0.00  0.00    +0.214 C 
ATOM     22  O   UNL     1       2.514   3.247   3.601  0.00  0.00    -0.276 OA
ATOM     23  N   UNL     1       1.381   1.599   2.531  0.00  0.00    -0.309 N 
ATOM     24  H   UNL     1       2.111   1.251   1.995  0.00  0.00    +0.149 HD
BRANCH  18  25
ATOM     25  C   UNL     1       0.032  -0.457   2.521  0.00  0.00    +0.061 C 
BRANCH  25  26
ATOM     26  C   UNL     1       0.764  -0.938   3.748  0.00  0.00    -0.045 A 
ATOM     27  C   UNL     1       2.128  -1.156   3.697  0.00  0.00    +0.005 A 
ATOM     28  C   UNL     1       2.801  -1.591   4.823  0.00  0.00    +0.020 A 
ATOM     29  C   UNL     1       2.107  -1.820   5.998  0.00  0.00    +0.041 A 
ATOM     30  C   UNL     1       0.741  -1.607   6.046  0.00  0.00    +0.020 A 
ATOM     31  C   UNL     1       0.070  -1.166   4.921  0.00  0.00    +0.005 A 
ATOM     32 CL   UNL     1       2.950  -2.374   7.410  0.00  0.00    -0.084 Cl
ENDBRANCH  25  26
ENDBRANCH  18  25
ENDBRANCH  17  18
ENDBRANCH   1  17
TORSDOF 9
