REMARK  Name = ZINC46581190
REMARK  8 active torsions:
REMARK  status: ('A' for Active; 'I' for Inactive)
REMARK    1  A    between atoms: C_1  and  C_2
REMARK    2  A    between atoms: C_3  and  C_29
REMARK    3  A    between atoms: C_7  and  N_28
REMARK    4  A    between atoms: C_9  and  S_11
REMARK    5  A    between atoms: S_11  and  C_12
REMARK    6  A    between atoms: C_12  and  C_14
REMARK    7  A    between atoms: C_12  and  C_15
REMARK    8  A    between atoms: N_17  and  C_18
REMARK                            x       y       z     vdW  Elec       q    Type
REMARK                         _______ _______ _______ _____ _____    ______ ____
ROOT
ATOM      1  C   UNL     1       2.949  -2.131   5.125  0.00  0.00    +0.137 C 
ATOM      2  C   UNL     1       3.783  -1.182   4.260  0.00  0.00    +0.029 C 
ENDROOT
BRANCH   1   3
ATOM      3  C   UNL     1       3.848  -2.835   6.108  0.00  0.00    +0.230 C 
ATOM      4  O   UNL     1       4.294  -3.932   5.844  0.00  0.00    -0.274 OA
ATOM      5  N   UNL     1       4.157  -2.246   7.280  0.00  0.00    -0.284 N 
ATOM      6  H   UNL     1       3.764  -1.390   7.511  0.00  0.00    +0.155 HD
BRANCH   5   7
ATOM      7  C   UNL     1       5.047  -2.869   8.164  0.00  0.00    +0.037 A 
ATOM      8  C   UNL     1       5.912  -2.104   8.934  0.00  0.00    +0.027 A 
ATOM      9  C   UNL     1       6.790  -2.719   9.806  0.00  0.00    +0.051 A 
ATOM     10  C   UNL     1       6.810  -4.101   9.915  0.00  0.00    +0.162 A 
ATOM     11  C   UNL     1       5.943  -4.870   9.147  0.00  0.00    +0.164 A 
ATOM     12  C   UNL     1       5.060  -4.253   8.275  0.00  0.00    +0.072 A 
ATOM     13  O   UNL     1       5.943  -6.228   9.247  0.00  0.00    -0.485 OA
ATOM     14  C   UNL     1       7.090  -6.829   9.856  0.00  0.00    +0.270 C 
ATOM     15  C   UNL     1       7.418  -6.049  11.137  0.00  0.00    +0.270 C 
ATOM     16  O   UNL     1       7.685  -4.689  10.777  0.00  0.00    -0.485 OA
ENDBRANCH   5   7
ENDBRANCH   1   3
BRANCH   1  17
ATOM     17  S   UNL     1       2.135  -3.357   4.065  0.00  0.00    -0.073 S 
BRANCH  17  26
ATOM     18  C   UNL     1      -1.883   1.196   0.722  0.00  0.00    +0.045 C 
ATOM     19  C   UNL     1      -1.661  -0.294   0.687  0.00  0.00    -0.028 A 
ATOM     20  C   UNL     1      -2.350  -1.063  -0.168  0.00  0.00    -0.008 A 
ATOM     21  S   UNL     1      -1.745  -2.706   0.168  0.00  0.00    -0.073 S 
ATOM     22  C   UNL     1      -0.583  -2.316   1.449  0.00  0.00    +0.115 A 
ATOM     23  C   UNL     1      -0.693  -0.914   1.577  0.00  0.00    +0.050 A 
ATOM     24  C   UNL     1       0.151  -0.320   2.555  0.00  0.00    +0.129 A 
ATOM     25  N   UNL     1       0.966  -1.087   3.260  0.00  0.00    -0.207 NA
ATOM     26  C   UNL     1       1.023  -2.402   3.086  0.00  0.00    +0.192 A 
ATOM     27  N   UNL     1       0.252  -3.012   2.195  0.00  0.00    -0.214 NA
ATOM     28  C   UNL     1      -3.388  -0.638  -1.174  0.00  0.00    +0.052 C 
BRANCH  24  29
ATOM     29  N   UNL     1       0.122   1.047   2.767  0.00  0.00    -0.343 N 
ATOM     30  H   UNL     1      -0.056   1.648   2.027  0.00  0.00    +0.144 HD
ATOM     31  H   UNL     1       0.278   1.403   3.655  0.00  0.00    +0.144 HD
ENDBRANCH  24  29
ENDBRANCH  17  26
ENDBRANCH   1  17
TORSDOF 5
