REMARK  Name = ZINC47861795
REMARK  2 active torsions:
REMARK  status: ('A' for Active; 'I' for Inactive)
REMARK    1  A    between atoms: C_2  and  N_14
REMARK    2  A    between atoms: C_5  and  N_8
REMARK                            x       y       z     vdW  Elec       q    Type
REMARK                         _______ _______ _______ _____ _____    ______ ____
ROOT
ATOM      1  N   UNL     1       1.159   3.495  -0.040  0.00  0.00    -0.269 N 
ATOM      2  C   UNL     1       2.310   4.181   0.104  0.00  0.00    +0.306 C 
ATOM      3  O   UNL     1       3.371   3.588   0.135  0.00  0.00    -0.252 OA
ATOM      4  N   UNL     1       2.285   5.524   0.212  0.00  0.00    -0.285 N 
ATOM      5  C   UNL     1       1.010   6.241   0.345  0.00  0.00    +0.114 C 
ATOM      6  C   UNL     1       0.934   7.318  -0.742  0.00  0.00    +0.084 C 
ATOM      7  C   UNL     1       2.173   8.211  -0.657  0.00  0.00    +0.173 C 
ATOM      8  C   UNL     1       3.434   7.376  -0.885  0.00  0.00    +0.084 C 
ATOM      9  C   UNL     1       3.534   6.299   0.206  0.00  0.00    +0.114 C 
ATOM     10  O   UNL     1       2.092   9.241  -1.650  0.00  0.00    -0.346 OA
ATOM     11  C   UNL     1       2.117  10.506  -0.958  0.00  0.00    +0.191 C 
ATOM     12  C   UNL     1       2.765  10.149   0.403  0.00  0.00    +0.191 C 
ATOM     13  O   UNL     1       2.234   8.823   0.642  0.00  0.00    -0.346 OA
ATOM     14  H   UNL     1       0.328   3.970  -0.200  0.00  0.00    +0.156 HD
ENDROOT
BRANCH   1  16
ATOM     15  C   UNL     1       0.001   1.419   0.394  0.00  0.00    +0.063 A 
ATOM     16  C   UNL     1       1.161   2.096   0.044  0.00  0.00    +0.040 A 
ATOM     17  C   UNL     1       2.325   1.387  -0.224  0.00  0.00    +0.063 A 
ATOM     18  C   UNL     1       2.328   0.006  -0.143  0.00  0.00    +0.149 A 
ATOM     19  C   UNL     1       1.166  -0.671   0.207  0.00  0.00    +0.101 A 
ATOM     20  C   UNL     1       0.002   0.039   0.476  0.00  0.00    +0.149 A 
ATOM     21  F   UNL     1      -1.127  -0.619   0.818  0.00  0.00    -0.203 F 
ATOM     22  F   UNL     1       3.460  -0.683  -0.405  0.00  0.00    -0.203 F 
BRANCH  19  23
ATOM     23  N   UNL     1       1.169  -2.071   0.290  0.00  0.00    -0.325 N 
ATOM     24  C   UNL     1       0.868  -2.995  -0.814  0.00  0.00    +0.105 C 
ATOM     25  C   UNL     1       0.968  -4.429  -0.252  0.00  0.00    +0.020 C 
ATOM     26  C   UNL     1       0.764  -4.220   1.272  0.00  0.00    +0.020 C 
ATOM     27  C   UNL     1       1.479  -2.861   1.495  0.00  0.00    +0.105 C 
ENDBRANCH  19  23
ENDBRANCH   1  16
TORSDOF 2
