REMARK  Name = ZINC09547840
REMARK  5 active torsions:
REMARK  status: ('A' for Active; 'I' for Inactive)
REMARK    1  A    between atoms: C_1  and  C_2
REMARK    2  A    between atoms: C_8  and  C_9
REMARK    3  A    between atoms: C_8  and  N_55
REMARK    4  A    between atoms: C_10  and  O_31
REMARK    5  A    between atoms: C_17  and  C_18
REMARK                            x       y       z     vdW  Elec       q    Type
REMARK                         _______ _______ _______ _____ _____    ______ ____
ROOT
ATOM      1  C   UNL     1       1.748  -1.706  -0.278  0.00  0.00    +0.020 A 
ATOM      2  C   UNL     1       1.148  -1.850  -1.518  0.00  0.00    +0.122 A 
ATOM      3  C   UNL     1       1.795  -2.536  -2.542  0.00  0.00    +0.046 A 
ATOM      4  C   UNL     1       3.027  -3.085  -2.329  0.00  0.00    +0.019 A 
ATOM      5  C   UNL     1       3.641  -2.953  -1.083  0.00  0.00    +0.068 A 
ATOM      6  C   UNL     1       3.001  -2.259  -0.044  0.00  0.00    +0.144 A 
ATOM      7  O   UNL     1       3.784  -2.264   1.057  0.00  0.00    -0.451 OA
ATOM      8  C   UNL     1       4.945  -2.928   0.846  0.00  0.00    +0.176 C 
ATOM      9  C   UNL     1       5.940  -3.111   1.751  0.00  0.00    +0.061 C 
ATOM     10  C   UNL     1       4.932  -3.415  -0.541  0.00  0.00    +0.231 C 
ATOM     11  O   UNL     1       5.796  -4.056  -1.114  0.00  0.00    -0.283 OA
ENDROOT
BRANCH   9  12
ATOM     12  C   UNL     1       5.859  -2.472   3.070  0.00  0.00    +0.022 A 
ATOM     13  C   UNL     1       4.635  -1.984   3.542  0.00  0.00    +0.027 A 
ATOM     14  C   UNL     1       4.567  -1.389   4.783  0.00  0.00    +0.019 A 
ATOM     15  C   UNL     1       5.708  -1.260   5.560  0.00  0.00    +0.024 A 
ATOM     16  C   UNL     1       6.925  -1.732   5.104  0.00  0.00    +0.022 A 
ATOM     17  C   UNL     1       7.012  -2.341   3.864  0.00  0.00    +0.136 A 
ATOM     18  O   UNL     1       8.198  -2.818   3.408  0.00  0.00    -0.465 OA
ATOM     19  C   UNL     1       9.379  -2.350   4.066  0.00  0.00    +0.395 C 
ATOM     20  O   UNL     1       9.183  -2.446   5.482  0.00  0.00    -0.339 OA
ATOM     21  C   UNL     1       8.154  -1.575   5.964  0.00  0.00    +0.202 C 
ATOM     22 BR   UNL     1       2.912  -0.739   5.426  0.00  0.00    -0.050 Br
ENDBRANCH   9  12
BRANCH   2  23
ATOM     23  O   UNL     1      -0.079  -1.313  -1.738  0.00  0.00    -0.506 OA
ATOM     24  H   UNL     1      -0.057  -0.406  -2.072  0.00  0.00    +0.292 HD
ENDBRANCH   2  23
BRANCH   1  25
ATOM     25  C   UNL     1       1.039  -0.956   0.820  0.00  0.00    -0.036 C 
BRANCH  25  32
ATOM     26  C   UNL     1       4.704   2.314   1.066  0.00  0.00    +0.005 C 
ATOM     27  C   UNL     1       3.189   2.132   0.959  0.00  0.00    -0.031 C 
ATOM     28  C   UNL     1       2.679   2.829  -0.305  0.00  0.00    -0.001 C 
ATOM     29  C   UNL     1       1.172   2.591  -0.436  0.00  0.00    -0.018 C 
ATOM     30  C   UNL     1       0.899   1.086  -0.473  0.00  0.00    -0.078 C 
ATOM     31  C   UNL     1       2.858   0.640   0.882  0.00  0.00    -0.075 C 
ATOM     32  N   UNL     1       1.392   0.478   0.781  0.00  0.00    +0.383 N 
ATOM     33  H   UNL     1       0.949   0.952   1.577  0.00  0.00    -0.081 HD
ENDBRANCH  25  32
ENDBRANCH   1  25
TORSDOF 4
