REMARK  Name = ZINC39748731
REMARK  10 active torsions:
REMARK  status: ('A' for Active; 'I' for Inactive)
REMARK    1  A    between atoms: C_1  and  C_2
REMARK    2  A    between atoms: C_2  and  N_3
REMARK    3  A    between atoms: C_4  and  C_23
REMARK    4  A    between atoms: C_7  and  S_8
REMARK    5  A    between atoms: S_8  and  C_9
REMARK    6  A    between atoms: C_9  and  C_11
REMARK    7  A    between atoms: C_9  and  C_12
REMARK    8  A    between atoms: C_23  and  C_25
REMARK    9  A    between atoms: C_23  and  N_26
REMARK   10  A    between atoms: C_27  and  C_29
REMARK                            x       y       z     vdW  Elec       q    Type
REMARK                         _______ _______ _______ _____ _____    ______ ____
ROOT
ATOM      1  N   UNL     1       0.692  -0.469  -1.220  0.00  0.00    -0.305 N 
ATOM      2  C   UNL     1       0.132  -0.755  -2.434  0.00  0.00    +0.154 A 
ATOM      3  N   UNL     1       1.090  -1.163  -3.217  0.00  0.00    -0.132 NA
ATOM      4  N   UNL     1       2.209  -1.155  -2.586  0.00  0.00    -0.122 NA
ATOM      5  C   UNL     1       2.025  -0.733  -1.356  0.00  0.00    +0.192 A 
ENDROOT
BRANCH   1   7
ATOM      6  C   UNL     1      -0.007   1.555  -0.037  0.00  0.00    +0.027 C 
ATOM      7  C   UNL     1       0.006   0.025  -0.023  0.00  0.00    +0.122 C 
ENDBRANCH   1   7
BRANCH   2   8
ATOM      8  C   UNL     1      -1.325  -0.622  -2.799  0.00  0.00    +0.138 C 
ATOM      9  C   UNL     1      -1.519   0.614  -3.679  0.00  0.00    +0.036 C 
BRANCH   8  10
ATOM     10  N   UNL     1      -1.755  -1.816  -3.531  0.00  0.00    -0.302 N 
ATOM     11  C   UNL     1      -3.054  -2.177  -3.527  0.00  0.00    +0.245 C 
ATOM     12  O   UNL     1      -3.868  -1.512  -2.916  0.00  0.00    -0.270 OA
ATOM     13  H   UNL     1      -1.106  -2.346  -4.019  0.00  0.00    +0.150 HD
BRANCH  11  14
ATOM     14  C   UNL     1      -3.488  -3.381  -4.266  0.00  0.00    +0.038 A 
ATOM     15  C   UNL     1      -2.555  -4.150  -4.963  0.00  0.00    +0.014 A 
ATOM     16  C   UNL     1      -2.965  -5.272  -5.651  0.00  0.00    +0.022 A 
ATOM     17  C   UNL     1      -4.301  -5.638  -5.651  0.00  0.00    +0.059 A 
ATOM     18  C   UNL     1      -5.233  -4.880  -4.960  0.00  0.00    +0.060 A 
ATOM     19  C   UNL     1      -4.832  -3.757  -4.263  0.00  0.00    +0.034 A 
ATOM     20 CL   UNL     1      -6.905  -5.346  -4.965  0.00  0.00    -0.082 Cl
ATOM     21 CL   UNL     1      -4.810  -7.052  -6.519  0.00  0.00    -0.082 Cl
ENDBRANCH  11  14
ENDBRANCH   8  10
ENDBRANCH   2   8
BRANCH   5  22
ATOM     22  S   UNL     1       3.262  -0.544  -0.117  0.00  0.00    -0.074 S 
BRANCH  22  23
ATOM     23  C   UNL     1       4.793  -1.060  -0.943  0.00  0.00    +0.137 C 
ATOM     24  C   UNL     1       4.706  -2.546  -1.296  0.00  0.00    +0.029 C 
BRANCH  23  25
ATOM     25  C   UNL     1       5.963  -0.830  -0.021  0.00  0.00    +0.233 C 
ATOM     26  O   UNL     1       5.783  -0.730   1.174  0.00  0.00    -0.274 OA
ATOM     27  N   UNL     1       7.209  -0.735  -0.525  0.00  0.00    -0.270 N 
ATOM     28  C   UNL     1       7.539  -0.721  -1.953  0.00  0.00    +0.118 C 
ATOM     29  C   UNL     1       9.071  -0.600  -2.012  0.00  0.00    +0.056 C 
ATOM     30  C   UNL     1       9.505  -0.553  -0.564  0.00  0.00    -0.024 A 
ATOM     31  C   UNL     1       8.377  -0.630   0.237  0.00  0.00    +0.040 A 
ATOM     32  C   UNL     1       8.528  -0.599   1.625  0.00  0.00    +0.024 A 
ATOM     33  C   UNL     1       9.783  -0.490   2.186  0.00  0.00    +0.002 A 
ATOM     34  C   UNL     1      10.901  -0.410   1.377  0.00  0.00    +0.000 A 
ATOM     35  C   UNL     1      10.761  -0.448   0.002  0.00  0.00    +0.005 A 
ENDBRANCH  23  25
ENDBRANCH  22  23
ENDBRANCH   5  22
TORSDOF 7
