REMARK  Name = ZINC65322868
REMARK  7 active torsions:
REMARK  status: ('A' for Active; 'I' for Inactive)
REMARK    1  A    between atoms: C_1  and  C_2
REMARK    2  A    between atoms: C_5  and  N_9
REMARK    3  A    between atoms: C_6  and  C_8
REMARK    4  A    between atoms: N_9  and  C_10
REMARK    5  A    between atoms: C_10  and  C_11
REMARK    6  A    between atoms: N_21  and  C_22
REMARK    7  A    between atoms: C_22  and  C_23
REMARK                            x       y       z     vdW  Elec       q    Type
REMARK                         _______ _______ _______ _____ _____    ______ ____
ROOT
ATOM      1  C   UNL     1       0.082  -6.376  -1.026  0.00  0.00    +0.067 A 
ATOM      2  C   UNL     1       0.095  -7.272  -2.094  0.00  0.00    +0.097 A 
ATOM      3  C   UNL     1       0.114  -8.616  -1.836  0.00  0.00    +0.276 A 
ATOM      4  O   UNL     1       0.127  -9.511  -2.850  0.00  0.00    -0.266 OA
ATOM      5  N   UNL     1       0.120  -9.038  -0.541  0.00  0.00    -0.158 N 
ATOM      6  C   UNL     1       0.107  -8.129   0.479  0.00  0.00    +0.258 A 
ATOM      7  N   UNL     1       0.094  -6.817   0.214  0.00  0.00    -0.214 NA
ATOM      8  N   UNL     1       0.117  -8.812   1.619  0.00  0.00    -0.176 NA
ATOM      9  C   UNL     1       0.135 -10.118   1.359  0.00  0.00    +0.237 A 
ATOM     10  N   UNL     1       0.137 -10.306   0.056  0.00  0.00    -0.125 NA
ATOM     11  N   UNL     1       0.149 -11.129   2.317  0.00  0.00    -0.308 N 
ATOM     12  H   UNL     1       0.162 -12.058   2.041  0.00  0.00    +0.149 HD
ENDROOT
BRANCH   1  13
ATOM     13  C   UNL     1       0.061  -4.893  -1.294  0.00  0.00    +0.157 C 
BRANCH  13  14
ATOM     14  N   UNL     1       0.058  -4.167  -0.021  0.00  0.00    -0.338 N 
ATOM     15  H   UNL     1       0.069  -4.657   0.816  0.00  0.00    +0.146 HD
BRANCH  14  20
ATOM     16  C   UNL     1      -0.018   1.503   0.010  0.00  0.00    +0.044 C 
ATOM     17  C   UNL     1       0.002  -0.004   0.002  0.00  0.00    -0.050 A 
ATOM     18  C   UNL     1       0.006  -0.687  -1.200  0.00  0.00    +0.005 A 
ATOM     19  C   UNL     1       0.024  -2.068  -1.212  0.00  0.00    +0.023 A 
ATOM     20  C   UNL     1       0.040  -2.771  -0.013  0.00  0.00    +0.030 A 
ATOM     21  C   UNL     1       0.036  -2.081   1.192  0.00  0.00    -0.029 A 
ATOM     22  C   UNL     1       0.023  -0.700   1.196  0.00  0.00    +0.008 A 
ATOM     23  C   UNL     1       0.052  -2.839   2.495  0.00  0.00    +0.045 C 
ENDBRANCH  14  20
ENDBRANCH  13  14
ENDBRANCH   1  13
BRANCH  11  24
ATOM     24  C   UNL     1       0.144 -10.787   3.742  0.00  0.00    +0.139 C 
BRANCH  24  25
ATOM     25  C   UNL     1       0.161 -12.052   4.561  0.00  0.00    -0.030 A 
ATOM     26  C   UNL     1      -1.028 -12.651   4.932  0.00  0.00    +0.006 A 
ATOM     27  C   UNL     1      -1.012 -13.811   5.684  0.00  0.00    +0.020 A 
ATOM     28  C   UNL     1       0.194 -14.372   6.065  0.00  0.00    +0.041 A 
ATOM     29  C   UNL     1       1.384 -13.771   5.694  0.00  0.00    +0.020 A 
ATOM     30  C   UNL     1       1.367 -12.615   4.937  0.00  0.00    +0.006 A 
ATOM     31 CL   UNL     1       0.214 -15.828   7.010  0.00  0.00    -0.084 Cl
ENDBRANCH  24  25
ENDBRANCH  11  24
TORSDOF 5
