REMARK  Name = ZINC57543444
REMARK  8 active torsions:
REMARK  status: ('A' for Active; 'I' for Inactive)
REMARK    1  A    between atoms: C_1  and  C_2
REMARK    2  A    between atoms: C_5  and  N_25
REMARK    3  A    between atoms: C_7  and  N_8
REMARK    4  A    between atoms: N_11  and  C_12
REMARK    5  A    between atoms: C_12  and  C_13
REMARK    6  A    between atoms: C_13  and  C_15
REMARK    7  A    between atoms: C_13  and  N_20
REMARK    8  A    between atoms: C_26  and  C_28
REMARK                            x       y       z     vdW  Elec       q    Type
REMARK                         _______ _______ _______ _____ _____    ______ ____
ROOT
ATOM      1  N   UNL     1       1.143  -1.823   2.473  0.00  0.00    -0.269 N 
ATOM      2  C   UNL     1       1.742  -2.937   2.940  0.00  0.00    +0.304 C 
ATOM      3  O   UNL     1       1.930  -3.882   2.199  0.00  0.00    -0.253 OA
ATOM      4  N   UNL     1       2.131  -3.003   4.229  0.00  0.00    -0.300 N 
ATOM      5  H   UNL     1       1.050  -1.046   3.047  0.00  0.00    +0.156 HD
ATOM      6  H   UNL     1       1.981  -2.249   4.820  0.00  0.00    +0.150 HD
ENDROOT
BRANCH   1  13
ATOM      7  C   UNL     1      -1.088  -0.151   1.915  0.00  0.00    +0.045 C 
ATOM      8  C   UNL     1      -0.431  -0.984   0.845  0.00  0.00    -0.029 A 
ATOM      9  C   UNL     1      -0.908  -0.943  -0.451  0.00  0.00    +0.007 A 
ATOM     10  C   UNL     1      -0.308  -1.705  -1.435  0.00  0.00    +0.024 A 
ATOM     11  C   UNL     1       0.777  -2.515  -1.124  0.00  0.00    +0.035 A 
ATOM     12  C   UNL     1       1.258  -2.558   0.177  0.00  0.00    +0.047 A 
ATOM     13  C   UNL     1       0.657  -1.787   1.161  0.00  0.00    +0.039 A 
BRANCH  11  14
ATOM     14  N   UNL     1       1.383  -3.287  -2.121  0.00  0.00    -0.285 N 
ATOM     15  C   UNL     1       1.451  -2.824  -3.385  0.00  0.00    +0.220 C 
ATOM     16  O   UNL     1       1.068  -1.702  -3.640  0.00  0.00    -0.275 OA
ATOM     17  H   UNL     1       1.756  -4.156  -1.902  0.00  0.00    +0.155 HD
BRANCH  15  18
ATOM     18  C   UNL     1       2.001  -3.700  -4.480  0.00  0.00    +0.075 C 
ATOM     19  C   UNL     1       3.344  -3.301  -5.096  0.00  0.00    +0.013 C 
ATOM     20  C   UNL     1       2.051  -3.117  -5.894  0.00  0.00    +0.013 C 
ENDBRANCH  15  18
ENDBRANCH  11  14
ENDBRANCH   1  13
BRANCH   4  21
ATOM     21  C   UNL     1       2.781  -4.213   4.736  0.00  0.00    +0.095 C 
BRANCH  21  22
ATOM     22  C   UNL     1       3.236  -3.982   6.179  0.00  0.00    -0.013 C 
BRANCH  22  23
ATOM     23  N   UNL     1       3.796  -5.227   6.721  0.00  0.00    +0.386 N 
ATOM     24  C   UNL     1       4.160  -5.045   8.149  0.00  0.00    -0.078 C 
ATOM     25  C   UNL     1       4.180  -6.494   8.698  0.00  0.00    -0.020 C 
ATOM     26  C   UNL     1       2.999  -7.160   7.954  0.00  0.00    -0.020 C 
ATOM     27  C   UNL     1       2.777  -6.298   6.698  0.00  0.00    -0.078 C 
ATOM     28  H   UNL     1       4.606  -5.505   6.188  0.00  0.00    -0.081 HD
ENDBRANCH  22  23
BRANCH  22  29
ATOM     29  C   UNL     1       4.287  -2.903   6.207  0.00  0.00    -0.022 A 
ATOM     30  C   UNL     1       4.157  -1.592   6.528  0.00  0.00    +0.009 A 
ATOM     31  C   UNL     1       5.273  -0.778   6.485  0.00  0.00    +0.008 A 
ATOM     32  C   UNL     1       6.464  -1.313   6.123  0.00  0.00    +0.045 A 
ATOM     33  S   UNL     1       6.029  -3.021   5.834  0.00  0.00    -0.103 S 
ENDBRANCH  22  29
ENDBRANCH  21  22
ENDBRANCH   4  21
TORSDOF 7
