REMARK  Name = ZINC66699388
REMARK  9 active torsions:
REMARK  status: ('A' for Active; 'I' for Inactive)
REMARK    1  A    between atoms: C_1  and  C_2
REMARK    2  A    between atoms: C_2  and  O_3
REMARK    3  A    between atoms: O_3  and  C_4
REMARK    4  A    between atoms: C_4  and  C_5
REMARK    5  A    between atoms: N_7  and  N_8
REMARK    6  A    between atoms: N_11  and  C_12
REMARK    7  A    between atoms: C_12  and  C_13
REMARK    8  A    between atoms: C_13  and  C_15
REMARK    9  A    between atoms: C_13  and  N_22
REMARK                            x       y       z     vdW  Elec       q    Type
REMARK                         _______ _______ _______ _____ _____    ______ ____
ROOT
ATOM      1  C   UNL     1       2.482  -7.756   3.783  0.00  0.00    +0.095 C 
ENDROOT
BRANCH   1   5
ATOM      2  N   UNL     1       1.613  -7.619   7.353  0.00  0.00    -0.218 N 
ATOM      3  C   UNL     1       2.262  -7.428   6.188  0.00  0.00    +0.316 C 
ATOM      4  O   UNL     1       3.287  -6.774   6.162  0.00  0.00    -0.251 OA
ATOM      5  N   UNL     1       1.776  -7.963   5.050  0.00  0.00    -0.299 N 
ATOM      6  H   UNL     1       1.963  -7.234   8.172  0.00  0.00    +0.174 HD
ATOM      7  H   UNL     1       0.958  -8.485   5.070  0.00  0.00    +0.150 HD
BRANCH   2  10
ATOM      8  C   UNL     1      -0.217  -8.563   8.547  0.00  0.00    +0.255 C 
ATOM      9  O   UNL     1       0.220  -8.082   9.571  0.00  0.00    -0.272 OA
ATOM     10  N   UNL     1       0.432  -8.373   7.382  0.00  0.00    -0.231 N 
ATOM     11  H   UNL     1       0.082  -8.757   6.563  0.00  0.00    +0.173 HD
BRANCH   8  12
ATOM     12  C   UNL     1      -1.488  -9.374   8.579  0.00  0.00    +0.256 C 
BRANCH  12  13
ATOM     13  O   UNL     1      -1.983  -9.432   9.918  0.00  0.00    -0.371 OA
BRANCH  13  15
ATOM     14  C   UNL     1      -3.627 -10.176  11.525  0.00  0.00    +0.034 C 
ATOM     15  C   UNL     1      -3.191 -10.182  10.058  0.00  0.00    +0.157 C 
ENDBRANCH  13  15
ENDBRANCH  12  13
ENDBRANCH   8  12
ENDBRANCH   2  10
ENDBRANCH   1   5
BRANCH   1  16
ATOM     16  C   UNL     1       1.802  -8.571   2.681  0.00  0.00    -0.020 C 
BRANCH  16  17
ATOM     17  C   UNL     1       1.957 -10.041   2.976  0.00  0.00    -0.058 A 
ATOM     18  C   UNL     1       3.144 -10.684   2.679  0.00  0.00    +0.002 A 
ATOM     19  C   UNL     1       3.287 -12.032   2.949  0.00  0.00    +0.002 A 
ATOM     20  C   UNL     1       2.242 -12.738   3.515  0.00  0.00    +0.020 A 
ATOM     21  C   UNL     1       1.054 -12.095   3.812  0.00  0.00    +0.041 A 
ATOM     22  C   UNL     1       0.914 -10.744   3.548  0.00  0.00    +0.022 A 
ATOM     23 CL   UNL     1      -0.259 -12.981   4.524  0.00  0.00    -0.084 Cl
ENDBRANCH  16  17
BRANCH  16  24
ATOM     24  N   UNL     1       2.426  -8.262   1.388  0.00  0.00    +0.385 N 
ATOM     25  C   UNL     1       1.768  -9.035   0.304  0.00  0.00    -0.078 C 
ATOM     26  C   UNL     1       2.110  -8.222  -0.970  0.00  0.00    -0.020 C 
ATOM     27  C   UNL     1       2.031  -6.758  -0.477  0.00  0.00    -0.020 C 
ATOM     28  C   UNL     1       2.221  -6.837   1.049  0.00  0.00    -0.078 C 
ATOM     29  H   UNL     1       3.412  -8.474   1.418  0.00  0.00    -0.081 HD
ENDBRANCH  16  24
ENDBRANCH   1  16
TORSDOF 8
