REMARK  Name = ZINC16742037
REMARK  9 active torsions:
REMARK  status: ('A' for Active; 'I' for Inactive)
REMARK    1  A    between atoms: C_1  and  C_2
REMARK    2  A    between atoms: C_2  and  C_3
REMARK    3  A    between atoms: C_2  and  C_4
REMARK    4  A    between atoms: C_4  and  C_5
REMARK    5  A    between atoms: C_11  and  C_27
REMARK    6  A    between atoms: C_30  and  O_35
REMARK    7  A    between atoms: C_31  and  O_33
REMARK    8  A    between atoms: O_33  and  C_34
REMARK    9  A    between atoms: O_35  and  C_36
REMARK                            x       y       z     vdW  Elec       q    Type
REMARK                         _______ _______ _______ _____ _____    ______ ____
ROOT
ATOM      1  C   UNL     1      -2.478  -8.490  -0.022  0.00  0.00    +0.104 A 
ATOM      2  N   UNL     1      -3.398  -7.546  -0.009  0.00  0.00    -0.145 NA
ATOM      3  N   UNL     1      -3.103  -6.319  -0.004  0.00  0.00    -0.125 NA
ATOM      4  C   UNL     1      -1.843  -5.904  -0.013  0.00  0.00    +0.191 A 
ATOM      5  S   UNL     1      -0.998  -7.482  -0.037  0.00  0.00    -0.035 S 
ATOM      6  N   UNL     1      -1.328  -4.614  -0.010  0.00  0.00    -0.230 N 
ATOM      7  C   UNL     1      -2.111  -3.372   0.004  0.00  0.00    +0.152 C 
ATOM      8  C   UNL     1      -1.106  -2.249   0.001  0.00  0.00    +0.072 A 
ATOM      9  C   UNL     1      -1.247  -0.791   0.009  0.00  0.00    +0.199 A 
ATOM     10  O   UNL     1      -2.341  -0.254   0.022  0.00  0.00    -0.287 OA
ATOM     11  C   UNL     1       0.002  -0.004   0.002  0.00  0.00    +0.066 A 
ATOM     12  C   UNL     1      -0.017   1.390   0.010  0.00  0.00    +0.035 A 
ATOM     13  C   UNL     1       1.173   2.085   0.002  0.00  0.00    +0.042 A 
ATOM     14  C   UNL     1       2.382   1.400  -0.012  0.00  0.00    +0.023 A 
ATOM     15  C   UNL     1       2.412   0.023  -0.020  0.00  0.00    +0.048 A 
ATOM     16  C   UNL     1       1.223  -0.700  -0.013  0.00  0.00    +0.140 A 
ATOM     17  O   UNL     1       1.241  -2.046  -0.021  0.00  0.00    -0.450 OA
ATOM     18  C   UNL     1       0.130  -2.808  -0.014  0.00  0.00    +0.199 A 
ATOM     19  C   UNL     1      -0.025  -4.283  -0.021  0.00  0.00    +0.289 C 
ATOM     20  O   UNL     1       0.893  -5.078  -0.034  0.00  0.00    -0.266 OA
ATOM     21 CL   UNL     1       1.162   3.821   0.011  0.00  0.00    -0.084 Cl
ENDROOT
BRANCH   7  22
ATOM     22  C   UNL     1      -2.982  -3.293  -1.223  0.00  0.00    -0.018 A 
ATOM     23  C   UNL     1      -2.514  -3.772  -2.433  0.00  0.00    +0.009 A 
ATOM     24  C   UNL     1      -3.310  -3.703  -3.561  0.00  0.00    +0.050 A 
ATOM     25  C   UNL     1      -4.579  -3.152  -3.482  0.00  0.00    +0.162 A 
ATOM     26  C   UNL     1      -5.049  -2.670  -2.264  0.00  0.00    +0.162 A 
ATOM     27  C   UNL     1      -4.249  -2.747  -1.136  0.00  0.00    +0.055 A 
BRANCH  26  28
ATOM     28  O   UNL     1      -6.294  -2.128  -2.181  0.00  0.00    -0.491 OA
ATOM     29  C   UNL     1      -6.710  -1.653  -0.899  0.00  0.00    +0.277 C 
ENDBRANCH  26  28
BRANCH  25  30
ATOM     30  O   UNL     1      -5.363  -3.083  -4.591  0.00  0.00    -0.491 OA
ATOM     31  C   UNL     1      -4.814  -3.598  -5.806  0.00  0.00    +0.277 C 
ENDBRANCH  25  30
ENDBRANCH   7  22
BRANCH   1  32
ATOM     32  C   UNL     1      -2.628  -9.989  -0.031  0.00  0.00    +0.068 C 
BRANCH  32  34
ATOM     33  C   UNL     1      -1.357 -10.210  -2.170  0.00  0.00    +0.007 C 
ATOM     34  C   UNL     1      -2.692 -10.487  -1.476  0.00  0.00    -0.011 C 
ATOM     35  C   UNL     1      -2.970 -11.992  -1.485  0.00  0.00    +0.007 C 
ENDBRANCH  32  34
ENDBRANCH   1  32
TORSDOF 5
