REMARK  Name = ZINC13584265
REMARK  8 active torsions:
REMARK  status: ('A' for Active; 'I' for Inactive)
REMARK    1  A    between atoms: C_1  and  C_2
REMARK    2  A    between atoms: C_5  and  C_8
REMARK    3  A    between atoms: C_8  and  N_9
REMARK    4  A    between atoms: N_9  and  C_10
REMARK    5  A    between atoms: N_9  and  S_33
REMARK    6  A    between atoms: C_17  and  C_19
REMARK    7  A    between atoms: N_24  and  C_27
REMARK    8  A    between atoms: S_33  and  C_36
REMARK                            x       y       z     vdW  Elec       q    Type
REMARK                         _______ _______ _______ _____ _____    ______ ____
ROOT
ATOM      1  C   UNL     1      -1.179  -0.958   1.937  0.00  0.00    +0.052 A 
ATOM      2  C   UNL     1      -2.256  -0.129   1.624  0.00  0.00    +0.026 A 
ATOM      3  C   UNL     1      -3.368  -0.134   2.422  0.00  0.00    +0.017 A 
ATOM      4  C   UNL     1      -3.412  -0.948   3.534  0.00  0.00    +0.020 A 
ATOM      5  C   UNL     1      -2.340  -1.799   3.892  0.00  0.00    -0.008 A 
ATOM      6  C   UNL     1      -1.204  -1.775   3.041  0.00  0.00    +0.033 A 
ATOM      7  C   UNL     1      -2.540  -2.566   5.054  0.00  0.00    +0.029 A 
ATOM      8  C   UNL     1      -3.705  -2.456   5.747  0.00  0.00    +0.075 A 
ATOM      9  S   UNL     1      -4.618  -1.249   4.802  0.00  0.00    -0.084 S 
ENDROOT
BRANCH   8  10
ATOM     10  C   UNL     1      -4.112  -3.160   6.972  0.00  0.00    +0.253 C 
ATOM     11  O   UNL     1      -3.274  -3.697   7.671  0.00  0.00    -0.269 OA
ATOM     12  N   UNL     1      -5.413  -3.209   7.320  0.00  0.00    -0.294 N 
ATOM     13  C   UNL     1      -6.453  -2.672   6.430  0.00  0.00    +0.127 C 
ATOM     14  C   UNL     1      -7.531  -3.751   6.242  0.00  0.00    +0.124 C 
ATOM     15  N   UNL     1      -8.009  -4.193   7.559  0.00  0.00    -0.327 N 
ATOM     16  C   UNL     1      -6.931  -4.825   8.332  0.00  0.00    +0.124 C 
ATOM     17  C   UNL     1      -5.829  -3.796   8.603  0.00  0.00    +0.127 C 
BRANCH  15  18
ATOM     18  C   UNL     1      -9.104  -5.051   7.432  0.00  0.00    +0.030 A 
ATOM     19  C   UNL     1      -9.064  -6.318   8.000  0.00  0.00    +0.023 A 
ATOM     20  C   UNL     1     -10.151  -7.162   7.877  0.00  0.00    +0.002 A 
ATOM     21  C   UNL     1     -11.272  -6.751   7.181  0.00  0.00    +0.000 A 
ATOM     22  C   UNL     1     -11.313  -5.492   6.610  0.00  0.00    +0.002 A 
ATOM     23  C   UNL     1     -10.232  -4.641   6.734  0.00  0.00    +0.023 A 
ENDBRANCH  15  18
ENDBRANCH   8  10
BRANCH   1  24
ATOM     24  N   UNL     1      -0.047  -0.952   1.114  0.00  0.00    -0.203 N 
BRANCH  24  25
ATOM     25  S   UNL     1       0.455  -2.352   0.386  0.00  0.00    +0.043 S 
ATOM     26  O   UNL     1      -0.731  -3.115   0.211  0.00  0.00    -0.155 OA
ATOM     27  O   UNL     1       1.214  -1.926  -0.737  0.00  0.00    -0.155 OA
ATOM     28  C   UNL     1       1.536  -3.150   1.605  0.00  0.00    +0.218 C 
ENDBRANCH  24  25
BRANCH  24  29
ATOM     29  C   UNL     1       0.694   0.293   0.895  0.00  0.00    +0.166 C 
BRANCH  29  34
ATOM     30  C   UNL     1       4.504   1.043   5.175  0.00  0.00    +0.044 C 
ATOM     31  C   UNL     1       3.511   0.848   4.059  0.00  0.00    -0.050 A 
ATOM     32  C   UNL     1       3.909   0.256   2.874  0.00  0.00    +0.003 A 
ATOM     33  C   UNL     1       2.997   0.077   1.851  0.00  0.00    +0.005 A 
ATOM     34  C   UNL     1       1.688   0.488   2.011  0.00  0.00    -0.028 A 
ATOM     35  C   UNL     1       1.291   1.085   3.194  0.00  0.00    +0.005 A 
ATOM     36  C   UNL     1       2.201   1.260   4.219  0.00  0.00    +0.003 A 
ENDBRANCH  29  34
ENDBRANCH  24  29
ENDBRANCH   1  24
TORSDOF 6
