REMARK  Name = ZINC35782755
REMARK  7 active torsions:
REMARK  status: ('A' for Active; 'I' for Inactive)
REMARK    1  A    between atoms: C_1  and  C_2
REMARK    2  A    between atoms: N_5  and  C_11
REMARK    3  A    between atoms: C_6  and  C_10
REMARK    4  A    between atoms: C_11  and  C_13
REMARK    5  A    between atoms: C_11  and  C_14
REMARK    6  A    between atoms: N_16  and  C_17
REMARK    7  A    between atoms: C_21  and  N_23
REMARK                            x       y       z     vdW  Elec       q    Type
REMARK                         _______ _______ _______ _____ _____    ______ ____
ROOT
ATOM      1  C   UNL     1       0.905  -2.132  -3.720  0.00  0.00    +0.234 C 
ATOM      2  O   UNL     1      -0.152  -1.538  -3.758  0.00  0.00    -0.274 OA
ATOM      3  N   UNL     1       1.506  -2.512  -4.865  0.00  0.00    -0.284 N 
ATOM      4  H   UNL     1       2.315  -3.046  -4.834  0.00  0.00    +0.155 HD
ENDROOT
BRANCH   3   5
ATOM      5  C   UNL     1       0.962  -2.136  -6.099  0.00  0.00    +0.035 A 
ATOM      6  C   UNL     1       0.334  -0.905  -6.236  0.00  0.00    +0.026 A 
ATOM      7  C   UNL     1      -0.204  -0.533  -7.454  0.00  0.00    +0.042 A 
ATOM      8  C   UNL     1      -0.119  -1.385  -8.540  0.00  0.00    +0.144 A 
ATOM      9  C   UNL     1       0.509  -2.620  -8.408  0.00  0.00    +0.062 A 
ATOM     10  C   UNL     1       1.055  -2.992  -7.188  0.00  0.00    +0.049 A 
ATOM     11  F   UNL     1      -0.646  -1.019  -9.728  0.00  0.00    -0.204 F 
BRANCH   9  12
ATOM     12  N   UNL     1       0.595  -3.482  -9.505  0.00  0.00    -0.356 N 
ATOM     13  H   UNL     1       0.216  -3.220 -10.359  0.00  0.00    +0.142 HD
ATOM     14  H   UNL     1       1.033  -4.343  -9.413  0.00  0.00    +0.142 HD
ENDBRANCH   9  12
ENDBRANCH   3   5
BRANCH   1  15
ATOM     15  C   UNL     1       1.546  -2.444  -2.393  0.00  0.00    +0.141 C 
ATOM     16  C   UNL     1       1.641  -3.961  -2.216  0.00  0.00    +0.034 C 
BRANCH  15  20
ATOM     17  C   UNL     1      -2.841  -2.420  -0.161  0.00  0.00    +0.039 C 
ATOM     18  C   UNL     1      -1.409  -1.881  -0.127  0.00  0.00    +0.129 C 
ATOM     19  C   UNL     1      -0.617  -2.456  -1.304  0.00  0.00    +0.116 C 
ATOM     20  N   UNL     1       0.733  -1.875  -1.310  0.00  0.00    -0.284 NA
ATOM     21  C   UNL     1       0.669  -0.410  -1.413  0.00  0.00    +0.080 C 
ATOM     22  C   UNL     1      -0.136   0.145  -0.235  0.00  0.00    +0.178 C 
ATOM     23  O   UNL     1      -1.434  -0.454  -0.226  0.00  0.00    -0.374 OA
ATOM     24  C   UNL     1       2.086   0.167  -1.382  0.00  0.00    +0.026 C 
ENDBRANCH  15  20
ENDBRANCH   1  15
TORSDOF 4
