REMARK  Name = ZINC12584169
REMARK  4 active torsions:
REMARK  status: ('A' for Active; 'I' for Inactive)
REMARK    1  A    between atoms: C_3  and  C_9
REMARK    2  A    between atoms: C_9  and  N_49
REMARK    3  A    between atoms: C_15  and  C_17
REMARK    4  A    between atoms: C_17  and  C_18
REMARK                            x       y       z     vdW  Elec       q    Type
REMARK                         _______ _______ _______ _____ _____    ______ ____
ROOT
ATOM      1  C   UNL     1       1.260  -0.458  -0.097  0.00  0.00    -0.058 C 
ATOM      2  C   UNL     1       2.349   0.162   0.781  0.00  0.00    +0.085 C 
ATOM      3  N   UNL     1       2.129   1.599   0.911  0.00  0.00    -0.318 N 
ATOM      4  C   UNL     1       0.956   2.183   0.641  0.00  0.00    +0.200 C 
ATOM      5  O   UNL     1       0.852   3.380   0.805  0.00  0.00    -0.278 OA
ATOM      6  C   UNL     1      -0.237   1.417   0.144  0.00  0.00    +0.028 C 
ATOM      7  H   UNL     1       2.867   2.156   1.205  0.00  0.00    +0.149 HD
ATOM      8  N   UNL     1      -0.051  -0.019   0.422  0.00  0.00    +0.391 N 
ATOM      9  H   UNL     1      -0.078  -0.171   1.437  0.00  0.00    -0.080 HD
ENDROOT
BRANCH   8  10
ATOM     10  C   UNL     1      -1.136  -0.802  -0.211  0.00  0.00    -0.040 C 
BRANCH  10  13
ATOM     11  C   UNL     1      -1.625  -3.992   1.749  0.00  0.00    +0.038 A 
ATOM     12  C   UNL     1      -1.725  -2.675   1.342  0.00  0.00    +0.006 A 
ATOM     13  C   UNL     1      -1.026  -2.239   0.232  0.00  0.00    -0.045 A 
ATOM     14  C   UNL     1      -0.231  -3.122  -0.477  0.00  0.00    +0.045 A 
ATOM     15  C   UNL     1      -0.125  -4.438  -0.067  0.00  0.00    +0.058 A 
ATOM     16  C   UNL     1      -0.825  -4.875   1.045  0.00  0.00    +0.125 A 
ATOM     17  F   UNL     1      -0.727  -6.162   1.443  0.00  0.00    -0.205 F 
ATOM     18 CL   UNL     1       0.641  -2.575  -1.875  0.00  0.00    -0.083 Cl
ENDBRANCH  10  13
ENDBRANCH   8  10
BRANCH   6  19
ATOM     19  C   UNL     1      -1.492   1.906   0.870  0.00  0.00    +0.090 C 
BRANCH  19  20
ATOM     20  C   UNL     1      -1.367   1.613   2.343  0.00  0.00    +0.215 C 
ATOM     21  O   UNL     1      -0.418   0.980   2.757  0.00  0.00    -0.276 OA
ATOM     22  N   UNL     1      -2.308   2.055   3.201  0.00  0.00    -0.297 N 
ATOM     23  C   UNL     1      -2.199   1.770   4.639  0.00  0.00    +0.113 C 
ATOM     24  C   UNL     1      -2.013   3.110   5.378  0.00  0.00    +0.061 C 
ATOM     25  C   UNL     1      -2.958   4.112   4.798  0.00  0.00    -0.004 A 
ATOM     26  C   UNL     1      -3.629   4.042   3.617  0.00  0.00    -0.020 A 
ATOM     27  C   UNL     1      -4.453   5.121   3.300  0.00  0.00    +0.013 A 
ATOM     28  C   UNL     1      -4.556   6.166   4.152  0.00  0.00    +0.046 A 
ATOM     29  S   UNL     1      -3.467   5.668   5.479  0.00  0.00    -0.101 S 
ATOM     30  C   UNL     1      -3.460   2.823   2.711  0.00  0.00    +0.143 C 
ENDBRANCH  19  20
ENDBRANCH   6  19
TORSDOF 4
