REMARK  Name = ZINC39600364
REMARK  9 active torsions:
REMARK  status: ('A' for Active; 'I' for Inactive)
REMARK    1  A    between atoms: C_1  and  C_2
REMARK    2  A    between atoms: C_2  and  C_3
REMARK    3  A    between atoms: C_3  and  C_4
REMARK    4  A    between atoms: C_3  and  C_6
REMARK    5  A    between atoms: C_4  and  C_5
REMARK    6  A    between atoms: C_10  and  C_19
REMARK    7  A    between atoms: N_21  and  C_22
REMARK    8  A    between atoms: C_22  and  C_23
REMARK    9  A    between atoms: C_25  and  C_30
REMARK                            x       y       z     vdW  Elec       q    Type
REMARK                         _______ _______ _______ _____ _____    ______ ____
ROOT
ATOM      1  C   UNL     1      -1.372  -2.184   0.238  0.00  0.00    +0.219 C 
ATOM      2  O   UNL     1      -0.317  -2.735   0.471  0.00  0.00    -0.275 OA
ATOM      3  N   UNL     1      -2.502  -2.911   0.134  0.00  0.00    -0.300 N 
ATOM      4  C   UNL     1      -3.886  -2.416  -0.053  0.00  0.00    +0.121 C 
ATOM      5  C   UNL     1      -4.528  -3.415  -1.042  0.00  0.00    +0.100 C 
ATOM      6  C   UNL     1      -3.708  -4.707  -0.882  0.00  0.00    -0.004 C 
ATOM      7  C   UNL     1      -2.641  -4.387   0.175  0.00  0.00    +0.115 C 
ATOM      8  C   UNL     1      -4.603  -5.845  -0.403  0.00  0.00    -0.010 C 
ATOM      9  C   UNL     1      -3.778  -7.132  -0.308  0.00  0.00    -0.082 C 
ATOM     10  N   UNL     1      -3.210  -7.450  -1.623  0.00  0.00    +0.379 N 
ATOM     11  C   UNL     1      -2.279  -6.393  -2.035  0.00  0.00    -0.082 C 
ATOM     12  C   UNL     1      -3.040  -5.075  -2.204  0.00  0.00    -0.010 C 
ATOM     13  H   UNL     1      -2.718  -8.329  -1.572  0.00  0.00    -0.086 HD
ATOM     14  H   UNL     1      -3.954  -7.523  -2.301  0.00  0.00    -0.086 HD
ENDROOT
BRANCH   5  15
ATOM     15  C   UNL     1      -4.425  -2.896  -2.453  0.00  0.00    +0.218 C 
ATOM     16  O   UNL     1      -3.460  -2.244  -2.790  0.00  0.00    -0.275 OA
ATOM     17  N   UNL     1      -5.405  -3.158  -3.340  0.00  0.00    -0.311 N 
ATOM     18  H   UNL     1      -6.177  -3.680  -3.071  0.00  0.00    +0.149 HD
BRANCH  17  19
ATOM     19  C   UNL     1      -5.304  -2.653  -4.712  0.00  0.00    +0.139 C 
BRANCH  19  20
ATOM     20  C   UNL     1      -6.519  -3.081  -5.495  0.00  0.00    -0.027 A 
ATOM     21  C   UNL     1      -6.514  -4.283  -6.177  0.00  0.00    +0.017 A 
ATOM     22  C   UNL     1      -7.628  -4.677  -6.895  0.00  0.00    +0.058 A 
ATOM     23  C   UNL     1      -8.748  -3.868  -6.932  0.00  0.00    +0.050 A 
ATOM     24  C   UNL     1      -8.754  -2.663  -6.250  0.00  0.00    +0.124 A 
ATOM     25  C   UNL     1      -7.640  -2.273  -5.526  0.00  0.00    +0.043 A 
ATOM     26  F   UNL     1      -9.848  -1.872  -6.286  0.00  0.00    -0.205 F 
BRANCH  22  27
ATOM     27  C   UNL     1      -7.620  -5.988  -7.638  0.00  0.00    +0.418 C 
ATOM     28  F   UNL     1      -8.093  -7.002  -6.798  0.00  0.00    -0.166 F 
ATOM     29  F   UNL     1      -8.446  -5.891  -8.763  0.00  0.00    -0.166 F 
ATOM     30  F   UNL     1      -6.315  -6.287  -8.042  0.00  0.00    -0.166 F 
ENDBRANCH  22  27
ENDBRANCH  19  20
ENDBRANCH  17  19
ENDBRANCH   5  15
BRANCH   1  31
ATOM     31  C   UNL     1      -1.420  -0.688   0.066  0.00  0.00    +0.075 C 
BRANCH  31  33
ATOM     32  C   UNL     1      -1.722   1.488   1.255  0.00  0.00    +0.004 C 
ATOM     33  C   UNL     1      -1.549  -0.021   1.437  0.00  0.00    +0.009 C 
ENDBRANCH  31  33
BRANCH  31  34
ATOM     34  C   UNL     1      -0.135  -0.212  -0.614  0.00  0.00    +0.009 C 
ATOM     35  C   UNL     1      -0.075  -0.769  -2.038  0.00  0.00    +0.004 C 
ENDBRANCH  31  34
ENDBRANCH   1  31
TORSDOF 7
