REMARK  Name = ZINC12745820
REMARK  4 active torsions:
REMARK  status: ('A' for Active; 'I' for Inactive)
REMARK    1  A    between atoms: C_4  and  C_7
REMARK    2  A    between atoms: C_8  and  C_18
REMARK    3  A    between atoms: N_10  and  C_12
REMARK    4  A    between atoms: C_22  and  C_31
REMARK                            x       y       z     vdW  Elec       q    Type
REMARK                         _______ _______ _______ _____ _____    ______ ____
ROOT
ATOM      1  C   UNL     1      -1.780   0.583   4.745  0.00  0.00    +0.105 A 
ATOM      2  C   UNL     1      -1.462   1.330   3.523  0.00  0.00    +0.083 A 
ATOM      3  C   UNL     1      -1.932   2.612   3.718  0.00  0.00    +0.128 A 
ATOM      4  N   UNL     1      -2.498   2.663   4.937  0.00  0.00    -0.239 N 
ATOM      5  N   UNL     1      -2.394   1.415   5.555  0.00  0.00    -0.166 NA
ENDROOT
BRANCH   2   6
ATOM      6  C   UNL     1      -0.773   0.815   2.328  0.00  0.00    +0.255 C 
ATOM      7  O   UNL     1      -0.828  -0.370   2.057  0.00  0.00    -0.270 OA
ATOM      8  N   UNL     1      -0.081   1.656   1.534  0.00  0.00    -0.260 N 
ATOM      9  C   UNL     1      -0.075   3.107   1.784  0.00  0.00    +0.168 C 
ATOM     10  C   UNL     1       1.362   3.609   1.579  0.00  0.00    +0.276 C 
ATOM     11  O   UNL     1       1.777   3.287   0.249  0.00  0.00    -0.476 OA
ATOM     12  C   UNL     1       1.587   2.012  -0.182  0.00  0.00    +0.143 A 
ATOM     13  C   UNL     1       0.662   1.179   0.441  0.00  0.00    +0.079 A 
ATOM     14  C   UNL     1       0.476  -0.117  -0.013  0.00  0.00    +0.027 A 
ATOM     15  C   UNL     1       1.213  -0.584  -1.085  0.00  0.00    +0.002 A 
ATOM     16  C   UNL     1       2.134   0.241  -1.705  0.00  0.00    +0.004 A 
ATOM     17  C   UNL     1       2.323   1.535  -1.257  0.00  0.00    +0.047 A 
BRANCH  10  18
ATOM     18  C   UNL     1       1.408   5.102   1.774  0.00  0.00    +0.253 C 
ATOM     19  O   UNL     1       1.686   5.828   0.843  0.00  0.00    -0.272 OA
ATOM     20  N   UNL     1       1.141   5.632   2.985  0.00  0.00    -0.326 N 
ATOM     21  H   UNL     1       0.918   5.051   3.730  0.00  0.00    +0.145 HD
ATOM     22  H   UNL     1       1.171   6.593   3.111  0.00  0.00    +0.145 HD
ENDBRANCH  10  18
ENDBRANCH   2   6
BRANCH   1  26
ATOM     23  C   UNL     1      -0.881  -3.500   5.517  0.00  0.00    +0.000 A 
ATOM     24  C   UNL     1      -0.839  -2.579   6.548  0.00  0.00    +0.001 A 
ATOM     25  C   UNL     1      -1.130  -1.252   6.303  0.00  0.00    +0.010 A 
ATOM     26  C   UNL     1      -1.466  -0.841   5.014  0.00  0.00    +0.003 A 
ATOM     27  C   UNL     1      -1.512  -1.775   3.980  0.00  0.00    +0.010 A 
ATOM     28  C   UNL     1      -1.214  -3.098   4.236  0.00  0.00    +0.001 A 
ENDBRANCH   1  26
BRANCH   4  29
ATOM     29  C   UNL     1      -3.094   3.798   5.503  0.00  0.00    +0.065 A 
ATOM     30  C   UNL     1      -3.336   4.920   4.721  0.00  0.00    +0.028 A 
ATOM     31  C   UNL     1      -3.929   6.035   5.281  0.00  0.00    +0.002 A 
ATOM     32  C   UNL     1      -4.271   6.038   6.621  0.00  0.00    +0.000 A 
ATOM     33  C   UNL     1      -4.027   4.924   7.403  0.00  0.00    +0.002 A 
ATOM     34  C   UNL     1      -3.439   3.804   6.848  0.00  0.00    +0.028 A 
ENDBRANCH   4  29
TORSDOF 4
