REMARK  Name = ZINC06995523
REMARK  3 active torsions:
REMARK  status: ('A' for Active; 'I' for Inactive)
REMARK    1  A    between atoms: C_1  and  C_2
REMARK    2  A    between atoms: C_17  and  O_34
REMARK    3  A    between atoms: C_19  and  C_33
REMARK                            x       y       z     vdW  Elec       q    Type
REMARK                         _______ _______ _______ _____ _____    ______ ____
ROOT
ATOM      1  C   UNL     1      -0.019   1.527   0.010  0.00  0.00    +0.016 C 
ATOM      2  C   UNL     1       0.002  -0.004   0.002  0.00  0.00    -0.003 C 
ATOM      3  C   UNL     1      -1.427  -0.540   0.019  0.00  0.00    +0.019 C 
ATOM      4  C   UNL     1      -2.119  -0.141   1.325  0.00  0.00    +0.080 C 
ATOM      5  C   UNL     1      -1.294  -0.584   2.504  0.00  0.00    +0.156 C 
ATOM      6  O   UNL     1      -1.836  -0.811   3.568  0.00  0.00    -0.293 OA
ATOM      7  C   UNL     1       0.098  -0.740   2.387  0.00  0.00    +0.050 C 
ATOM      8  C   UNL     1       0.733  -0.491   1.227  0.00  0.00    -0.035 C 
ATOM      9  C   UNL     1       2.179  -0.707   1.082  0.00  0.00    -0.050 C 
ATOM     10  C   UNL     1       3.078  -0.079   1.839  0.00  0.00    +0.012 C 
ATOM     11  C   UNL     1       2.573  -1.694   0.009  0.00  0.00    +0.039 C 
ATOM     12  C   UNL     1       1.463  -1.791  -1.046  0.00  0.00    +0.001 C 
ATOM     13  C   UNL     1       0.743  -0.474  -1.255  0.00  0.00    +0.005 C 
ATOM     14  C   UNL     1      -0.284  -0.602  -2.385  0.00  0.00    +0.036 C 
ATOM     15  C   UNL     1       0.391  -1.048  -3.674  0.00  0.00    +0.124 C 
ATOM     16  C   UNL     1       1.145  -2.350  -3.523  0.00  0.00    +0.031 C 
ATOM     17  C   UNL     1       2.125  -2.299  -2.329  0.00  0.00    +0.004 C 
ATOM     18  C   UNL     1       2.439  -3.807  -2.103  0.00  0.00    +0.007 C 
ATOM     19  C   UNL     1       1.089  -4.511  -2.365  0.00  0.00    +0.041 C 
ATOM     20  C   UNL     1       0.275  -3.566  -3.269  0.00  0.00    +0.136 C 
ATOM     21  C   UNL     1      -0.278  -4.289  -4.478  0.00  0.00    +0.228 C 
ATOM     22  C   UNL     1       0.555  -5.522  -4.871  0.00  0.00    +0.230 C 
ATOM     23  O   UNL     1       0.167  -5.702  -6.258  0.00  0.00    -0.349 OA
ATOM     24  C   UNL     1       0.061  -4.353  -6.761  0.00  0.00    +0.326 C 
ATOM     25  O   UNL     1      -0.367  -3.513  -5.673  0.00  0.00    -0.318 OA
ATOM     26  O   UNL     1      -1.603  -4.724  -4.103  0.00  0.00    -0.318 OA
ATOM     27  C   UNL     1      -1.797  -4.314  -2.735  0.00  0.00    +0.327 C 
ATOM     28  O   UNL     1      -0.920  -3.181  -2.540  0.00  0.00    -0.341 OA
ATOM     29  C   UNL     1       2.017  -2.540  -4.774  0.00  0.00    +0.017 C 
ENDROOT
BRANCH  15  30
ATOM     30  O   UNL     1      -0.595  -1.175  -4.702  0.00  0.00    -0.391 OA
ATOM     31  H   UNL     1      -1.069  -0.355  -4.895  0.00  0.00    +0.210 HD
ENDBRANCH  15  30
TORSDOF 1
