REMARK  Name = ZINC09059062
REMARK  3 active torsions:
REMARK  status: ('A' for Active; 'I' for Inactive)
REMARK    1  A    between atoms: C_1  and  C_2
REMARK    2  A    between atoms: N_12  and  S_13
REMARK    3  A    between atoms: S_13  and  C_16
REMARK                            x       y       z     vdW  Elec       q    Type
REMARK                         _______ _______ _______ _____ _____    ______ ____
ROOT
ATOM      1  C   UNL     1       0.546   4.021   5.688  0.00  0.00    +0.031 C 
ATOM      2  C   UNL     1       1.473   4.368   4.521  0.00  0.00    +0.107 C 
ATOM      3  C   UNL     1       0.714   4.245   3.223  0.00  0.00    -0.022 A 
ATOM      4  C   UNL     1       0.375   2.967   2.794  0.00  0.00    +0.055 A 
ATOM      5  C   UNL     1      -0.331   2.792   1.619  0.00  0.00    +0.162 A 
ATOM      6  C   UNL     1      -0.703   3.898   0.867  0.00  0.00    +0.162 A 
ATOM      7  C   UNL     1      -0.365   5.166   1.295  0.00  0.00    +0.053 A 
ATOM      8  C   UNL     1       0.350   5.343   2.476  0.00  0.00    -0.038 A 
ATOM      9  C   UNL     1       0.697   6.753   2.874  0.00  0.00    +0.052 C 
ATOM     10  C   UNL     1       1.026   6.833   4.364  0.00  0.00    +0.115 C 
ATOM     11  N   UNL     1       1.963   5.741   4.679  0.00  0.00    -0.169 NA
ATOM     12  O   UNL     1      -1.403   3.720  -0.291  0.00  0.00    -0.488 OA
ATOM     13  C   UNL     1      -0.690   3.098  -1.362  0.00  0.00    +0.232 C 
ATOM     14  C   UNL     1      -0.736   1.583  -1.234  0.00  0.00    +0.082 C 
ATOM     15  C   UNL     1      -0.013   1.086   0.008  0.00  0.00    +0.232 C 
ATOM     16  O   UNL     1      -0.670   1.541   1.193  0.00  0.00    -0.488 OA
ENDROOT
BRANCH  11  17
ATOM     17  S   UNL     1       3.507   6.052   5.191  0.00  0.00    +0.061 S 
ATOM     18  O   UNL     1       3.491   7.353   5.761  0.00  0.00    -0.153 OA
ATOM     19  O   UNL     1       3.932   4.907   5.916  0.00  0.00    -0.153 OA
BRANCH  17  20
ATOM     20  C   UNL     1       4.523   6.144   3.754  0.00  0.00    +0.107 A 
ATOM     21  C   UNL     1       4.710   7.357   3.116  0.00  0.00    +0.030 A 
ATOM     22  C   UNL     1       5.506   7.431   1.990  0.00  0.00    +0.023 A 
ATOM     23  C   UNL     1       6.118   6.291   1.499  0.00  0.00    +0.059 A 
ATOM     24  C   UNL     1       5.931   5.076   2.138  0.00  0.00    +0.061 A 
ATOM     25  C   UNL     1       5.138   5.005   3.269  0.00  0.00    +0.050 A 
ATOM     26 CL   UNL     1       6.698   3.645   1.524  0.00  0.00    -0.082 Cl
ATOM     27 CL   UNL     1       7.119   6.383   0.084  0.00  0.00    -0.082 Cl
ENDBRANCH  17  20
ENDBRANCH  11  17
TORSDOF 2
