REMARK  Name = ZINC01051040
REMARK  9 active torsions:
REMARK  status: ('A' for Active; 'I' for Inactive)
REMARK    1  A    between atoms: C_1  and  C_2
REMARK    2  A    between atoms: C_2  and  C_3
REMARK    3  A    between atoms: C_11  and  C_18
REMARK    4  A    between atoms: C_13  and  N_17
REMARK    5  A    between atoms: C_14  and  C_15
REMARK    6  A    between atoms: C_21  and  N_24
REMARK    7  A    between atoms: C_30  and  C_34
REMARK    8  A    between atoms: C_30  and  C_35
REMARK    9  A    between atoms: C_32  and  C_33
REMARK                            x       y       z     vdW  Elec       q    Type
REMARK                         _______ _______ _______ _____ _____    ______ ____
ROOT
ATOM      1  C   UNL     1      -4.014   5.376   1.407  0.00  0.00    -0.047 A 
ATOM      2  C   UNL     1      -4.196   4.005   1.387  0.00  0.00    +0.013 A 
ATOM      3  C   UNL     1      -3.079   3.169   1.348  0.00  0.00    -0.000 A 
ATOM      4  C   UNL     1      -1.821   3.756   1.328  0.00  0.00    +0.049 A 
ATOM      5  C   UNL     1      -1.638   5.120   1.348  0.00  0.00    -0.001 A 
ATOM      6  C   UNL     1      -2.745   5.939   1.387  0.00  0.00    +0.010 A 
ATOM      7  C   UNL     1      -0.144   5.306   1.315  0.00  0.00    +0.135 C 
ATOM      8  C   UNL     1       0.329   6.013   2.551  0.00  0.00    +0.046 C 
ATOM      9  C   UNL     1       0.725   7.279   2.506  0.00  0.00    +0.135 C 
ATOM     10  O   UNL     1       0.721   7.989   1.355  0.00  0.00    -0.441 OA
ATOM     11  C   UNL     1       0.673   7.352   0.171  0.00  0.00    +0.199 C 
ATOM     12  C   UNL     1       0.266   6.060   0.083  0.00  0.00    +0.109 C 
ATOM     13  C   UNL     1       0.415   3.898   1.274  0.00  0.00    +0.240 C 
ATOM     14  O   UNL     1       1.588   3.590   1.238  0.00  0.00    -0.274 OA
ATOM     15  N   UNL     1      -0.634   3.050   1.287  0.00  0.00    -0.260 N 
ATOM     16  C   UNL     1      -0.729   1.579   1.267  0.00  0.00    +0.055 C 
ATOM     17  C   UNL     1      -2.101   0.948   1.290  0.00  0.00    +0.002 C 
ATOM     18  C   UNL     1      -3.196   1.698   1.329  0.00  0.00    -0.043 C 
ATOM     19  C   UNL     1      -4.556   1.050   1.351  0.00  0.00    +0.044 C 
ATOM     20  C   UNL     1      -0.013   1.086   0.008  0.00  0.00    +0.036 C 
ATOM     21  C   UNL     1       0.047   1.047   2.473  0.00  0.00    +0.036 C 
ENDROOT
BRANCH   9  22
ATOM     22  C   UNL     1       1.185   7.933   3.752  0.00  0.00    +0.017 A 
ATOM     23  C   UNL     1       1.193   7.224   4.953  0.00  0.00    +0.014 A 
ATOM     24  C   UNL     1       1.626   7.837   6.111  0.00  0.00    +0.033 A 
ATOM     25  C   UNL     1       2.043   9.156   6.083  0.00  0.00    +0.126 A 
ATOM     26  C   UNL     1       2.032   9.867   4.896  0.00  0.00    +0.033 A 
ATOM     27  C   UNL     1       1.605   9.262   3.731  0.00  0.00    +0.014 A 
BRANCH  25  28
ATOM     28  N   UNL     1       2.502   9.810   7.329  0.00  0.00    +0.056 N 
ATOM     29  O   UNL     1       2.869  10.971   7.308  0.00  0.00    -0.126 OA
ATOM     30  O   UNL     1       2.513   9.187   8.376  0.00  0.00    -0.126 OA
ENDBRANCH  25  28
ENDBRANCH   9  22
BRANCH  11  31
ATOM     31  N   UNL     1       1.043   8.022  -0.969  0.00  0.00    -0.328 N 
ATOM     32  H   UNL     1       1.013   7.571  -1.827  0.00  0.00    +0.145 HD
ATOM     33  H   UNL     1       1.335   8.945  -0.916  0.00  0.00    +0.145 HD
ENDBRANCH  11  31
BRANCH   1  35
ATOM     34  C   UNL     1      -5.596   6.560   2.906  0.00  0.00    +0.009 C 
ATOM     35  C   UNL     1      -5.220   6.279   1.449  0.00  0.00    +0.032 C 
ENDBRANCH   1  35
BRANCH  12  36
ATOM     36  C   UNL     1       0.228   5.412  -1.194  0.00  0.00    +0.102 C 
ATOM     37  N   UNL     1       0.197   4.897  -2.206  0.00  0.00    -0.191 NA
ENDBRANCH  12  36
TORSDOF 5
