REMARK  Name = ZINC04011735
REMARK  3 active torsions:
REMARK  status: ('A' for Active; 'I' for Inactive)
REMARK    1  A    between atoms: C_4  and  C_7
REMARK    2  A    between atoms: N_9  and  C_18
REMARK    3  A    between atoms: N_10  and  C_12
REMARK                            x       y       z     vdW  Elec       q    Type
REMARK                         _______ _______ _______ _____ _____    ______ ____
ROOT
ATOM      1  C   UNL     1      -0.082  -0.023  -0.203  0.00  0.00    +0.164 C 
ATOM      2  N   UNL     1       1.029  -0.641   0.061  0.00  0.00    -0.143 NA
ATOM      3  N   UNL     1       0.776  -2.006   0.247  0.00  0.00    -0.120 N 
ATOM      4  N   UNL     1      -0.605  -2.198   0.075  0.00  0.00    -0.147 N 
ATOM      5  N   UNL     1      -1.139  -0.929  -0.204  0.00  0.00    -0.228 N 
ATOM      6  H   UNL     1      -2.072  -0.723  -0.370  0.00  0.00    +0.173 HD
ENDROOT
BRANCH   1  10
ATOM      7  C   UNL     1      -0.440   4.146  -0.935  0.00  0.00    +0.000 A 
ATOM      8  C   UNL     1       0.802   3.598  -0.664  0.00  0.00    +0.001 A 
ATOM      9  C   UNL     1       0.925   2.245  -0.425  0.00  0.00    +0.011 A 
ATOM     10  C   UNL     1      -0.206   1.428  -0.458  0.00  0.00    +0.018 A 
ATOM     11  C   UNL     1      -1.455   1.986  -0.738  0.00  0.00    +0.011 A 
ATOM     12  C   UNL     1      -1.565   3.341  -0.969  0.00  0.00    +0.001 A 
ENDBRANCH   1  10
BRANCH   4  13
ATOM     13  C   UNL     1      -1.304  -3.403   0.168  0.00  0.00    +0.071 A 
ATOM     14  C   UNL     1      -0.613  -4.602   0.286  0.00  0.00    +0.026 A 
ATOM     15  C   UNL     1      -1.308  -5.792   0.383  0.00  0.00    +0.002 A 
ATOM     16  C   UNL     1      -2.690  -5.791   0.352  0.00  0.00    +0.000 A 
ATOM     17  C   UNL     1      -3.382  -4.600   0.229  0.00  0.00    +0.002 A 
ATOM     18  C   UNL     1      -2.693  -3.406   0.137  0.00  0.00    +0.026 A 
ENDBRANCH   4  13
BRANCH   3  19
ATOM     19  C   UNL     1       1.718  -2.989   0.545  0.00  0.00    +0.075 A 
ATOM     20  C   UNL     1       1.695  -3.623   1.782  0.00  0.00    +0.027 A 
ATOM     21  C   UNL     1       2.627  -4.600   2.073  0.00  0.00    +0.002 A 
ATOM     22  C   UNL     1       3.589  -4.940   1.139  0.00  0.00    +0.000 A 
ATOM     23  C   UNL     1       3.618  -4.308  -0.091  0.00  0.00    +0.002 A 
ATOM     24  C   UNL     1       2.686  -3.334  -0.391  0.00  0.00    +0.027 A 
ENDBRANCH   3  19
TORSDOF 3
