REMARK  Name = ZINC35554361
REMARK  4 active torsions:
REMARK  status: ('A' for Active; 'I' for Inactive)
REMARK    1  A    between atoms: C_8  and  C_25
REMARK    2  A    between atoms: N_15  and  C_17
REMARK    3  A    between atoms: C_17  and  C_18
REMARK    4  A    between atoms: N_30  and  C_33
REMARK                            x       y       z     vdW  Elec       q    Type
REMARK                         _______ _______ _______ _____ _____    ______ ____
ROOT
ATOM      1  C   UNL     1      -0.057   1.322   0.066  0.00  0.00    +0.000 A 
ATOM      2  C   UNL     1       1.116   2.054   0.048  0.00  0.00    +0.002 A 
ATOM      3  C   UNL     1       2.334   1.406   0.009  0.00  0.00    +0.023 A 
ATOM      4  C   UNL     1       2.382   0.016  -0.012  0.00  0.00    +0.033 A 
ATOM      5  C   UNL     1       1.204  -0.716   0.009  0.00  0.00    -0.026 A 
ATOM      6  C   UNL     1      -0.013  -0.059   0.047  0.00  0.00    +0.005 A 
ATOM      7  C   UNL     1       1.241  -2.216  -0.003  0.00  0.00    +0.051 C 
ATOM      8  C   UNL     1       2.464  -2.749  -0.719  0.00  0.00    +0.098 C 
ATOM      9  C   UNL     1       3.749  -2.050  -0.369  0.00  0.00    +0.069 C 
ATOM     10  N   UNL     1       3.608  -0.634  -0.056  0.00  0.00    -0.329 N 
ATOM     11  C   UNL     1       4.844   0.106   0.272  0.00  0.00    +0.087 C 
ATOM     12  C   UNL     1       5.543  -0.658   1.405  0.00  0.00    -0.059 C 
ATOM     13  N   UNL     1       5.770  -2.050   1.000  0.00  0.00    +0.388 N 
ATOM     14  C   UNL     1       4.490  -2.739   0.778  0.00  0.00    -0.055 C 
ATOM     15  H   UNL     1       6.308  -2.065   0.147  0.00  0.00    -0.081 HD
ENDROOT
BRANCH   8  16
ATOM     16  C   UNL     1       2.242  -2.619  -2.204  0.00  0.00    +0.221 C 
ATOM     17  O   UNL     1       2.507  -1.578  -2.768  0.00  0.00    -0.275 OA
ATOM     18  N   UNL     1       1.750  -3.658  -2.906  0.00  0.00    -0.298 N 
ATOM     19  C   UNL     1       1.303  -4.879  -2.221  0.00  0.00    +0.126 C 
ATOM     20  C   UNL     1      -0.148  -5.166  -2.626  0.00  0.00    +0.124 C 
ATOM     21  N   UNL     1      -0.249  -5.099  -4.091  0.00  0.00    -0.327 N 
ATOM     22  C   UNL     1       0.198  -3.878  -4.776  0.00  0.00    +0.124 C 
ATOM     23  C   UNL     1       1.644  -3.589  -4.370  0.00  0.00    +0.126 C 
BRANCH  21  24
ATOM     24  C   UNL     1      -0.759  -6.176  -4.818  0.00  0.00    +0.031 A 
ATOM     25  C   UNL     1      -1.288  -7.276  -4.154  0.00  0.00    +0.023 A 
ATOM     26  C   UNL     1      -1.792  -8.340  -4.876  0.00  0.00    +0.003 A 
ATOM     27  C   UNL     1      -1.772  -8.312  -6.258  0.00  0.00    +0.020 A 
ATOM     28  C   UNL     1      -1.246  -7.218  -6.923  0.00  0.00    +0.043 A 
ATOM     29  C   UNL     1      -0.745  -6.147  -6.206  0.00  0.00    +0.043 A 
ATOM     30 CL   UNL     1      -1.222  -7.187  -8.659  0.00  0.00    -0.083 Cl
ENDBRANCH  21  24
ENDBRANCH   8  16
BRANCH  13  31
ATOM     31  C   UNL     1       6.517  -2.747   2.056  0.00  0.00    +0.019 C 
BRANCH  31  32
ATOM     32  C   UNL     1       7.890  -2.138   2.185  0.00  0.00    +0.199 C 
ATOM     33  O   UNL     1       8.213  -1.214   1.468  0.00  0.00    -0.278 OA
ATOM     34  N   UNL     1       8.758  -2.619   3.097  0.00  0.00    -0.303 N 
ATOM     35  C   UNL     1       8.499  -3.732   4.021  0.00  0.00    +0.108 C 
ATOM     36  C   UNL     1       9.763  -3.909   4.890  0.00  0.00    +0.020 C 
ATOM     37  C   UNL     1      10.449  -2.521   4.791  0.00  0.00    +0.020 C 
ATOM     38  C   UNL     1      10.125  -2.119   3.328  0.00  0.00    +0.108 C 
ENDBRANCH  31  32
ENDBRANCH  13  31
TORSDOF 4
