REMARK  Name = ZINC08801608
REMARK  9 active torsions:
REMARK  status: ('A' for Active; 'I' for Inactive)
REMARK    1  A    between atoms: C_1  and  C_2
REMARK    2  A    between atoms: C_5  and  S_9
REMARK    3  A    between atoms: C_6  and  C_8
REMARK    4  A    between atoms: S_9  and  N_12
REMARK    5  A    between atoms: N_12  and  C_13
REMARK    6  A    between atoms: C_13  and  C_14
REMARK    7  A    between atoms: C_14  and  C_16
REMARK    8  A    between atoms: C_14  and  N_63
REMARK    9  A    between atoms: N_24  and  C_25
REMARK                            x       y       z     vdW  Elec       q    Type
REMARK                         _______ _______ _______ _____ _____    ______ ____
ROOT
ATOM      1  C   UNL     1      -3.514   6.354  -1.502  0.00  0.00    -0.022 C 
ENDROOT
BRANCH   1   2
ATOM      2  C   UNL     1      -2.641   5.153  -1.243  0.00  0.00    -0.059 A 
ATOM      3  C   UNL     1      -2.280   4.825   0.051  0.00  0.00    +0.004 A 
ATOM      4  C   UNL     1      -1.484   3.725   0.292  0.00  0.00    +0.023 A 
ATOM      5  C   UNL     1      -1.037   2.937  -0.767  0.00  0.00    +0.033 A 
ATOM      6  C   UNL     1      -1.402   3.278  -2.064  0.00  0.00    -0.025 A 
ATOM      7  C   UNL     1      -2.201   4.377  -2.300  0.00  0.00    +0.007 A 
ATOM      8  C   UNL     1      -0.777   2.268  -3.006  0.00  0.00    +0.056 C 
ATOM      9  C   UNL     1       0.294   1.590  -2.121  0.00  0.00    +0.109 C 
ATOM     10  N   UNL     1      -0.238   1.783  -0.755  0.00  0.00    -0.332 N 
ATOM     11  C   UNL     1       0.851   1.902   0.223  0.00  0.00    +0.129 C 
ENDBRANCH   1   2
BRANCH   1  17
ATOM     12  C   UNL     1      -5.834   6.919  -1.099  0.00  0.00    -0.078 C 
ATOM     13  C   UNL     1      -6.971   6.813  -0.081  0.00  0.00    -0.019 C 
ATOM     14  C   UNL     1      -6.604   7.614   1.171  0.00  0.00    -0.004 C 
ATOM     15  C   UNL     1      -5.286   7.083   1.740  0.00  0.00    -0.019 C 
ATOM     16  C   UNL     1      -4.198   7.180   0.669  0.00  0.00    -0.078 C 
ATOM     17  N   UNL     1      -4.600   6.369  -0.499  0.00  0.00    +0.385 N 
ATOM     18  H   UNL     1      -4.780   5.406  -0.190  0.00  0.00    -0.081 HD
ENDBRANCH   1  17
BRANCH   1  19
ATOM     19  C   UNL     1      -2.673   7.628  -1.396  0.00  0.00    +0.095 C 
BRANCH  19  20
ATOM     20  N   UNL     1      -3.524   8.796  -1.636  0.00  0.00    -0.191 NA
ATOM     21  H   UNL     1      -4.388   8.687  -2.064  0.00  0.00    +0.148 HD
BRANCH  20  22
ATOM     22  S   UNL     1      -3.011  10.303  -1.179  0.00  0.00    +0.059 S 
ATOM     23  O   UNL     1      -4.024  11.216  -1.578  0.00  0.00    -0.153 OA
ATOM     24  O   UNL     1      -2.574  10.191   0.169  0.00  0.00    -0.153 OA
BRANCH  22  29
ATOM     25  C   UNL     1       1.874  11.599  -4.474  0.00  0.00    +0.044 C 
ATOM     26  C   UNL     1       0.654  11.276  -3.651  0.00  0.00    -0.050 A 
ATOM     27  C   UNL     1       0.761  11.140  -2.279  0.00  0.00    +0.005 A 
ATOM     28  C   UNL     1      -0.358  10.843  -1.524  0.00  0.00    +0.029 A 
ATOM     29  C   UNL     1      -1.585  10.682  -2.141  0.00  0.00    +0.108 A 
ATOM     30  C   UNL     1      -1.691  10.812  -3.513  0.00  0.00    -0.024 A 
ATOM     31  C   UNL     1      -0.573  11.114  -4.267  0.00  0.00    +0.008 A 
ATOM     32  C   UNL     1      -3.027  10.630  -4.186  0.00  0.00    +0.046 C 
ENDBRANCH  22  29
ENDBRANCH  20  22
ENDBRANCH  19  20
ENDBRANCH   1  19
TORSDOF 6
