REMARK  Name = ZINC06392301
REMARK  8 active torsions:
REMARK  status: ('A' for Active; 'I' for Inactive)
REMARK    1  A    between atoms: C_1  and  C_2
REMARK    2  A    between atoms: C_2  and  N_3
REMARK    3  A    between atoms: N_8  and  C_18
REMARK    4  A    between atoms: C_11  and  O_16
REMARK    5  A    between atoms: O_16  and  C_17
REMARK    6  A    between atoms: N_24  and  C_29
REMARK    7  A    between atoms: N_27  and  C_28
REMARK    8  A    between atoms: C_29  and  C_30
REMARK                            x       y       z     vdW  Elec       q    Type
REMARK                         _______ _______ _______ _____ _____    ______ ____
ROOT
ATOM      1  N   UNL     1      -5.730   2.017   0.085  0.00  0.00    -0.301 N 
ATOM      2  C   UNL     1      -7.037   2.139  -0.071  0.00  0.00    +0.268 A 
ATOM      3  O   UNL     1      -7.525   3.205  -0.410  0.00  0.00    -0.266 OA
ATOM      4  C   UNL     1      -7.856   1.020   0.165  0.00  0.00    +0.107 A 
ATOM      5  C   UNL     1      -9.238   0.906   0.072  0.00  0.00    +0.092 C 
ATOM      6  N   UNL     1     -10.143   1.815  -0.407  0.00  0.00    -0.296 N 
ATOM      7  C   UNL     1     -11.493   1.512  -0.415  0.00  0.00    +0.052 A 
ATOM      8  C   UNL     1     -12.547   2.324  -0.868  0.00  0.00    +0.070 A 
ATOM      9  C   UNL     1     -13.852   1.883  -0.814  0.00  0.00    +0.122 A 
ATOM     10  C   UNL     1     -14.166   0.627  -0.312  0.00  0.00    +0.047 A 
ATOM     11  C   UNL     1     -13.145  -0.191   0.140  0.00  0.00    +0.020 A 
ATOM     12  C   UNL     1     -11.844   0.250   0.085  0.00  0.00    +0.035 A 
ATOM     13  S   UNL     1     -10.282  -0.464   0.539  0.00  0.00    -0.071 S 
ATOM     14  C   UNL     1      -9.681   3.111  -0.911  0.00  0.00    +0.136 C 
ATOM     15  S   UNL     1      -6.648  -0.217   0.615  0.00  0.00    -0.062 S 
ATOM     16  C   UNL     1      -5.191   0.805   0.463  0.00  0.00    +0.110 A 
ATOM     17  C   UNL     1      -3.861   0.469   0.675  0.00  0.00    +0.129 C 
ATOM     18  C   UNL     1      -2.734   1.131   0.170  0.00  0.00    +0.269 C 
ATOM     19  O   UNL     1      -2.737   2.120  -0.546  0.00  0.00    -0.268 OA
ATOM     20  N   UNL     1      -1.647   0.474   0.616  0.00  0.00    -0.248 N 
ATOM     21  C   UNL     1      -2.027  -0.561   1.383  0.00  0.00    +0.146 C 
ATOM     22  S   UNL     1      -0.966  -1.658   2.159  0.00  0.00    -0.018 S 
ATOM     23  N   UNL     1      -3.372  -0.604   1.447  0.00  0.00    -0.279 N 
ATOM     24  C   UNL     1      -4.176  -1.582   2.184  0.00  0.00    +0.137 C 
ENDROOT
BRANCH   1  26
ATOM     25  C   UNL     1      -4.115   3.516   1.146  0.00  0.00    +0.027 C 
ATOM     26  C   UNL     1      -4.854   3.168  -0.147  0.00  0.00    +0.122 C 
ENDBRANCH   1  26
BRANCH   9  27
ATOM     27  O   UNL     1     -14.850   2.693  -1.260  0.00  0.00    -0.495 OA
ATOM     28  C   UNL     1     -16.183   2.184  -1.180  0.00  0.00    +0.277 C 
ENDBRANCH   9  27
BRANCH  20  29
ATOM     29  C   UNL     1      -0.259   0.838   0.316  0.00  0.00    +0.112 C 
ATOM     30  C   UNL     1       0.195   0.113  -0.953  0.00  0.00    +0.025 C 
ENDBRANCH  20  29
TORSDOF 3
