REMARK  Name = ZINC12821641
REMARK  4 active torsions:
REMARK  status: ('A' for Active; 'I' for Inactive)
REMARK    1  A    between atoms: C_3  and  C_16
REMARK    2  A    between atoms: C_5  and  S_7
REMARK    3  A    between atoms: S_7  and  N_10
REMARK    4  A    between atoms: N_21  and  C_24
REMARK                            x       y       z     vdW  Elec       q    Type
REMARK                         _______ _______ _______ _____ _____    ______ ____
ROOT
ATOM      1  C   UNL     1       3.471  -3.869  -2.730  0.00  0.00    +0.247 C 
ATOM      2  O   UNL     1       2.765  -4.660  -2.135  0.00  0.00    -0.270 OA
ATOM      3  N   UNL     1       3.825  -4.111  -4.008  0.00  0.00    -0.295 N 
ATOM      4  C   UNL     1       4.775  -3.231  -4.707  0.00  0.00    +0.127 C 
ATOM      5  C   UNL     1       5.878  -4.106  -5.324  0.00  0.00    +0.124 C 
ATOM      6  N   UNL     1       5.261  -5.144  -6.161  0.00  0.00    -0.326 N 
ATOM      7  C   UNL     1       4.425  -6.048  -5.360  0.00  0.00    +0.124 C 
ATOM      8  C   UNL     1       3.268  -5.256  -4.742  0.00  0.00    +0.127 C 
ENDROOT
BRANCH   6   9
ATOM      9  C   UNL     1       6.223  -5.851  -6.866  0.00  0.00    +0.040 A 
ATOM     10  C   UNL     1       7.170  -6.620  -6.209  0.00  0.00    +0.041 A 
ATOM     11  C   UNL     1       8.118  -7.319  -6.943  0.00  0.00    +0.085 A 
ATOM     12  C   UNL     1       7.274  -6.544  -8.954  0.00  0.00    +0.050 A 
ATOM     13  C   UNL     1       6.272  -5.805  -8.280  0.00  0.00    +0.019 A 
ATOM     14  C   UNL     1       5.354  -5.045  -9.018  0.00  0.00    +0.013 A 
ATOM     15  C   UNL     1       5.433  -5.026 -10.377  0.00  0.00    +0.021 A 
ATOM     16  C   UNL     1       6.418  -5.752 -11.045  0.00  0.00    +0.043 A 
ATOM     17  C   UNL     1       7.326  -6.500 -10.357  0.00  0.00    +0.046 A 
ATOM     18 CL   UNL     1       6.488  -5.704 -12.779  0.00  0.00    -0.083 Cl
ATOM     19  N   UNL     1       8.210  -7.311  -8.293  0.00  0.00    -0.361 N 
ATOM     20  H   UNL     1       8.931  -7.842  -8.794  0.00  0.00    +0.165 HD
ENDBRANCH   6   9
BRANCH   1  23
ATOM     21  C   UNL     1       4.432  -0.292  -2.105  0.00  0.00    +0.003 A 
ATOM     22  C   UNL     1       3.991  -1.433  -2.744  0.00  0.00    +0.013 A 
ATOM     23  C   UNL     1       3.942  -2.643  -2.051  0.00  0.00    +0.039 A 
ATOM     24  C   UNL     1       4.345  -2.692  -0.715  0.00  0.00    +0.041 A 
ATOM     25  C   UNL     1       4.778  -1.543  -0.086  0.00  0.00    +0.106 A 
ATOM     26  C   UNL     1       4.824  -0.346  -0.780  0.00  0.00    +0.028 A 
BRANCH  25  27
ATOM     27  S   UNL     1       5.280  -1.601   1.602  0.00  0.00    +0.061 S 
ATOM     28  O   UNL     1       6.163  -0.506   1.800  0.00  0.00    -0.153 OA
ATOM     29  O   UNL     1       5.660  -2.944   1.867  0.00  0.00    -0.153 OA
BRANCH  27  30
ATOM     30  N   UNL     1       3.937  -1.298   2.522  0.00  0.00    -0.177 NA
ATOM     31  C   UNL     1       3.074  -2.399   2.972  0.00  0.00    +0.109 C 
ATOM     32  C   UNL     1       1.632  -2.098   2.554  0.00  0.00    +0.017 C 
ATOM     33  C   UNL     1       1.226  -0.723   3.089  0.00  0.00    +0.003 C 
ATOM     34  C   UNL     1       2.138   0.350   2.488  0.00  0.00    +0.017 C 
ATOM     35  C   UNL     1       3.586   0.076   2.905  0.00  0.00    +0.109 C 
ENDBRANCH  27  30
ENDBRANCH  25  27
ENDBRANCH   1  23
TORSDOF 4
