REMARK  Name = ZINC56202610
REMARK  4 active torsions:
REMARK  status: ('A' for Active; 'I' for Inactive)
REMARK    1  A    between atoms: C_1  and  C_2
REMARK    2  A    between atoms: C_12  and  C_14
REMARK    3  A    between atoms: C_17  and  S_19
REMARK    4  A    between atoms: S_19  and  N_22
REMARK                            x       y       z     vdW  Elec       q    Type
REMARK                         _______ _______ _______ _____ _____    ______ ____
ROOT
ATOM      1  C   UNL     1       0.027   1.521  -0.032  0.00  0.00    +0.033 C 
ATOM      2  C   UNL     1      -0.013  -0.008   0.016  0.00  0.00    +0.104 C 
ATOM      3  C   UNL     1      -1.454  -0.482   0.192  0.00  0.00    -0.017 A 
ATOM      4  C   UNL     1      -2.517   0.005  -0.568  0.00  0.00    +0.013 A 
ATOM      5  C   UNL     1      -3.768  -0.465  -0.361  0.00  0.00    +0.046 A 
ATOM      6  S   UNL     1      -3.504  -1.648   0.951  0.00  0.00    -0.101 S 
ATOM      7  C   UNL     1      -1.753  -1.426   1.125  0.00  0.00    -0.004 A 
ATOM      8  C   UNL     1      -0.821  -2.107   2.074  0.00  0.00    +0.062 C 
ATOM      9  C   UNL     1       0.620  -1.892   1.587  0.00  0.00    +0.114 C 
ATOM     10  N   UNL     1       0.763  -0.490   1.167  0.00  0.00    -0.288 N 
ATOM     11  C   UNL     1       1.593   0.341   1.828  0.00  0.00    +0.282 C 
ATOM     12  O   UNL     1       1.619   1.525   1.547  0.00  0.00    -0.267 OA
ENDROOT
BRANCH  11  13
ATOM     13  C   UNL     1       2.464  -0.181   2.885  0.00  0.00    +0.192 A 
ATOM     14  C   UNL     1       3.240   0.564   3.727  0.00  0.00    +0.057 A 
ATOM     15  C   UNL     1       3.901  -0.341   4.573  0.00  0.00    +0.072 A 
ATOM     16  C   UNL     1       3.505  -1.582   4.215  0.00  0.00    +0.258 A 
ATOM     17  O   UNL     1       2.635  -1.482   3.202  0.00  0.00    -0.432 OA
BRANCH  16  18
ATOM     18  S   UNL     1       4.039  -3.085   4.963  0.00  0.00    +0.089 S 
ATOM     19  O   UNL     1       3.860  -4.108   3.993  0.00  0.00    -0.150 OA
ATOM     20  O   UNL     1       5.300  -2.815   5.561  0.00  0.00    -0.150 OA
BRANCH  18  21
ATOM     21  N   UNL     1       2.990  -3.417   6.200  0.00  0.00    -0.201 NA
ATOM     22  H   UNL     1       2.813  -4.337   6.454  0.00  0.00    +0.144 HD
ATOM     23  H   UNL     1       2.551  -2.692   6.672  0.00  0.00    +0.144 HD
ENDBRANCH  18  21
ENDBRANCH  16  18
ENDBRANCH  11  13
TORSDOF 3
