REMARK  Name = ZINC59460399
REMARK  6 active torsions:
REMARK  status: ('A' for Active; 'I' for Inactive)
REMARK    1  A    between atoms: C_3  and  C_6
REMARK    2  A    between atoms: C_8  and  C_28
REMARK    3  A    between atoms: C_12  and  C_15
REMARK    4  A    between atoms: N_17  and  C_18
REMARK    5  A    between atoms: C_21  and  S_24
REMARK    6  A    between atoms: S_24  and  N_27
REMARK                            x       y       z     vdW  Elec       q    Type
REMARK                         _______ _______ _______ _____ _____    ______ ____
ROOT
ATOM      1  C   UNL     1       3.732   1.671  -0.026  0.00  0.00    +0.082 A 
ATOM      2  C   UNL     1       4.760   0.700  -0.037  0.00  0.00    +0.061 A 
ATOM      3  C   UNL     1       6.050   1.104  -0.040  0.00  0.00    +0.149 A 
ATOM      4  N   UNL     1       6.333   2.441  -0.033  0.00  0.00    -0.209 N 
ATOM      5  C   UNL     1       5.316   3.354  -0.022  0.00  0.00    +0.169 A 
ATOM      6  N   UNL     1       4.044   2.961  -0.024  0.00  0.00    -0.226 NA
ATOM      7  C   UNL     1       5.916   4.629  -0.017  0.00  0.00    +0.101 A 
ATOM      8  C   UNL     1       7.308   4.426  -0.025  0.00  0.00    +0.150 A 
ATOM      9  N   UNL     1       7.545   3.141  -0.034  0.00  0.00    -0.172 NA
ENDROOT
BRANCH   1  12
ATOM     10  C   UNL     1      -0.016   1.349  -0.017  0.00  0.00    +0.008 A 
ATOM     11  C   UNL     1       1.179   2.034  -0.018  0.00  0.00    +0.017 A 
ATOM     12  C   UNL     1       2.321   1.252  -0.023  0.00  0.00    +0.038 A 
ATOM     13  S   UNL     1       1.637  -0.394  -0.026  0.00  0.00    -0.095 S 
ATOM     14  C   UNL     1       0.003  -0.005  -0.021  0.00  0.00    +0.046 A 
ENDBRANCH   1  12
BRANCH   7  15
ATOM     15  C   UNL     1       5.223   5.919  -0.007  0.00  0.00    +0.253 C 
ATOM     16  O   UNL     1       4.006   5.957  -0.001  0.00  0.00    -0.270 OA
ATOM     17  N   UNL     1       5.932   7.065  -0.003  0.00  0.00    -0.281 N 
ATOM     18  H   UNL     1       6.900   7.037   0.061  0.00  0.00    +0.155 HD
BRANCH  17  19
ATOM     19  C   UNL     1       5.273   8.296  -0.090  0.00  0.00    +0.034 A 
ATOM     20  C   UNL     1       5.852   9.347  -0.789  0.00  0.00    +0.025 A 
ATOM     21  C   UNL     1       5.199  10.561  -0.874  0.00  0.00    +0.030 A 
ATOM     22  C   UNL     1       3.969  10.730  -0.264  0.00  0.00    +0.105 A 
ATOM     23  C   UNL     1       3.390   9.685   0.432  0.00  0.00    +0.030 A 
ATOM     24  C   UNL     1       4.036   8.467   0.516  0.00  0.00    +0.025 A 
BRANCH  22  25
ATOM     25  S   UNL     1       3.139  12.280  -0.374  0.00  0.00    +0.056 S 
ATOM     26  O   UNL     1       2.259  12.350   0.739  0.00  0.00    -0.153 OA
ATOM     27  O   UNL     1       4.139  13.260  -0.618  0.00  0.00    -0.153 OA
BRANCH  25  28
ATOM     28  N   UNL     1       2.186  12.230  -1.728  0.00  0.00    -0.204 NA
ATOM     29  H   UNL     1       1.361  12.739  -1.759  0.00  0.00    +0.144 HD
ATOM     30  H   UNL     1       2.454  11.692  -2.490  0.00  0.00    +0.144 HD
ENDBRANCH  25  28
ENDBRANCH  22  25
ENDBRANCH  17  19
ENDBRANCH   7  15
BRANCH   3  31
ATOM     31  C   UNL     1       7.165   0.090  -0.051  0.00  0.00    +0.434 C 
ATOM     32  F   UNL     1       6.622  -1.200  -0.057  0.00  0.00    -0.164 F 
ATOM     33  F   UNL     1       7.949   0.271  -1.196  0.00  0.00    -0.164 F 
ATOM     34  F   UNL     1       7.959   0.257   1.088  0.00  0.00    -0.164 F 
ENDBRANCH   3  31
TORSDOF 6
