REMARK  Name = ZINC13018611
REMARK  14 active torsions:
REMARK  status: ('A' for Active; 'I' for Inactive)
REMARK    1  A    between atoms: C_1  and  C_2
REMARK    2  A    between atoms: C_2  and  O_3
REMARK    3  A    between atoms: O_3  and  C_4
REMARK    4  A    between atoms: C_7  and  C_10
REMARK    5  A    between atoms: C_13  and  S_18
REMARK    6  A    between atoms: N_14  and  C_15
REMARK    7  A    between atoms: C_15  and  C_16
REMARK    8  A    between atoms: S_18  and  C_19
REMARK    9  A    between atoms: C_19  and  C_21
REMARK   10  A    between atoms: C_19  and  C_22
REMARK   11  A    between atoms: N_27  and  C_28
REMARK   12  A    between atoms: C_28  and  C_29
REMARK   13  A    between atoms: C_28  and  C_30
REMARK   14  A    between atoms: C_28  and  C_31
REMARK                            x       y       z     vdW  Elec       q    Type
REMARK                         _______ _______ _______ _____ _____    ______ ____
ROOT
ATOM      1  C   UNL     1      -7.082  -0.251  -0.845  0.00  0.00    +0.165 A 
ATOM      2  N   UNL     1      -6.157  -1.129  -0.531  0.00  0.00    -0.128 NA
ATOM      3  N   UNL     1      -5.010  -0.553  -0.468  0.00  0.00    -0.122 NA
ATOM      4  C   UNL     1      -5.132   0.728  -0.737  0.00  0.00    +0.193 A 
ATOM      5  N   UNL     1      -6.455   0.966  -0.981  0.00  0.00    -0.291 N 
ENDROOT
BRANCH   1   9
ATOM      6  C   UNL     1     -11.232  -1.023  -1.332  0.00  0.00    +0.121 A 
ATOM      7  C   UNL     1     -10.674   0.129  -1.871  0.00  0.00    +0.046 A 
ATOM      8  C   UNL     1      -9.328   0.383  -1.714  0.00  0.00    +0.015 A 
ATOM      9  C   UNL     1      -8.526  -0.519  -1.014  0.00  0.00    +0.020 A 
ATOM     10  C   UNL     1      -9.090  -1.679  -0.479  0.00  0.00    +0.015 A 
ATOM     11  C   UNL     1     -10.437  -1.923  -0.635  0.00  0.00    +0.046 A 
BRANCH   6  12
ATOM     12  O   UNL     1     -12.559  -1.269  -1.488  0.00  0.00    -0.492 OA
BRANCH  12  14
ATOM     13  C   UNL     1     -14.569  -2.577  -1.186  0.00  0.00    +0.048 C 
ATOM     14  C   UNL     1     -13.068  -2.473  -0.909  0.00  0.00    +0.225 C 
ENDBRANCH  12  14
ENDBRANCH   6  12
ENDBRANCH   1   9
BRANCH   5  15
ATOM     15  C   UNL     1      -7.076   2.248  -1.319  0.00  0.00    +0.250 C 
BRANCH  15  16
ATOM     16  C   UNL     1      -7.053   2.438  -2.814  0.00  0.00    +0.375 C 
ATOM     17  O   UNL     1      -6.567   1.589  -3.524  0.00  0.00    -0.244 OA
ATOM     18  O   UNL     1      -7.571   3.551  -3.357  0.00  0.00    -0.244 OA
ENDBRANCH  15  16
ENDBRANCH   5  15
BRANCH   4  19
ATOM     19  S   UNL     1      -3.832   1.917  -0.769  0.00  0.00    -0.073 S 
BRANCH  19  20
ATOM     20  C   UNL     1      -2.426   0.859  -0.346  0.00  0.00    +0.137 C 
ATOM     21  C   UNL     1      -2.598   0.327   1.078  0.00  0.00    +0.029 C 
BRANCH  20  22
ATOM     22  C   UNL     1      -1.152   1.658  -0.434  0.00  0.00    +0.233 C 
ATOM     23  O   UNL     1      -1.181   2.862  -0.298  0.00  0.00    -0.274 OA
ATOM     24  N   UNL     1       0.021   1.033  -0.664  0.00  0.00    -0.239 N 
ATOM     25  C   UNL     1       1.160   1.749  -0.748  0.00  0.00    +0.306 C 
ATOM     26  O   UNL     1       1.131   2.956  -0.611  0.00  0.00    -0.252 OA
ATOM     27  N   UNL     1       2.331   1.125  -0.983  0.00  0.00    -0.294 N 
ATOM     28  H   UNL     1       0.044   0.070  -0.773  0.00  0.00    +0.159 HD
ATOM     29  H   UNL     1       2.354   0.161  -1.092  0.00  0.00    +0.151 HD
BRANCH  27  30
ATOM     30  C   UNL     1       3.569   1.903  -1.074  0.00  0.00    +0.028 C 
ATOM     31  C   UNL     1       3.804   2.645   0.243  0.00  0.00    +0.031 C 
ATOM     32  C   UNL     1       4.744   0.961  -1.345  0.00  0.00    +0.031 C 
ATOM     33  C   UNL     1       3.454   2.914  -2.216  0.00  0.00    +0.031 C 
ENDBRANCH  27  30
ENDBRANCH  20  22
ENDBRANCH  19  20
ENDBRANCH   4  19
TORSDOF 9
