REMARK  Name = ZINC33412419
REMARK  4 active torsions:
REMARK  status: ('A' for Active; 'I' for Inactive)
REMARK    1  A    between atoms: C_1  and  C_2
REMARK    2  A    between atoms: N_15  and  C_27
REMARK    3  A    between atoms: N_23  and  C_26
REMARK    4  A    between atoms: C_27  and  C_28
REMARK                            x       y       z     vdW  Elec       q    Type
REMARK                         _______ _______ _______ _____ _____    ______ ____
ROOT
ATOM      1  C   UNL     1       7.385  -2.978  -0.043  0.00  0.00    +0.044 C 
ATOM      2  C   UNL     1       5.917  -2.641  -0.036  0.00  0.00    -0.050 A 
ATOM      3  C   UNL     1       4.975  -3.660  -0.025  0.00  0.00    +0.007 A 
ATOM      4  C   UNL     1       3.627  -3.375  -0.020  0.00  0.00    +0.047 A 
ATOM      5  C   UNL     1       3.198  -2.050  -0.026  0.00  0.00    +0.139 A 
ATOM      6  C   UNL     1       4.159  -1.025  -0.034  0.00  0.00    +0.065 A 
ATOM      7  C   UNL     1       5.519  -1.332  -0.041  0.00  0.00    +0.018 A 
ATOM      8  C   UNL     1       3.685   0.373  -0.033  0.00  0.00    +0.199 A 
ATOM      9  O   UNL     1       4.462   1.311  -0.045  0.00  0.00    -0.287 OA
ATOM     10  C   UNL     1       2.234   0.576  -0.018  0.00  0.00    +0.084 A 
ATOM     11  C   UNL     1       1.403  -0.497  -0.014  0.00  0.00    +0.200 A 
ATOM     12  O   UNL     1       1.886  -1.754  -0.024  0.00  0.00    -0.450 OA
ATOM     13  C   UNL     1       0.002  -0.004   0.002  0.00  0.00    +0.284 C 
ATOM     14  O   UNL     1      -0.985  -0.713   0.008  0.00  0.00    -0.267 OA
ATOM     15  N   UNL     1      -0.016   1.342   0.009  0.00  0.00    -0.266 N 
ATOM     16  C   UNL     1       1.371   1.804  -0.001  0.00  0.00    +0.174 C 
ATOM     17  C   UNL     1       1.645   2.689  -1.188  0.00  0.00    +0.011 A 
ATOM     18  C   UNL     1       1.567   2.494  -2.549  0.00  0.00    +0.008 A 
ATOM     19  C   UNL     1       1.890   3.525  -3.414  0.00  0.00    +0.000 A 
ATOM     20  C   UNL     1       2.290   4.748  -2.909  0.00  0.00    +0.002 A 
ATOM     21  C   UNL     1       2.371   4.947  -1.546  0.00  0.00    +0.024 A 
ATOM     22  C   UNL     1       2.049   3.914  -0.668  0.00  0.00    +0.042 A 
ATOM     23  N   UNL     1       2.051   3.869   0.728  0.00  0.00    -0.272 N 
ATOM     24  C   UNL     1       1.667   2.668   1.198  0.00  0.00    +0.253 C 
ATOM     25  O   UNL     1       1.577   2.343   2.363  0.00  0.00    -0.272 OA
ATOM     26  C   UNL     1       2.427   4.999   1.581  0.00  0.00    +0.138 C 
ENDROOT
BRANCH  15  27
ATOM     27  C   UNL     1      -1.210   2.191   0.020  0.00  0.00    +0.184 C 
BRANCH  27  28
ATOM     28  C   UNL     1      -1.612   2.475   1.444  0.00  0.00    +0.122 A 
ATOM     29  C   UNL     1      -1.190   3.512   2.189  0.00  0.00    +0.046 A 
ATOM     30  C   UNL     1      -1.812   3.390   3.453  0.00  0.00    +0.041 A 
ATOM     31  C   UNL     1      -2.578   2.285   3.404  0.00  0.00    +0.195 A 
ATOM     32  O   UNL     1      -2.457   1.738   2.184  0.00  0.00    -0.466 OA
ENDBRANCH  27  28
ENDBRANCH  15  27
TORSDOF 2
