REMARK  Name = ZINC63362128
REMARK  4 active torsions:
REMARK  status: ('A' for Active; 'I' for Inactive)
REMARK    1  A    between atoms: C_1  and  C_2
REMARK    2  A    between atoms: C_5  and  C_8
REMARK    3  A    between atoms: N_26  and  C_29
REMARK    4  A    between atoms: C_31  and  C_36
REMARK                            x       y       z     vdW  Elec       q    Type
REMARK                         _______ _______ _______ _____ _____    ______ ____
ROOT
ATOM      1  C   UNL     1       0.059  -4.275  -0.021  0.00  0.00    +0.135 C 
ATOM      2  C   UNL     1      -1.349  -4.817   0.259  0.00  0.00    +0.131 C 
ATOM      3  C   UNL     1      -1.198  -6.280   0.652  0.00  0.00    -0.034 C 
ATOM      4  C   UNL     1      -1.940  -6.977  -0.202  0.00  0.00    -0.001 A 
ATOM      5  C   UNL     1      -2.237  -8.416  -0.291  0.00  0.00    +0.010 A 
ATOM      6  C   UNL     1      -3.040  -8.799  -1.319  0.00  0.00    +0.001 A 
ATOM      7  C   UNL     1      -3.571  -7.905  -2.255  0.00  0.00    +0.002 A 
ATOM      8  C   UNL     1      -3.354  -6.566  -2.245  0.00  0.00    +0.026 A 
ATOM      9  C   UNL     1      -2.527  -6.042  -1.208  0.00  0.00    +0.043 A 
ATOM     10  N   UNL     1      -2.172  -4.807  -0.954  0.00  0.00    -0.375 N 
ATOM     11  C   UNL     1      -0.295  -6.745   1.772  0.00  0.00    +0.065 C 
ATOM     12  C   UNL     1       0.490  -5.509   2.243  0.00  0.00    +0.169 C 
ATOM     13  N   UNL     1       0.941  -4.769   1.044  0.00  0.00    -0.264 N 
ATOM     14  C   UNL     1       2.273  -4.671   1.126  0.00  0.00    +0.317 C 
ATOM     15  O   UNL     1       2.954  -4.024   0.355  0.00  0.00    -0.252 OA
ATOM     16  N   UNL     1       2.770  -5.369   2.156  0.00  0.00    -0.191 N 
ATOM     17  C   UNL     1       1.776  -5.942   2.912  0.00  0.00    +0.248 C 
ATOM     18  O   UNL     1       1.890  -6.645   3.893  0.00  0.00    -0.273 OA
ATOM     19  H   UNL     1      -2.407  -4.022  -1.473  0.00  0.00    +0.160 HD
ENDROOT
BRANCH   1  24
ATOM     20  C   UNL     1      -0.018   1.503   0.010  0.00  0.00    +0.044 C 
ATOM     21  C   UNL     1       0.002  -0.004   0.002  0.00  0.00    -0.050 A 
ATOM     22  C   UNL     1       0.006  -0.689  -1.199  0.00  0.00    +0.004 A 
ATOM     23  C   UNL     1       0.025  -2.071  -1.206  0.00  0.00    +0.006 A 
ATOM     24  C   UNL     1       0.040  -2.768  -0.013  0.00  0.00    -0.025 A 
ATOM     25  C   UNL     1       0.037  -2.084   1.188  0.00  0.00    +0.006 A 
ATOM     26  C   UNL     1       0.023  -0.702   1.195  0.00  0.00    +0.004 A 
ENDBRANCH   1  24
BRANCH  16  27
ATOM     27  C   UNL     1       4.139  -5.491   2.439  0.00  0.00    +0.064 A 
ATOM     28  C   UNL     1       4.761  -4.575   3.275  0.00  0.00    +0.037 A 
ATOM     29  C   UNL     1       6.108  -4.697   3.551  0.00  0.00    +0.057 A 
ATOM     30  C   UNL     1       6.839  -5.731   2.996  0.00  0.00    +0.014 A 
ATOM     31  C   UNL     1       6.223  -6.646   2.162  0.00  0.00    +0.022 A 
ATOM     32  C   UNL     1       4.873  -6.533   1.886  0.00  0.00    +0.063 A 
ATOM     33 CL   UNL     1       4.099  -7.687   0.846  0.00  0.00    -0.082 Cl
BRANCH  29  34
ATOM     34  C   UNL     1       6.784  -3.702   4.460  0.00  0.00    +0.417 C 
ATOM     35  F   UNL     1       6.710  -4.153   5.782  0.00  0.00    -0.166 F 
ATOM     36  F   UNL     1       8.125  -3.567   4.087  0.00  0.00    -0.166 F 
ATOM     37  F   UNL     1       6.143  -2.463   4.353  0.00  0.00    -0.166 F 
ENDBRANCH  29  34
ENDBRANCH  16  27
TORSDOF 3
