REMARK  Name = ZINC51813668
REMARK  7 active torsions:
REMARK  status: ('A' for Active; 'I' for Inactive)
REMARK    1  A    between atoms: C_1  and  C_2
REMARK    2  A    between atoms: C_7  and  C_8
REMARK    3  A    between atoms: N_10  and  C_11
REMARK    4  A    between atoms: C_11  and  C_12
REMARK    5  A    between atoms: C_16  and  C_18
REMARK    6  A    between atoms: C_19  and  C_20
REMARK    7  A    between atoms: C_20  and  N_21
REMARK                            x       y       z     vdW  Elec       q    Type
REMARK                         _______ _______ _______ _____ _____    ______ ____
ROOT
ATOM      1  C   UNL     1       0.823  -0.920   6.006  0.00  0.00    -0.029 A 
ATOM      2  C   UNL     1      -0.246  -1.482   6.681  0.00  0.00    +0.005 A 
ATOM      3  C   UNL     1      -0.028  -2.383   7.707  0.00  0.00    +0.002 A 
ATOM      4  C   UNL     1       1.259  -2.728   8.064  0.00  0.00    +0.017 A 
ATOM      5  C   UNL     1       2.342  -2.166   7.388  0.00  0.00    +0.025 A 
ATOM      6  C   UNL     1       2.115  -1.260   6.351  0.00  0.00    +0.022 A 
ENDROOT
BRANCH   5   7
ATOM      7  C   UNL     1       3.681  -2.519   7.755  0.00  0.00    -0.068 C 
ATOM      8  C   UNL     1       4.778  -2.808   8.055  0.00  0.00    -0.117 C 
BRANCH   8   9
ATOM      9  C   UNL     1       6.154  -3.171   8.431  0.00  0.00    +0.005 C 
BRANCH   9  10
ATOM     10  N   UNL     1       7.103  -2.448   7.575  0.00  0.00    +0.385 N 
ATOM     11  H   UNL     1       6.973  -1.454   7.693  0.00  0.00    -0.089 HD
ATOM     12  H   UNL     1       8.046  -2.697   7.833  0.00  0.00    -0.089 HD
ATOM     13  H   UNL     1       6.942  -2.696   6.610  0.00  0.00    -0.089 HD
ENDBRANCH   9  10
ENDBRANCH   8   9
ENDBRANCH   5   7
BRANCH   1  14
ATOM     14  C   UNL     1       0.577   0.061   4.890  0.00  0.00    +0.140 C 
BRANCH  14  17
ATOM     15  C   UNL     1       0.241   0.016   2.477  0.00  0.00    +0.263 C 
ATOM     16  O   UNL     1       0.134   1.226   2.498  0.00  0.00    -0.269 OA
ATOM     17  N   UNL     1       0.464  -0.661   3.620  0.00  0.00    -0.306 N 
ATOM     18  H   UNL     1       0.550  -1.627   3.603  0.00  0.00    +0.149 HD
BRANCH  15  25
ATOM     19  C   UNL     1      -0.485   1.457   0.077  0.00  0.00    +0.046 C 
ATOM     20  C   UNL     1      -0.222  -0.026   0.034  0.00  0.00    -0.020 A 
ATOM     21  C   UNL     1      -0.319  -0.723  -1.160  0.00  0.00    +0.007 A 
ATOM     22  C   UNL     1      -0.069  -2.086  -1.153  0.00  0.00    +0.020 A 
ATOM     23  C   UNL     1       0.270  -2.708   0.038  0.00  0.00    +0.111 A 
ATOM     24  N   UNL     1       0.354  -2.023   1.158  0.00  0.00    -0.250 NA
ATOM     25  C   UNL     1       0.128  -0.715   1.193  0.00  0.00    +0.128 A 
ENDBRANCH  15  25
ENDBRANCH  14  17
ENDBRANCH   1  14
TORSDOF 6
