REMARK  Name = ZINC00721090
REMARK  3 active torsions:
REMARK  status: ('A' for Active; 'I' for Inactive)
REMARK    1  A    between atoms: C_11  and  C_13
REMARK    2  A    between atoms: C_19  and  C_26
REMARK    3  A    between atoms: C_21  and  C_22
REMARK                            x       y       z     vdW  Elec       q    Type
REMARK                         _______ _______ _______ _____ _____    ______ ____
ROOT
ATOM      1  C   UNL     1      -0.002  -0.001  -0.051  0.00  0.00    +0.101 A 
ATOM      2  C   UNL     1       0.104   1.190  -0.793  0.00  0.00    +0.150 A 
ATOM      3  N   UNL     1       1.288   1.706  -0.593  0.00  0.00    -0.172 NA
ATOM      4  N   UNL     1       2.013   0.889   0.282  0.00  0.00    -0.209 N 
ATOM      5  C   UNL     1       1.223  -0.173   0.625  0.00  0.00    +0.169 A 
ATOM      6  N   UNL     1       1.666  -1.116   1.454  0.00  0.00    -0.227 NA
ATOM      7  C   UNL     1       2.885  -1.048   1.968  0.00  0.00    +0.075 A 
ATOM      8  C   UNL     1       3.728   0.034   1.636  0.00  0.00    +0.060 A 
ATOM      9  C   UNL     1       3.275   0.991   0.793  0.00  0.00    +0.149 A 
ENDROOT
BRANCH   1  20
ATOM     10  C   UNL     1      -5.687  -2.921   0.449  0.00  0.00    +0.000 A 
ATOM     11  C   UNL     1      -4.458  -3.420   0.057  0.00  0.00    +0.002 A 
ATOM     12  C   UNL     1      -3.374  -2.573  -0.051  0.00  0.00    +0.024 A 
ATOM     13  C   UNL     1      -3.517  -1.220   0.236  0.00  0.00    +0.040 A 
ATOM     14  C   UNL     1      -4.749  -0.720   0.627  0.00  0.00    -0.026 A 
ATOM     15  C   UNL     1      -5.831  -1.577   0.733  0.00  0.00    +0.005 A 
ATOM     16  C   UNL     1      -4.942   0.740   0.940  0.00  0.00    +0.038 C 
ATOM     17  C   UNL     1      -3.602   1.401   1.260  0.00  0.00    +0.024 C 
ATOM     18  C   UNL     1      -2.608   1.078   0.142  0.00  0.00    +0.114 C 
ATOM     19  N   UNL     1      -2.403  -0.377   0.124  0.00  0.00    -0.267 N 
ATOM     20  C   UNL     1      -1.163  -0.892   0.008  0.00  0.00    +0.256 C 
ATOM     21  O   UNL     1      -1.008  -2.099  -0.048  0.00  0.00    -0.269 OA
ENDBRANCH   1  20
BRANCH   7  22
ATOM     22  C   UNL     1       3.362  -2.105   2.888  0.00  0.00    +0.004 A 
ATOM     23  C   UNL     1       4.604  -1.981   3.512  0.00  0.00    +0.014 A 
ATOM     24  C   UNL     1       5.047  -2.965   4.369  0.00  0.00    +0.050 A 
ATOM     25  C   UNL     1       4.260  -4.082   4.616  0.00  0.00    +0.166 A 
ATOM     26  C   UNL     1       3.017  -4.211   3.996  0.00  0.00    +0.167 A 
ATOM     27  C   UNL     1       2.567  -3.224   3.139  0.00  0.00    +0.059 A 
ATOM     28  O   UNL     1       2.448  -5.384   4.400  0.00  0.00    -0.453 OA
ATOM     29  C   UNL     1       3.170  -5.772   5.585  0.00  0.00    +0.466 C 
ATOM     30  O   UNL     1       4.467  -5.174   5.407  0.00  0.00    -0.453 OA
ENDBRANCH   7  22
BRANCH   9  31
ATOM     31  C   UNL     1       4.155   2.157   0.422  0.00  0.00    +0.434 C 
ATOM     32  F   UNL     1       3.956   3.200   1.333  0.00  0.00    -0.164 F 
ATOM     33  F   UNL     1       5.496   1.759   0.454  0.00  0.00    -0.164 F 
ATOM     34  F   UNL     1       3.829   2.595  -0.866  0.00  0.00    -0.164 F 
ENDBRANCH   9  31
TORSDOF 3
