REMARK  Name = ZINC01287891
REMARK  6 active torsions:
REMARK  status: ('A' for Active; 'I' for Inactive)
REMARK    1  A    between atoms: C_4  and  C_7
REMARK    2  A    between atoms: C_7  and  C_8
REMARK    3  A    between atoms: C_7  and  N_14
REMARK    4  A    between atoms: C_20  and  C_22
REMARK    5  A    between atoms: C_27  and  C_40
REMARK    6  A    between atoms: C_30  and  C_33
REMARK                            x       y       z     vdW  Elec       q    Type
REMARK                         _______ _______ _______ _____ _____    ______ ____
ROOT
ATOM      1  N   UNL     1       3.997  -1.649   0.142  0.00  0.00    -0.289 NA
ATOM      2  C   UNL     1       2.865  -2.511   0.506  0.00  0.00    +0.104 C 
ATOM      3  C   UNL     1       2.662  -3.569  -0.584  0.00  0.00    +0.123 C 
ATOM      4  N   UNL     1       3.936  -4.272  -0.796  0.00  0.00    -0.294 N 
ATOM      5  C   UNL     1       5.145  -3.467  -1.031  0.00  0.00    +0.123 C 
ATOM      6  C   UNL     1       5.250  -2.413   0.077  0.00  0.00    +0.104 C 
ATOM      7  C   UNL     1       3.995  -5.619  -0.776  0.00  0.00    +0.267 C 
ATOM      8  O   UNL     1       3.010  -6.266  -0.480  0.00  0.00    -0.268 OA
ENDROOT
BRANCH   7   9
ATOM      9  C   UNL     1       5.257  -6.308  -1.115  0.00  0.00    +0.149 A 
ATOM     10  C   UNL     1       5.499  -7.696  -1.006  0.00  0.00    +0.078 A 
ATOM     11  C   UNL     1       6.765  -7.922  -1.409  0.00  0.00    +0.119 A 
ATOM     12  N   UNL     1       7.318  -6.724  -1.765  0.00  0.00    -0.238 N 
ATOM     13  N   UNL     1       6.355  -5.734  -1.576  0.00  0.00    -0.164 NA
ATOM     14  C   UNL     1       8.689  -6.577  -2.260  0.00  0.00    +0.215 C 
ATOM     15  C   UNL     1       9.186  -7.940  -2.757  0.00  0.00    +0.063 C 
ATOM     16  C   UNL     1       8.929  -9.010  -1.690  0.00  0.00    +0.104 C 
ATOM     17  N   UNL     1       7.472  -9.125  -1.482  0.00  0.00    -0.322 N 
ATOM     18  H   UNL     1       7.031  -9.986  -1.402  0.00  0.00    +0.148 HD
BRANCH  16  19
ATOM     19  C   UNL     1       9.485 -10.331  -2.154  0.00  0.00    -0.027 A 
ATOM     20  C   UNL     1       8.773 -11.102  -3.054  0.00  0.00    +0.007 A 
ATOM     21  C   UNL     1       9.282 -12.314  -3.481  0.00  0.00    +0.020 A 
ATOM     22  C   UNL     1      10.504 -12.756  -3.006  0.00  0.00    +0.041 A 
ATOM     23  C   UNL     1      11.216 -11.985  -2.105  0.00  0.00    +0.020 A 
ATOM     24  C   UNL     1      10.708 -10.770  -1.684  0.00  0.00    +0.007 A 
ATOM     25 CL   UNL     1      11.143 -14.279  -3.541  0.00  0.00    -0.084 Cl
ENDBRANCH  16  19
BRANCH  14  26
ATOM     26  C   UNL     1       8.713  -5.570  -3.411  0.00  0.00    +0.412 C 
ATOM     27  F   UNL     1       8.248  -4.331  -2.957  0.00  0.00    -0.168 F 
ATOM     28  F   UNL     1      10.023  -5.431  -3.882  0.00  0.00    -0.168 F 
ATOM     29  F   UNL     1       7.891  -6.026  -4.447  0.00  0.00    -0.168 F 
ENDBRANCH  14  26
ENDBRANCH   7   9
BRANCH   1  30
ATOM     30  C   UNL     1       4.118  -0.518   1.072  0.00  0.00    +0.117 C 
BRANCH  30  34
ATOM     31  C   UNL     1       7.645   1.710   0.152  0.00  0.00    +0.000 A 
ATOM     32  C   UNL     1       7.365   1.368   1.462  0.00  0.00    +0.000 A 
ATOM     33  C   UNL     1       6.224   0.647   1.760  0.00  0.00    +0.005 A 
ATOM     34  C   UNL     1       5.362   0.268   0.747  0.00  0.00    -0.026 A 
ATOM     35  C   UNL     1       5.641   0.611  -0.563  0.00  0.00    +0.005 A 
ATOM     36  C   UNL     1       6.783   1.330  -0.860  0.00  0.00    +0.000 A 
ENDBRANCH  30  34
BRANCH  30  37
ATOM     37  C   UNL     1       2.910   0.373   0.938  0.00  0.00    -0.026 A 
ATOM     38  C   UNL     1       2.467   0.753  -0.315  0.00  0.00    +0.005 A 
ATOM     39  C   UNL     1       1.360   1.571  -0.438  0.00  0.00    +0.000 A 
ATOM     40  C   UNL     1       0.695   2.009   0.692  0.00  0.00    +0.000 A 
ATOM     41  C   UNL     1       1.138   1.628   1.945  0.00  0.00    +0.000 A 
ATOM     42  C   UNL     1       2.243   0.807   2.068  0.00  0.00    +0.005 A 
ENDBRANCH  30  37
ENDBRANCH   1  30
TORSDOF 6
