REMARK  Name = ZINC34829678
REMARK  8 active torsions:
REMARK  status: ('A' for Active; 'I' for Inactive)
REMARK    1  A    between atoms: C_1  and  C_2
REMARK    2  A    between atoms: C_9  and  C_11
REMARK    3  A    between atoms: C_11  and  C_12
REMARK    4  A    between atoms: C_19  and  C_21
REMARK    5  A    between atoms: C_21  and  N_22
REMARK    6  A    between atoms: C_30  and  C_32
REMARK    7  A    between atoms: C_35  and  O_38
REMARK    8  A    between atoms: O_38  and  C_39
REMARK                            x       y       z     vdW  Elec       q    Type
REMARK                         _______ _______ _______ _____ _____    ______ ____
ROOT
ATOM      1  C   UNL     1      -0.019   1.526   0.010  0.00  0.00    +0.029 C 
ATOM      2  C   UNL     1       0.002  -0.004   0.002  0.00  0.00    +0.090 C 
ATOM      3  C   UNL     1      -1.435  -0.538   0.021  0.00  0.00    +0.130 C 
ATOM      4  N   UNL     1      -2.019  -0.269   1.343  0.00  0.00    -0.300 N 
ATOM      5  C   UNL     1      -1.319  -0.760   2.539  0.00  0.00    +0.126 C 
ATOM      6  C   UNL     1       0.118  -0.225   2.520  0.00  0.00    +0.127 C 
ATOM      7  N   UNL     1       0.705  -0.494   1.196  0.00  0.00    -0.295 N 
ATOM      8  C   UNL     1       1.860  -1.179   1.079  0.00  0.00    +0.220 C 
ATOM      9  O   UNL     1       2.328  -1.395  -0.019  0.00  0.00    -0.275 OA
ATOM     10  C   UNL     1      -3.174   0.415   1.457  0.00  0.00    +0.199 C 
ATOM     11  O   UNL     1      -3.742   0.815   0.463  0.00  0.00    -0.278 OA
ENDROOT
BRANCH   8  12
ATOM     12  C   UNL     1       2.570  -1.675   2.312  0.00  0.00    +0.131 C 
BRANCH  12  13
ATOM     13  C   UNL     1       3.826  -2.404   1.909  0.00  0.00    -0.038 A 
ATOM     14  C   UNL     1       3.787  -3.763   1.659  0.00  0.00    +0.007 A 
ATOM     15  C   UNL     1       4.938  -4.432   1.290  0.00  0.00    +0.038 A 
ATOM     16  C   UNL     1       6.132  -3.741   1.169  0.00  0.00    +0.123 A 
ATOM     17  C   UNL     1       6.170  -2.380   1.420  0.00  0.00    +0.038 A 
ATOM     18  C   UNL     1       5.016  -1.712   1.784  0.00  0.00    +0.007 A 
ATOM     19  F   UNL     1       7.258  -4.394   0.808  0.00  0.00    -0.205 F 
ENDBRANCH  12  13
ENDBRANCH   8  12
BRANCH  10  20
ATOM     20  C   UNL     1      -3.760   0.683   2.819  0.00  0.00    +0.020 C 
BRANCH  20  21
ATOM     21  N   UNL     1      -5.011   1.440   2.674  0.00  0.00    +0.393 N 
ATOM     22  C   UNL     1      -5.991   0.620   1.950  0.00  0.00    -0.072 C 
ATOM     23  C   UNL     1      -7.162   1.516   1.511  0.00  0.00    +0.024 C 
ATOM     24  C   UNL     1      -7.568   2.337   2.691  0.00  0.00    -0.010 A 
ATOM     25  C   UNL     1      -6.862   2.498   3.846  0.00  0.00    -0.047 A 
ATOM     26  C   UNL     1      -7.440   3.308   4.820  0.00  0.00    +0.010 A 
ATOM     27  C   UNL     1      -8.640   3.891   4.591  0.00  0.00    +0.045 A 
ATOM     28  S   UNL     1      -9.025   3.309   2.945  0.00  0.00    -0.101 S 
ATOM     29  C   UNL     1      -5.514   1.802   4.004  0.00  0.00    -0.005 C 
ATOM     30  H   UNL     1      -4.830   2.282   2.147  0.00  0.00    -0.080 HD
BRANCH  29  31
ATOM     31  C   UNL     1      -4.540   2.735   4.676  0.00  0.00    -0.056 A 
ATOM     32  C   UNL     1      -3.922   3.732   3.945  0.00  0.00    +0.006 A 
ATOM     33  C   UNL     1      -3.028   4.588   4.558  0.00  0.00    +0.046 A 
ATOM     34  C   UNL     1      -2.751   4.448   5.910  0.00  0.00    +0.120 A 
ATOM     35  C   UNL     1      -3.373   3.447   6.643  0.00  0.00    +0.046 A 
ATOM     36  C   UNL     1      -4.270   2.596   6.025  0.00  0.00    +0.006 A 
BRANCH  34  37
ATOM     37  O   UNL     1      -1.872   5.288   6.516  0.00  0.00    -0.495 OA
ATOM     38  C   UNL     1      -1.635   5.085   7.911  0.00  0.00    +0.277 C 
ENDBRANCH  34  37
ENDBRANCH  29  31
ENDBRANCH  20  21
ENDBRANCH  10  20
TORSDOF 6
