REMARK  Name = ZINC14041699
REMARK  10 active torsions:
REMARK  status: ('A' for Active; 'I' for Inactive)
REMARK    1  A    between atoms: C_4  and  C_7
REMARK    2  A    between atoms: C_7  and  C_8
REMARK    3  A    between atoms: C_8  and  O_9
REMARK    4  A    between atoms: O_9  and  C_10
REMARK    5  A    between atoms: C_13  and  C_16
REMARK    6  A    between atoms: N_18  and  C_19
REMARK    7  A    between atoms: C_19  and  N_21
REMARK    8  A    between atoms: N_21  and  C_22
REMARK    9  A    between atoms: C_25  and  S_28
REMARK   10  A    between atoms: S_28  and  N_31
REMARK                            x       y       z     vdW  Elec       q    Type
REMARK                         _______ _______ _______ _____ _____    ______ ____
ROOT
ATOM      1  C   UNL     1      -2.807   4.216   5.425  0.00  0.00    +0.141 C 
ATOM      2  S   UNL     1      -1.669   5.294   4.736  0.00  0.00    -0.018 S 
ENDROOT
BRANCH   1   5
ATOM      3  C   UNL     1      -3.161   5.713   7.181  0.00  0.00    +0.250 C 
ATOM      4  O   UNL     1      -2.353   6.478   6.691  0.00  0.00    -0.270 OA
ATOM      5  N   UNL     1      -3.432   4.541   6.574  0.00  0.00    -0.264 N 
ATOM      6  H   UNL     1      -4.163   3.849   7.017  0.00  0.00    +0.157 HD
BRANCH   3  10
ATOM      7  C   UNL     1      -5.129   6.736  10.801  0.00  0.00    +0.121 A 
ATOM      8  C   UNL     1      -4.205   7.612  10.243  0.00  0.00    +0.046 A 
ATOM      9  C   UNL     1      -3.565   7.284   9.069  0.00  0.00    +0.016 A 
ATOM     10  C   UNL     1      -3.845   6.069   8.439  0.00  0.00    +0.037 A 
ATOM     11  C   UNL     1      -4.778   5.193   9.000  0.00  0.00    +0.016 A 
ATOM     12  C   UNL     1      -5.410   5.526  10.178  0.00  0.00    +0.046 A 
BRANCH   7  13
ATOM     13  O   UNL     1      -5.758   7.062  11.959  0.00  0.00    -0.492 OA
BRANCH  13  14
ATOM     14  C   UNL     1      -6.696   6.116  12.477  0.00  0.00    +0.233 C 
BRANCH  14  15
ATOM     15  C   UNL     1      -7.298   6.655  13.776  0.00  0.00    +0.076 C 
BRANCH  15  19
ATOM     16  C   UNL     1     -10.100   3.827  15.326  0.00  0.00    +0.000 A 
ATOM     17  C   UNL     1      -8.771   3.759  15.700  0.00  0.00    +0.000 A 
ATOM     18  C   UNL     1      -7.864   4.674  15.198  0.00  0.00    +0.004 A 
ATOM     19  C   UNL     1      -8.287   5.657  14.322  0.00  0.00    -0.044 A 
ATOM     20  C   UNL     1      -9.617   5.729  13.953  0.00  0.00    +0.004 A 
ATOM     21  C   UNL     1     -10.523   4.811  14.451  0.00  0.00    +0.000 A 
ENDBRANCH  15  19
ENDBRANCH  14  15
ENDBRANCH  13  14
ENDBRANCH   7  13
ENDBRANCH   3  10
ENDBRANCH   1   5
BRANCH   1  22
ATOM     22  N   UNL     1      -3.078   3.044   4.818  0.00  0.00    -0.297 N 
ATOM     23  H   UNL     1      -3.873   2.393   5.210  0.00  0.00    +0.154 HD
BRANCH  22  24
ATOM     24  C   UNL     1      -2.348   2.654   3.691  0.00  0.00    +0.033 A 
ATOM     25  C   UNL     1      -0.973   2.848   3.651  0.00  0.00    +0.025 A 
ATOM     26  C   UNL     1      -0.255   2.462   2.536  0.00  0.00    +0.031 A 
ATOM     27  C   UNL     1      -0.903   1.883   1.461  0.00  0.00    +0.113 A 
ATOM     28  C   UNL     1      -2.272   1.694   1.495  0.00  0.00    +0.031 A 
ATOM     29  C   UNL     1      -2.996   2.073   2.608  0.00  0.00    +0.025 A 
BRANCH  27  30
ATOM     30  S   UNL     1       0.017   1.391   0.041  0.00  0.00    +0.102 S 
ATOM     31  O   UNL     1       1.201   2.178   0.031  0.00  0.00    -0.146 OA
ATOM     32  O   UNL     1      -0.895   1.375  -1.049  0.00  0.00    -0.146 OA
BRANCH  30  33
ATOM     33  N   UNL     1       0.493  -0.176   0.284  0.00  0.00    -0.093 NA
ATOM     34  C   UNL     1       1.196  -0.792  -0.624  0.00  0.00    +0.212 C 
ATOM     35  N   UNL     1       1.544  -0.140  -1.784  0.00  0.00    -0.369 N 
ATOM     36  N   UNL     1       1.591  -2.093  -0.422  0.00  0.00    -0.369 N 
ATOM     37  H   UNL     1       2.138  -0.660  -2.550  0.00  0.00    +0.159 HD
ATOM     38  H   UNL     1       1.228   0.901  -1.945  0.00  0.00    +0.159 HD
ATOM     39  H   UNL     1       2.185  -2.613  -1.189  0.00  0.00    +0.159 HD
ATOM     40  H   UNL     1       1.313  -2.615   0.505  0.00  0.00    +0.159 HD
ENDBRANCH  30  33
ENDBRANCH  27  30
ENDBRANCH  22  24
ENDBRANCH   1  22
TORSDOF 10
