REMARK  Name = ZINC25510935
REMARK  8 active torsions:
REMARK  status: ('A' for Active; 'I' for Inactive)
REMARK    1  A    between atoms: C_3  and  N_8
REMARK    2  A    between atoms: C_9  and  C_11
REMARK    3  A    between atoms: C_11  and  N_12
REMARK    4  A    between atoms: C_18  and  C_20
REMARK    5  A    between atoms: C_20  and  S_21
REMARK    6  A    between atoms: S_21  and  C_22
REMARK    7  A    between atoms: C_25  and  C_28
REMARK    8  A    between atoms: N_26  and  N_27
REMARK                            x       y       z     vdW  Elec       q    Type
REMARK                         _______ _______ _______ _____ _____    ______ ____
ROOT
ATOM      1  N   UNL     1       1.356  -9.349   1.292  0.00  0.00    +0.387 N 
ATOM      2  C   UNL     1      -0.108  -9.256   1.208  0.00  0.00    -0.059 C 
ATOM      3  C   UNL     1      -0.495  -8.466  -0.047  0.00  0.00    +0.089 C 
ATOM      4  N   UNL     1       0.209  -7.175  -0.022  0.00  0.00    -0.304 N 
ATOM      5  C   UNL     1       1.665  -7.181   0.190  0.00  0.00    +0.089 C 
ATOM      6  C   UNL     1       1.966  -8.021   1.441  0.00  0.00    -0.059 C 
ATOM      7  C   UNL     1      -0.460  -6.018  -0.195  0.00  0.00    +0.226 C 
ATOM      8  O   UNL     1      -1.660  -6.033  -0.373  0.00  0.00    -0.275 OA
ATOM      9  H   UNL     1       1.719  -9.779   0.346  0.00  0.00    -0.081 HD
ENDROOT
BRANCH   1  10
ATOM     10  C   UNL     1       1.765 -10.242   2.384  0.00  0.00    +0.019 C 
BRANCH  10  12
ATOM     11  N   UNL     1       1.716 -10.239   4.856  0.00  0.00    -0.287 N 
ATOM     12  C   UNL     1       1.347  -9.647   3.703  0.00  0.00    +0.201 C 
ATOM     13  O   UNL     1       0.679  -8.635   3.728  0.00  0.00    -0.278 OA
ATOM     14  H   UNL     1       2.385 -11.112   4.837  0.00  0.00    +0.155 HD
BRANCH  11  17
ATOM     15  C   UNL     1       0.602  -7.890   7.458  0.00  0.00    +0.005 A 
ATOM     16  C   UNL     1       1.070  -8.377   6.253  0.00  0.00    +0.023 A 
ATOM     17  C   UNL     1       1.248  -9.743   6.078  0.00  0.00    +0.036 A 
ATOM     18  C   UNL     1       0.965 -10.616   7.120  0.00  0.00    +0.061 A 
ATOM     19  C   UNL     1       0.502 -10.123   8.327  0.00  0.00    +0.125 A 
ATOM     20  C   UNL     1       0.321  -8.760   8.495  0.00  0.00    +0.038 A 
ATOM     21  F   UNL     1       0.227 -10.971   9.342  0.00  0.00    -0.205 F 
ENDBRANCH  11  17
ENDBRANCH  10  12
ENDBRANCH   1  10
BRANCH   7  22
ATOM     22  C   UNL     1       0.282  -4.707  -0.166  0.00  0.00    +0.173 C 
BRANCH  22  23
ATOM     23  S   UNL     1      -0.885  -3.348  -0.425  0.00  0.00    -0.075 S 
BRANCH  23  24
ATOM     24  C   UNL     1       0.219  -1.977  -0.346  0.00  0.00    +0.209 A 
ATOM     25  N   UNL     1       1.517  -2.032  -0.147  0.00  0.00    -0.121 NA
ATOM     26  N   UNL     1       2.014  -0.847  -0.147  0.00  0.00    -0.127 NA
ATOM     27  C   UNL     1       1.064   0.038  -0.345  0.00  0.00    +0.182 A 
ATOM     28  N   UNL     1      -0.116  -0.658  -0.472  0.00  0.00    -0.224 N 
BRANCH  27  29
ATOM     29  C   UNL     1       1.230   1.505  -0.412  0.00  0.00    +0.021 A 
ATOM     30  C   UNL     1       0.116   2.341  -0.320  0.00  0.00    +0.014 A 
ATOM     31  C   UNL     1       0.277   3.709  -0.379  0.00  0.00    +0.039 A 
ATOM     32  C   UNL     1       1.541   4.255  -0.538  0.00  0.00    +0.123 A 
ATOM     33  C   UNL     1       2.650   3.429  -0.635  0.00  0.00    +0.039 A 
ATOM     34  C   UNL     1       2.501   2.060  -0.573  0.00  0.00    +0.014 A 
ATOM     35  F   UNL     1       1.692   5.596  -0.600  0.00  0.00    -0.205 F 
ENDBRANCH  27  29
BRANCH  28  36
ATOM     36  N   UNL     1      -1.361  -0.140  -0.685  0.00  0.00    -0.295 N 
ATOM     37  H   UNL     1      -1.497   0.949  -0.769  0.00  0.00    +0.163 HD
ATOM     38  H   UNL     1      -2.229  -0.810  -0.771  0.00  0.00    +0.163 HD
ENDBRANCH  28  36
ENDBRANCH  23  24
ENDBRANCH  22  23
ENDBRANCH   7  22
TORSDOF 8
