REMARK  Name = ZINC34810172
REMARK  6 active torsions:
REMARK  status: ('A' for Active; 'I' for Inactive)
REMARK    1  A    between atoms: C_1  and  C_2
REMARK    2  A    between atoms: C_2  and  C_3
REMARK    3  A    between atoms: C_3  and  C_4
REMARK    4  A    between atoms: C_8  and  C_13
REMARK    5  A    between atoms: C_17  and  C_19
REMARK    6  A    between atoms: C_29  and  C_31
REMARK                            x       y       z     vdW  Elec       q    Type
REMARK                         _______ _______ _______ _____ _____    ______ ____
ROOT
ATOM      1  C   UNL     1      -1.159  -2.900   0.304  0.00  0.00    +0.135 A 
ATOM      2  N   UNL     1      -0.948  -3.325  -0.928  0.00  0.00    -0.216 NA
ATOM      3  C   UNL     1      -0.691  -4.606  -1.176  0.00  0.00    +0.138 A 
ATOM      4  C   UNL     1      -0.650  -5.499  -0.094  0.00  0.00    +0.108 A 
ATOM      5  C   UNL     1      -0.407  -6.939   0.049  0.00  0.00    +0.126 A 
ATOM      6  N   UNL     1      -0.497  -7.219   1.323  0.00  0.00    -0.075 NA
ATOM      7  O   UNL     1      -0.788  -6.039   2.047  0.00  0.00    -0.334 OA
ATOM      8  C   UNL     1      -0.881  -5.002   1.198  0.00  0.00    +0.264 A 
ATOM      9  N   UNL     1      -1.125  -3.703   1.347  0.00  0.00    -0.195 NA
ATOM     10  N   UNL     1      -0.471  -5.047  -2.466  0.00  0.00    -0.311 N 
ATOM     11  C   UNL     1      -1.592  -5.215  -3.401  0.00  0.00    +0.125 C 
ATOM     12  C   UNL     1      -1.305  -4.392  -4.663  0.00  0.00    +0.127 C 
ATOM     13  N   UNL     1       0.055  -4.701  -5.126  0.00  0.00    -0.295 N 
ATOM     14  C   UNL     1       1.177  -4.533  -4.191  0.00  0.00    +0.127 C 
ATOM     15  C   UNL     1       0.890  -5.351  -2.931  0.00  0.00    +0.125 C 
ATOM     16  C   UNL     1       0.270  -5.131  -6.385  0.00  0.00    +0.247 C 
ATOM     17  O   UNL     1       1.384  -5.475  -6.728  0.00  0.00    -0.270 OA
ENDROOT
BRANCH  16  18
ATOM     18  C   UNL     1      -0.850  -5.184  -7.349  0.00  0.00    +0.040 A 
ATOM     19  C   UNL     1      -1.854  -4.216  -7.311  0.00  0.00    +0.013 A 
ATOM     20  C   UNL     1      -2.896  -4.269  -8.213  0.00  0.00    +0.004 A 
ATOM     21  C   UNL     1      -2.948  -5.281  -9.156  0.00  0.00    +0.038 A 
ATOM     22  C   UNL     1      -1.955  -6.246  -9.200  0.00  0.00    +0.124 A 
ATOM     23  C   UNL     1      -0.903  -6.199  -8.305  0.00  0.00    +0.051 A 
ATOM     24  F   UNL     1      -2.013  -7.231 -10.123  0.00  0.00    -0.205 F 
ENDBRANCH  16  18
BRANCH   5  25
ATOM     25  C   UNL     1      -0.116  -7.897  -1.045  0.00  0.00    +0.005 A 
ATOM     26  C   UNL     1      -0.921  -7.926  -2.183  0.00  0.00    +0.010 A 
ATOM     27  C   UNL     1      -0.645  -8.818  -3.198  0.00  0.00    +0.001 A 
ATOM     28  C   UNL     1       0.429  -9.684  -3.088  0.00  0.00    +0.012 A 
ATOM     29  C   UNL     1       1.231  -9.660  -1.962  0.00  0.00    +0.055 A 
ATOM     30  C   UNL     1       0.968  -8.767  -0.943  0.00  0.00    +0.022 A 
BRANCH  29  31
ATOM     31  C   UNL     1       2.398 -10.607  -1.850  0.00  0.00    +0.417 C 
ATOM     32  F   UNL     1       2.465 -11.403  -2.998  0.00  0.00    -0.166 F 
ATOM     33  F   UNL     1       3.583  -9.873  -1.722  0.00  0.00    -0.166 F 
ATOM     34  F   UNL     1       2.231 -11.422  -0.726  0.00  0.00    -0.166 F 
ENDBRANCH  29  31
ENDBRANCH   5  25
BRANCH   1  35
ATOM     35  C   UNL     1      -1.445  -1.438   0.526  0.00  0.00    +0.076 C 
BRANCH  35  37
ATOM     36  C   UNL     1      -0.420   0.796   0.975  0.00  0.00    +0.004 C 
ATOM     37  C   UNL     1      -0.130  -0.689   0.749  0.00  0.00    +0.004 C 
ENDBRANCH  35  37
ENDBRANCH   1  35
TORSDOF 5
