REMARK  Name = ZINC11867261
REMARK  4 active torsions:
REMARK  status: ('A' for Active; 'I' for Inactive)
REMARK    1  A    between atoms: C_1  and  C_2
REMARK    2  A    between atoms: N_4  and  C_5
REMARK    3  A    between atoms: C_8  and  S_11
REMARK    4  A    between atoms: S_11  and  N_14
REMARK                            x       y       z     vdW  Elec       q    Type
REMARK                         _______ _______ _______ _____ _____    ______ ____
ROOT
ATOM      1  N   UNL     1       3.237   2.312  -0.995  0.00  0.00    -0.169 NA
ATOM      2  C   UNL     1       3.541   3.733  -0.767  0.00  0.00    +0.110 C 
ATOM      3  C   UNL     1       2.288   4.570  -1.038  0.00  0.00    +0.021 C 
ATOM      4  C   UNL     1       1.145   4.098  -0.134  0.00  0.00    +0.033 C 
ATOM      5  C   UNL     1       0.927   2.615  -0.381  0.00  0.00    -0.054 C 
ATOM      6  C   UNL     1      -0.259   2.202  -0.714  0.00  0.00    -0.024 C 
ATOM      7  C   UNL     1      -0.564   0.767  -1.045  0.00  0.00    -0.002 C 
ATOM      8  C   UNL     1       0.440  -0.136  -0.322  0.00  0.00    +0.009 C 
ATOM      9  C   UNL     1       1.848   0.301  -0.737  0.00  0.00    -0.004 C 
ATOM     10  C   UNL     1       2.122   1.712  -0.251  0.00  0.00    +0.107 C 
ATOM     11  C   UNL     1       1.966   0.228  -2.259  0.00  0.00    -0.073 C 
ATOM     12  C   UNL     1      -0.418   0.565  -2.559  0.00  0.00    -0.062 C 
ATOM     13  C   UNL     1      -1.704  -0.074  -3.091  0.00  0.00    -0.015 C 
ATOM     14  C   UNL     1      -1.568  -0.325  -4.595  0.00  0.00    -0.003 C 
ATOM     15  C   UNL     1      -0.353  -1.225  -4.840  0.00  0.00    -0.019 C 
ATOM     16  C   UNL     1       0.893  -0.544  -4.273  0.00  0.00    -0.078 C 
ATOM     17  N   UNL     1       0.725  -0.341  -2.822  0.00  0.00    +0.382 N 
ATOM     18  H   UNL     1       0.540  -1.247  -2.376  0.00  0.00    -0.081 HD
ENDROOT
BRANCH   1  19
ATOM     19  S   UNL     1       4.129   1.413  -2.062  0.00  0.00    +0.061 S 
ATOM     20  O   UNL     1       4.163   0.088  -1.547  0.00  0.00    -0.153 OA
ATOM     21  O   UNL     1       3.635   1.713  -3.359  0.00  0.00    -0.153 OA
BRANCH  19  25
ATOM     22  C   UNL     1       8.378   2.971  -1.902  0.00  0.00    +0.033 A 
ATOM     23  C   UNL     1       8.007   1.883  -1.124  0.00  0.00    +0.025 A 
ATOM     24  C   UNL     1       6.710   1.410  -1.175  0.00  0.00    +0.030 A 
ATOM     25  C   UNL     1       5.782   2.019  -1.999  0.00  0.00    +0.106 A 
ATOM     26  C   UNL     1       6.150   3.100  -2.780  0.00  0.00    +0.030 A 
ATOM     27  C   UNL     1       7.444   3.581  -2.729  0.00  0.00    +0.025 A 
BRANCH  22  31
ATOM     28  C   UNL     1      12.137   3.102  -1.739  0.00  0.00    +0.109 C 
ATOM     29  C   UNL     1      10.718   2.596  -1.689  0.00  0.00    +0.214 C 
ATOM     30  O   UNL     1      10.500   1.418  -1.503  0.00  0.00    -0.276 OA
ATOM     31  N   UNL     1       9.691   3.454  -1.853  0.00  0.00    -0.286 N 
ATOM     32  H   UNL     1       9.862   4.405  -1.935  0.00  0.00    +0.155 HD
ENDBRANCH  22  31
ENDBRANCH  19  25
ENDBRANCH   1  19
TORSDOF 3
