REMARK  Name = ZINC41540708
REMARK  6 active torsions:
REMARK  status: ('A' for Active; 'I' for Inactive)
REMARK    1  A    between atoms: C_1  and  O_2
REMARK    2  A    between atoms: O_2  and  C_3
REMARK    3  A    between atoms: C_6  and  C_10
REMARK    4  A    between atoms: C_10  and  C_12
REMARK    5  A    between atoms: C_10  and  C_21
REMARK    6  A    between atoms: C_12  and  C_13
REMARK                            x       y       z     vdW  Elec       q    Type
REMARK                         _______ _______ _______ _____ _____    ______ ____
ROOT
ATOM      1  C   UNL     1       2.590  -2.549   4.312  0.00  0.00    +0.126 C 
ENDROOT
BRANCH   1   5
ATOM      2  C   UNL     1       0.626  -0.619   1.042  0.00  0.00    +0.155 A 
ATOM      3  C   UNL     1       1.202   0.138   2.051  0.00  0.00    +0.049 A 
ATOM      4  C   UNL     1       1.836  -0.489   3.107  0.00  0.00    +0.008 A 
ATOM      5  C   UNL     1       1.897  -1.869   3.159  0.00  0.00    -0.027 A 
ATOM      6  C   UNL     1       1.324  -2.627   2.154  0.00  0.00    +0.047 A 
ATOM      7  C   UNL     1       0.683  -2.005   1.098  0.00  0.00    +0.165 A 
ATOM      8  F   UNL     1       0.117  -2.746   0.120  0.00  0.00    -0.202 F 
BRANCH   2  10
ATOM      9  C   UNL     1      -0.017   1.425   0.010  0.00  0.00    +0.277 C 
ATOM     10  O   UNL     1       0.002  -0.004   0.002  0.00  0.00    -0.492 OA
ENDBRANCH   2  10
ENDBRANCH   1   5
BRANCH   1  11
ATOM     11  C   UNL     1       3.703  -3.366   3.803  0.00  0.00    +0.071 C 
ATOM     12  N   UNL     1       4.562  -3.997   3.410  0.00  0.00    -0.196 NA
ENDBRANCH   1  11
BRANCH   1  13
ATOM     13  C   UNL     1       1.593  -3.446   5.048  0.00  0.00    +0.062 C 
BRANCH  13  14
ATOM     14  C   UNL     1       2.251  -4.030   6.272  0.00  0.00    +0.008 A 
ATOM     15  C   UNL     1       2.927  -5.235   6.186  0.00  0.00    +0.128 A 
ATOM     16  C   UNL     1       3.531  -5.771   7.311  0.00  0.00    +0.039 A 
ATOM     17  C   UNL     1       3.459  -5.102   8.519  0.00  0.00    +0.004 A 
ATOM     18  C   UNL     1       2.784  -3.898   8.604  0.00  0.00    +0.020 A 
ATOM     19  C   UNL     1       2.185  -3.359   7.479  0.00  0.00    +0.047 A 
ATOM     20 CL   UNL     1       1.344  -1.845   7.586  0.00  0.00    -0.083 Cl
ATOM     21  F   UNL     1       2.996  -5.889   5.006  0.00  0.00    -0.205 F 
ENDBRANCH  13  14
ENDBRANCH   1  13
TORSDOF 5
