REMARK  Name = ZINC00856546
REMARK  1 active torsions:
REMARK  status: ('A' for Active; 'I' for Inactive)
REMARK    1  A    between atoms: C_2  and  C_11
REMARK                            x       y       z     vdW  Elec       q    Type
REMARK                         _______ _______ _______ _____ _____    ______ ____
ROOT
ATOM      1  C   UNL     1       1.147   3.596   0.010  0.00  0.00    +0.191 C 
ATOM      2  N   UNL     1       2.300   4.092   0.782  0.00  0.00    -0.316 N 
ATOM      3  C   UNL     1       2.159   4.124   2.148  0.00  0.00    +0.080 A 
ATOM      4  C   UNL     1       0.906   4.203   2.773  0.00  0.00    +0.068 A 
ATOM      5  C   UNL     1       0.927   4.214   4.226  0.00  0.00    -0.023 A 
ATOM      6  C   UNL     1       2.163   4.154   4.769  0.00  0.00    -0.005 A 
ATOM      7  S   UNL     1       3.265   4.084   3.384  0.00  0.00    -0.078 S 
ATOM      8  C   UNL     1       2.506   4.150   6.226  0.00  0.00    +0.043 C 
ATOM      9  C   UNL     1       1.269   4.600   7.017  0.00  0.00    +0.005 C 
ATOM     10  C   UNL     1       0.050   3.822   6.513  0.00  0.00    +0.005 C 
ATOM     11  C   UNL     1      -0.316   4.285   5.101  0.00  0.00    +0.037 C 
ATOM     12  C   UNL     1      -0.292   4.274   1.905  0.00  0.00    +0.248 C 
ATOM     13  O   UNL     1      -1.393   4.522   2.362  0.00  0.00    -0.270 OA
ATOM     14  N   UNL     1      -0.113   4.051   0.587  0.00  0.00    -0.289 N 
ATOM     15  H   UNL     1       3.118   4.382   0.348  0.00  0.00    +0.149 HD
ATOM     16  H   UNL     1      -0.863   4.202  -0.009  0.00  0.00    +0.151 HD
ENDROOT
BRANCH   1  18
ATOM     17  C   UNL     1      -0.017   1.381   0.010  0.00  0.00    +0.057 A 
ATOM     18  C   UNL     1       1.171   2.089   0.002  0.00  0.00    +0.008 A 
ATOM     19  C   UNL     1       2.380   1.418  -0.013  0.00  0.00    +0.028 A 
ATOM     20  C   UNL     1       2.406   0.035  -0.021  0.00  0.00    +0.065 A 
ATOM     21  C   UNL     1       1.220  -0.681  -0.014  0.00  0.00    +0.167 A 
ATOM     22  C   UNL     1       0.002  -0.004   0.002  0.00  0.00    +0.167 A 
ATOM     23  O   UNL     1      -1.008  -0.923   0.006  0.00  0.00    -0.453 OA
ATOM     24  C   UNL     1      -0.404  -2.159  -0.419  0.00  0.00    +0.466 C 
ATOM     25  O   UNL     1       0.973  -2.023  -0.019  0.00  0.00    -0.453 OA
ATOM     26 BR   UNL     1       4.000   2.392  -0.023  0.00  0.00    -0.050 Br
ENDBRANCH   1  18
TORSDOF 1
