REMARK  Name = ZINC65307089
REMARK  3 active torsions:
REMARK  status: ('A' for Active; 'I' for Inactive)
REMARK    1  A    between atoms: C_5  and  C_7
REMARK    2  A    between atoms: N_20  and  C_21
REMARK    3  A    between atoms: C_24  and  C_27
REMARK                            x       y       z     vdW  Elec       q    Type
REMARK                         _______ _______ _______ _____ _____    ______ ____
ROOT
ATOM      1  C   UNL     1       1.321  -2.144  -0.020  0.00  0.00    +0.177 C 
ATOM      2  C   UNL     1       0.789  -2.545  -1.376  0.00  0.00    +0.088 A 
ATOM      3  H   UNL     1       0.759  -4.173  -4.036  0.00  0.00    +0.166 HD
ATOM      4  C   UNL     1       1.349  -3.500  -2.148  0.00  0.00    +0.042 A 
ATOM      5  N   UNL     1       0.604  -3.579  -3.286  0.00  0.00    -0.348 N 
ATOM      6  C   UNL     1      -0.392  -2.670  -3.171  0.00  0.00    +0.197 A 
ATOM      7  N   UNL     1      -0.272  -2.057  -2.023  0.00  0.00    -0.238 NA
ATOM      8  C   UNL     1       2.566  -4.305  -1.774  0.00  0.00    +0.074 C 
ATOM      9  C   UNL     1       3.304  -3.587  -0.638  0.00  0.00    +0.116 C 
ATOM     10  N   UNL     1       2.327  -3.148   0.371  0.00  0.00    -0.271 N 
ATOM     11  C   UNL     1       2.349  -3.651   1.621  0.00  0.00    +0.307 C 
ATOM     12  O   UNL     1       3.123  -4.546   1.903  0.00  0.00    -0.252 OA
ATOM     13  N   UNL     1       1.514  -3.162   2.560  0.00  0.00    -0.269 N 
ATOM     14  H   UNL     1       0.846  -2.503   2.318  0.00  0.00    +0.156 HD
ENDROOT
BRANCH   1  19
ATOM     15  C   UNL     1       1.778   1.597  -0.038  0.00  0.00    +0.003 A 
ATOM     16  C   UNL     1       3.146   1.661  -0.259  0.00  0.00    +0.020 A 
ATOM     17  C   UNL     1       3.862   0.487  -0.392  0.00  0.00    +0.111 A 
ATOM     18  N   UNL     1       3.259  -0.684  -0.312  0.00  0.00    -0.258 NA
ATOM     19  C   UNL     1       1.961  -0.782  -0.103  0.00  0.00    +0.068 A 
ATOM     20  C   UNL     1       1.180   0.349   0.041  0.00  0.00    +0.025 A 
ENDBRANCH   1  19
BRANCH  13  21
ATOM     21  C   UNL     1       1.613  -3.606   3.884  0.00  0.00    +0.035 A 
ATOM     22  C   UNL     1       2.850  -3.946   4.413  0.00  0.00    +0.024 A 
ATOM     23  C   UNL     1       2.944  -4.383   5.720  0.00  0.00    +0.014 A 
ATOM     24  C   UNL     1       1.807  -4.482   6.501  0.00  0.00    +0.055 A 
ATOM     25  C   UNL     1       0.573  -4.145   5.976  0.00  0.00    +0.014 A 
ATOM     26  C   UNL     1       0.473  -3.701   4.672  0.00  0.00    +0.024 A 
BRANCH  24  27
ATOM     27  C   UNL     1       1.913  -4.960   7.926  0.00  0.00    +0.417 C 
ATOM     28  F   UNL     1       2.115  -3.863   8.771  0.00  0.00    -0.166 F 
ATOM     29  F   UNL     1       0.731  -5.615   8.287  0.00  0.00    -0.166 F 
ATOM     30  F   UNL     1       2.991  -5.843   8.043  0.00  0.00    -0.166 F 
ENDBRANCH  24  27
ENDBRANCH  13  21
TORSDOF 3
