REMARK  Name = ZINC12524314
REMARK  11 active torsions:
REMARK  status: ('A' for Active; 'I' for Inactive)
REMARK    1  A    between atoms: C_1  and  N_2
REMARK    2  A    between atoms: N_2  and  C_3
REMARK    3  A    between atoms: N_2  and  C_4
REMARK    4  A    between atoms: C_7  and  C_10
REMARK    5  A    between atoms: C_11  and  C_12
REMARK    6  A    between atoms: C_14  and  C_30
REMARK    7  A    between atoms: N_15  and  C_24
REMARK    8  A    between atoms: C_31  and  C_32
REMARK    9  A    between atoms: C_35  and  N_38
REMARK   10  A    between atoms: N_38  and  C_39
REMARK   11  A    between atoms: N_38  and  C_40
REMARK                            x       y       z     vdW  Elec       q    Type
REMARK                         _______ _______ _______ _____ _____    ______ ____
ROOT
ATOM      1  C   UNL     1       1.356  -4.809  -0.045  0.00  0.00    +0.070 A 
ATOM      2  C   UNL     1       0.724  -4.128  -1.069  0.00  0.00    +0.054 A 
ATOM      3  C   UNL     1       0.696  -2.721  -1.041  0.00  0.00    +0.051 A 
ATOM      4  N   UNL     1       1.274  -2.060  -0.035  0.00  0.00    -0.294 N 
ATOM      5  C   UNL     1       1.894  -2.718   0.961  0.00  0.00    +0.145 A 
ATOM      6  N   UNL     1       1.942  -4.086   0.977  0.00  0.00    -0.215 N 
ATOM      7  N   UNL     1       2.639  -4.474   2.126  0.00  0.00    -0.169 NA
ATOM      8  C   UNL     1       2.998  -3.396   2.791  0.00  0.00    +0.069 A 
ATOM      9  C   UNL     1       2.551  -2.277   2.102  0.00  0.00    +0.018 A 
ATOM     10  C   UNL     1       2.952  -1.023   2.847  0.00  0.00    +0.041 C 
ATOM     11  C   UNL     1       3.303  -1.496   4.274  0.00  0.00    +0.011 C 
ATOM     12  C   UNL     1       3.729  -2.962   4.045  0.00  0.00    +0.058 C 
ENDROOT
BRANCH   4  13
ATOM     13  C   UNL     1       1.239  -0.688  -0.021  0.00  0.00    +0.049 A 
ATOM     14  C   UNL     1       0.031  -0.019   0.187  0.00  0.00    +0.026 A 
ATOM     15  C   UNL     1       0.004   1.360   0.201  0.00  0.00    +0.002 A 
ATOM     16  C   UNL     1       1.170   2.080   0.010  0.00  0.00    +0.000 A 
ATOM     17  C   UNL     1       2.370   1.423  -0.197  0.00  0.00    +0.002 A 
ATOM     18  C   UNL     1       2.412   0.045  -0.213  0.00  0.00    +0.026 A 
ENDBRANCH   4  13
BRANCH   1  20
ATOM     19  C   UNL     1       2.024  -6.924   0.962  0.00  0.00    +0.010 C 
ATOM     20  C   UNL     1       1.404  -6.270  -0.043  0.00  0.00    +0.028 C 
BRANCH  19  24
ATOM     21  C   UNL     1       2.164 -11.164   0.967  0.00  0.00    +0.029 A 
ATOM     22  C   UNL     1       2.758 -10.449   2.003  0.00  0.00    +0.023 A 
ATOM     23  C   UNL     1       2.715  -9.073   2.005  0.00  0.00    +0.010 A 
ATOM     24  C   UNL     1       2.072  -8.393   0.964  0.00  0.00    -0.025 A 
ATOM     25  C   UNL     1       1.471  -9.117  -0.072  0.00  0.00    +0.010 A 
ATOM     26  C   UNL     1       1.523 -10.492  -0.070  0.00  0.00    +0.023 A 
BRANCH  21  28
ATOM     27  C   UNL     1       2.883 -13.266   2.060  0.00  0.00    +0.129 C 
ATOM     28  N   UNL     1       2.210 -12.557   0.969  0.00  0.00    -0.336 N 
ATOM     29  C   UNL     1       1.585 -13.312  -0.120  0.00  0.00    +0.129 C 
ENDBRANCH  21  28
ENDBRANCH  19  24
ENDBRANCH   1  20
BRANCH   3  30
ATOM     30  C   UNL     1       0.029  -1.980  -2.119  0.00  0.00    +0.027 C 
ATOM     31  C   UNL     1      -0.653  -2.645  -3.072  0.00  0.00    +0.010 C 
BRANCH  31  32
ATOM     32  C   UNL     1      -1.219  -1.914  -4.216  0.00  0.00    -0.025 A 
ATOM     33  C   UNL     1      -1.056  -0.527  -4.313  0.00  0.00    +0.010 A 
ATOM     34  C   UNL     1      -1.583   0.152  -5.388  0.00  0.00    +0.023 A 
ATOM     35  C   UNL     1      -2.287  -0.536  -6.372  0.00  0.00    +0.029 A 
ATOM     36  C   UNL     1      -2.457  -1.914  -6.276  0.00  0.00    +0.023 A 
ATOM     37  C   UNL     1      -1.928  -2.602  -5.207  0.00  0.00    +0.010 A 
BRANCH  35  38
ATOM     38  N   UNL     1      -2.824   0.156  -7.456  0.00  0.00    -0.336 N 
ATOM     39  C   UNL     1      -3.457  -0.579  -8.553  0.00  0.00    +0.129 C 
ATOM     40  C   UNL     1      -2.754   1.619  -7.497  0.00  0.00    +0.129 C 
ENDBRANCH  35  38
ENDBRANCH  31  32
ENDBRANCH   3  30
TORSDOF 7
