REMARK  Name = ZINC59255179
REMARK  8 active torsions:
REMARK  status: ('A' for Active; 'I' for Inactive)
REMARK    1  A    between atoms: C_1  and  C_2
REMARK    2  A    between atoms: C_6  and  N_8
REMARK    3  A    between atoms: C_11  and  C_15
REMARK    4  A    between atoms: C_11  and  N_19
REMARK    5  A    between atoms: N_19  and  S_20
REMARK    6  A    between atoms: S_20  and  C_23
REMARK    7  A    between atoms: C_26  and  N_29
REMARK    8  A    between atoms: C_30  and  C_32
REMARK                            x       y       z     vdW  Elec       q    Type
REMARK                         _______ _______ _______ _____ _____    ______ ____
ROOT
ATOM      1  N   UNL     1       0.422  -3.217   2.550  0.00  0.00    -0.187 N 
ATOM      2  C   UNL     1       0.175  -4.543   2.606  0.00  0.00    +0.281 C 
ATOM      3  O   UNL     1       0.128  -5.324   1.680  0.00  0.00    -0.270 OA
ATOM      4  C   UNL     1      -0.030  -4.843   4.078  0.00  0.00    +0.306 C 
ATOM      5  N   UNL     1       0.141  -3.537   4.733  0.00  0.00    -0.190 NA
ATOM      6  C   UNL     1       0.399  -2.667   3.809  0.00  0.00    +0.345 C 
ATOM      7  O   UNL     1       0.617  -1.357   4.056  0.00  0.00    -0.247 OA
ENDROOT
BRANCH   1  13
ATOM      8  C   UNL     1       1.044  -3.177  -2.328  0.00  0.00    +0.044 C 
ATOM      9  C   UNL     1       0.980  -2.457  -1.006  0.00  0.00    -0.049 A 
ATOM     10  C   UNL     1       1.169  -1.088  -0.954  0.00  0.00    +0.003 A 
ATOM     11  C   UNL     1       1.111  -0.424   0.257  0.00  0.00    +0.002 A 
ATOM     12  C   UNL     1       0.864  -1.127   1.420  0.00  0.00    +0.024 A 
ATOM     13  C   UNL     1       0.673  -2.501   1.372  0.00  0.00    +0.046 A 
ATOM     14  C   UNL     1       0.727  -3.164   0.153  0.00  0.00    +0.027 A 
ENDBRANCH   1  13
BRANCH   4  15
ATOM     15  C   UNL     1       1.024  -5.835   4.575  0.00  0.00    +0.438 C 
ATOM     16  F   UNL     1       2.294  -5.258   4.469  0.00  0.00    -0.166 F 
ATOM     17  F   UNL     1       0.768  -6.155   5.913  0.00  0.00    -0.166 F 
ATOM     18  F   UNL     1       0.974  -6.998   3.799  0.00  0.00    -0.166 F 
ENDBRANCH   4  15
BRANCH   4  19
ATOM     19  N   UNL     1      -1.379  -5.364   4.313  0.00  0.00    -0.147 NA
ATOM     20  H   UNL     1      -1.500  -6.279   4.611  0.00  0.00    +0.151 HD
BRANCH  19  21
ATOM     21  S   UNL     1      -2.696  -4.391   4.070  0.00  0.00    +0.061 S 
ATOM     22  O   UNL     1      -3.833  -5.133   4.490  0.00  0.00    -0.153 OA
ATOM     23  O   UNL     1      -2.370  -3.121   4.618  0.00  0.00    -0.153 OA
BRANCH  21  24
ATOM     24  C   UNL     1      -2.860  -4.161   2.330  0.00  0.00    +0.105 A 
ATOM     25  C   UNL     1      -2.216  -3.107   1.710  0.00  0.00    +0.030 A 
ATOM     26  C   UNL     1      -2.342  -2.924   0.347  0.00  0.00    +0.025 A 
ATOM     27  C   UNL     1      -3.117  -3.801  -0.401  0.00  0.00    +0.033 A 
ATOM     28  C   UNL     1      -3.763  -4.860   0.225  0.00  0.00    +0.025 A 
ATOM     29  C   UNL     1      -3.628  -5.039   1.588  0.00  0.00    +0.030 A 
BRANCH  27  30
ATOM     30  N   UNL     1      -3.248  -3.619  -1.782  0.00  0.00    -0.286 N 
ATOM     31  C   UNL     1      -3.331  -4.688  -2.598  0.00  0.00    +0.214 C 
ATOM     32  O   UNL     1      -3.369  -5.807  -2.130  0.00  0.00    -0.276 OA
ATOM     33  C   UNL     1      -3.377  -4.494  -4.092  0.00  0.00    +0.109 C 
ATOM     34  H   UNL     1      -3.278  -2.723  -2.152  0.00  0.00    +0.155 HD
ENDBRANCH  27  30
ENDBRANCH  21  24
ENDBRANCH  19  21
ENDBRANCH   4  19
TORSDOF 6
