REMARK  Name = ZINC04967747
REMARK  6 active torsions:
REMARK  status: ('A' for Active; 'I' for Inactive)
REMARK    1  A    between atoms: C_1  and  C_2
REMARK    2  A    between atoms: C_3  and  C_24
REMARK    3  A    between atoms: C_8  and  C_10
REMARK    4  A    between atoms: C_10  and  N_47
REMARK    5  A    between atoms: C_13  and  C_16
REMARK    6  A    between atoms: C_13  and  O_23
REMARK                            x       y       z     vdW  Elec       q    Type
REMARK                         _______ _______ _______ _____ _____    ______ ____
ROOT
ATOM      1  C   UNL     1      -0.039   3.528   1.387  0.00  0.00    -0.075 C 
ATOM      2  C   UNL     1       0.400   3.117  -0.021  0.00  0.00    +0.021 C 
ATOM      3  C   UNL     1       0.570   1.596  -0.073  0.00  0.00    +0.088 C 
ATOM      4  C   UNL     1       1.591   1.167   0.984  0.00  0.00    +0.021 C 
ATOM      5  C   UNL     1       1.118   1.635   2.362  0.00  0.00    -0.075 C 
ATOM      6  N   UNL     1       0.998   3.109   2.354  0.00  0.00    +0.386 N 
ATOM      7  H   UNL     1       1.898   3.514   2.074  0.00  0.00    -0.081 HD
ENDROOT
BRANCH   3   8
ATOM      8  C   UNL     1       1.058   1.190  -1.440  0.00  0.00    -0.016 A 
ATOM      9  C   UNL     1       1.838   2.059  -2.180  0.00  0.00    +0.009 A 
ATOM     10  C   UNL     1       2.291   1.686  -3.432  0.00  0.00    +0.039 A 
ATOM     11  C   UNL     1       1.953   0.447  -3.949  0.00  0.00    +0.123 A 
ATOM     12  C   UNL     1       1.167  -0.420  -3.208  0.00  0.00    +0.039 A 
ATOM     13  C   UNL     1       0.720  -0.047  -1.955  0.00  0.00    +0.009 A 
ATOM     14  F   UNL     1       2.391   0.084  -5.174  0.00  0.00    -0.205 F 
ENDBRANCH   3   8
BRANCH   3  15
ATOM     15  O   UNL     1      -0.685   0.966   0.192  0.00  0.00    -0.384 OA
ATOM     16  H   UNL     1      -0.652  -0.000   0.175  0.00  0.00    +0.211 HD
ENDBRANCH   3  15
BRANCH   6  17
ATOM     17  C   UNL     1       0.652   3.595   3.706  0.00  0.00    +0.019 C 
BRANCH  17  25
ATOM     18  C   UNL     1       1.458  10.206   2.985  0.00  0.00    +0.066 C 
ATOM     19  C   UNL     1       0.963   9.289   4.074  0.00  0.00    +0.050 A 
ATOM     20  C   UNL     1       0.543   9.787   5.262  0.00  0.00    +0.011 A 
ATOM     21  S   UNL     1       0.094   8.282   6.113  0.00  0.00    -0.057 S 
ATOM     22  C   UNL     1       0.499   7.173   4.839  0.00  0.00    +0.165 A 
ATOM     23  N   UNL     1       0.935   7.983   3.894  0.00  0.00    -0.230 NA
ATOM     24  N   UNL     1       0.395   5.787   4.822  0.00  0.00    -0.266 N 
ATOM     25  C   UNL     1       0.764   5.097   3.725  0.00  0.00    +0.202 C 
ATOM     26  O   UNL     1       1.188   5.686   2.752  0.00  0.00    -0.277 OA
ATOM     27  C   UNL     1       0.474  11.216   5.736  0.00  0.00    +0.053 C 
ATOM     28  H   UNL     1       0.057   5.316   5.600  0.00  0.00    +0.157 HD
ENDBRANCH  17  25
ENDBRANCH   6  17
TORSDOF 4
