REMARK  Name = ZINC66955840
REMARK  10 active torsions:
REMARK  status: ('A' for Active; 'I' for Inactive)
REMARK    1  A    between atoms: C_1  and  C_2
REMARK    2  A    between atoms: C_2  and  C_4
REMARK    3  A    between atoms: C_2  and  S_7
REMARK    4  A    between atoms: C_4  and  C_5
REMARK    5  A    between atoms: S_7  and  C_8
REMARK    6  A    between atoms: C_13  and  N_14
REMARK    7  A    between atoms: N_17  and  C_18
REMARK    8  A    between atoms: N_21  and  C_24
REMARK    9  A    between atoms: C_24  and  C_25
REMARK   10  A    between atoms: N_27  and  C_28
REMARK                            x       y       z     vdW  Elec       q    Type
REMARK                         _______ _______ _______ _____ _____    ______ ____
ROOT
ATOM      1  N   UNL     1      -4.730  -0.979  -0.640  0.00  0.00    -0.268 N 
ATOM      2  C   UNL     1      -6.052  -1.064  -0.891  0.00  0.00    +0.304 C 
ATOM      3  O   UNL     1      -6.484  -0.754  -1.985  0.00  0.00    -0.253 OA
ATOM      4  N   UNL     1      -6.894  -1.491   0.070  0.00  0.00    -0.296 N 
ATOM      5  H   UNL     1      -4.377  -1.286   0.210  0.00  0.00    +0.156 HD
ATOM      6  H   UNL     1      -6.550  -1.738   0.942  0.00  0.00    +0.151 HD
ENDROOT
BRANCH   4   7
ATOM      7  C   UNL     1      -8.331  -1.583  -0.203  0.00  0.00    +0.071 C 
ATOM      8  C   UNL     1      -8.987  -0.221   0.045  0.00  0.00    +0.004 C 
ATOM      9  C   UNL     1     -10.498  -0.344  -0.165  0.00  0.00    -0.076 C 
ATOM     10  N   UNL     1     -11.047  -1.331   0.772  0.00  0.00    +0.385 N 
ATOM     11  C   UNL     1     -10.475  -2.654   0.493  0.00  0.00    -0.076 C 
ATOM     12  C   UNL     1      -8.963  -2.620   0.728  0.00  0.00    +0.004 C 
ATOM     13  H   UNL     1     -10.819  -1.060   1.717  0.00  0.00    -0.081 HD
BRANCH  10  14
ATOM     14  C   UNL     1     -12.507  -1.389   0.621  0.00  0.00    +0.019 C 
BRANCH  14  15
ATOM     15  C   UNL     1     -13.084  -2.310   1.664  0.00  0.00    +0.196 C 
ATOM     16  O   UNL     1     -12.352  -2.864   2.456  0.00  0.00    -0.278 OA
ATOM     17  N   UNL     1     -14.415  -2.518   1.717  0.00  0.00    -0.320 N 
ATOM     18  C   UNL     1     -14.976  -3.414   2.732  0.00  0.00    +0.128 C 
ATOM     19  H   UNL     1     -15.001  -2.075   1.084  0.00  0.00    +0.148 HD
ENDBRANCH  14  15
ENDBRANCH  10  14
ENDBRANCH   4   7
BRANCH   1  25
ATOM     20  C   UNL     1      -2.756   0.302  -1.218  0.00  0.00    +0.029 A 
ATOM     21  C   UNL     1      -1.901   0.819  -2.181  0.00  0.00    +0.016 A 
ATOM     22  C   UNL     1      -2.152   0.594  -3.522  0.00  0.00    +0.001 A 
ATOM     23  C   UNL     1      -3.255  -0.146  -3.907  0.00  0.00    +0.002 A 
ATOM     24  C   UNL     1      -4.113  -0.664  -2.955  0.00  0.00    +0.024 A 
ATOM     25  C   UNL     1      -3.865  -0.449  -1.608  0.00  0.00    +0.048 A 
BRANCH  20  26
ATOM     26  S   UNL     1      -2.438   0.587   0.491  0.00  0.00    -0.119 S 
BRANCH  26  28
ATOM     27  C   UNL     1      -1.474   3.096  -0.017  0.00  0.00    +0.020 C 
ATOM     28  C   UNL     1      -1.025   1.724   0.491  0.00  0.00    +0.062 C 
BRANCH  28  29
ATOM     29  C   UNL     1      -0.479   1.861   1.913  0.00  0.00    +0.132 C 
BRANCH  29  30
ATOM     30  C   UNL     1       0.063   0.566   2.357  0.00  0.00    +0.064 C 
ATOM     31  N   UNL     1       0.482  -0.433   2.700  0.00  0.00    -0.197 NA
ENDBRANCH  29  30
ENDBRANCH  28  29
ENDBRANCH  26  28
ENDBRANCH  20  26
ENDBRANCH   1  25
TORSDOF 8
