REMARK  Name = ZINC09562201
REMARK  5 active torsions:
REMARK  status: ('A' for Active; 'I' for Inactive)
REMARK    1  A    between atoms: C_8  and  C_16
REMARK    2  A    between atoms: C_9  and  N_11
REMARK    3  A    between atoms: C_16  and  C_18
REMARK    4  A    between atoms: C_16  and  S_20
REMARK    5  A    between atoms: S_20  and  C_23
REMARK                            x       y       z     vdW  Elec       q    Type
REMARK                         _______ _______ _______ _____ _____    ______ ____
ROOT
ATOM      1  C   UNL     1       3.375   1.796   5.368  0.00  0.00    +0.002 A 
ATOM      2  C   UNL     1       2.620   1.328   6.442  0.00  0.00    +0.002 A 
ATOM      3  C   UNL     1       1.284   1.102   6.312  0.00  0.00    +0.030 A 
ATOM      4  C   UNL     1       0.653   1.343   5.080  0.00  0.00    +0.091 A 
ATOM      5  C   UNL     1       1.420   1.818   3.988  0.00  0.00    +0.090 A 
ATOM      6  C   UNL     1       2.797   2.039   4.160  0.00  0.00    +0.030 A 
ATOM      7  N   UNL     1       0.826   2.050   2.811  0.00  0.00    -0.244 NA
ATOM      8  C   UNL     1      -0.460   1.837   2.675  0.00  0.00    +0.120 A 
ATOM      9  C   UNL     1      -1.226   1.371   3.758  0.00  0.00    +0.146 A 
ATOM     10  N   UNL     1      -0.660   1.131   4.926  0.00  0.00    -0.229 NA
ENDROOT
BRANCH   9  11
ATOM     11  N   UNL     1      -2.587   1.157   3.597  0.00  0.00    -0.317 N 
ATOM     12  C   UNL     1      -2.860  -0.239   3.227  0.00  0.00    +0.087 C 
ATOM     13  C   UNL     1      -4.361  -0.414   2.981  0.00  0.00    -0.063 C 
ATOM     14  C   UNL     1      -4.827   1.356   4.564  0.00  0.00    -0.063 C 
ATOM     15  C   UNL     1      -3.327   1.531   4.810  0.00  0.00    +0.087 C 
ATOM     16  N   UNL     1      -5.106  -0.046   4.199  0.00  0.00    +0.381 N 
ATOM     17  H   UNL     1      -4.820  -0.660   4.970  0.00  0.00    -0.086 HD
ATOM     18  H   UNL     1      -6.112  -0.157   4.027  0.00  0.00    -0.086 HD
ENDBRANCH   9  11
BRANCH   8  19
ATOM     19  C   UNL     1      -1.125   2.099   1.349  0.00  0.00    +0.289 C 
BRANCH  19  20
ATOM     20  S   UNL     1      -0.100   1.421   0.014  0.00  0.00    +0.020 S 
ATOM     21  O   UNL     1      -0.178   0.002   0.011  0.00  0.00    -0.168 OA
ATOM     22  O   UNL     1       1.159   2.078  -0.018  0.00  0.00    -0.168 OA
BRANCH  20  23
ATOM     23  C   UNL     1      -0.905   1.918  -1.472  0.00  0.00    +0.110 A 
ATOM     24  C   UNL     1      -0.276   2.792  -2.339  0.00  0.00    +0.048 A 
ATOM     25  C   UNL     1      -0.907   3.182  -3.506  0.00  0.00    +0.043 A 
ATOM     26  C   UNL     1      -2.169   2.699  -3.806  0.00  0.00    +0.021 A 
ATOM     27  C   UNL     1      -2.798   1.826  -2.938  0.00  0.00    +0.023 A 
ATOM     28  C   UNL     1      -2.163   1.431  -1.774  0.00  0.00    +0.066 A 
ATOM     29 CL   UNL     1      -2.950   0.328  -0.688  0.00  0.00    -0.082 Cl
ATOM     30 CL   UNL     1      -0.117   4.279  -4.596  0.00  0.00    -0.083 Cl
ENDBRANCH  20  23
ENDBRANCH  19  20
BRANCH  19  31
ATOM     31  C   UNL     1      -1.282   3.550   1.157  0.00  0.00    +0.096 C 
ATOM     32  N   UNL     1      -1.403   4.670   1.009  0.00  0.00    -0.194 NA
ENDBRANCH  19  31
ENDBRANCH   8  19
TORSDOF 5
