REMARK  Name = ZINC63405349
REMARK  8 active torsions:
REMARK  status: ('A' for Active; 'I' for Inactive)
REMARK    1  A    between atoms: C_1  and  C_2
REMARK    2  A    between atoms: N_4  and  C_5
REMARK    3  A    between atoms: C_5  and  C_7
REMARK    4  A    between atoms: C_5  and  C_17
REMARK    5  A    between atoms: C_7  and  C_8
REMARK    6  A    between atoms: N_19  and  C_20
REMARK    7  A    between atoms: C_24  and  N_26
REMARK    8  A    between atoms: C_27  and  C_29
REMARK                            x       y       z     vdW  Elec       q    Type
REMARK                         _______ _______ _______ _____ _____    ______ ____
ROOT
ATOM      1  C   UNL     1      -0.053  -2.207  -1.070  0.00  0.00    +0.163 C 
ENDROOT
BRANCH   1   5
ATOM      2  C   UNL     1      -0.368   1.262   0.519  0.00  0.00    +0.109 C 
ATOM      3  C   UNL     1      -0.256  -0.230   0.341  0.00  0.00    +0.211 C 
ATOM      4  O   UNL     1      -0.248  -0.958   1.311  0.00  0.00    -0.276 OA
ATOM      5  N   UNL     1      -0.163  -0.756  -0.897  0.00  0.00    -0.304 N 
ATOM      6  H   UNL     1      -0.169  -0.174  -1.673  0.00  0.00    +0.149 HD
ENDBRANCH   1   5
BRANCH   1   7
ATOM      7  C   UNL     1       1.185  -2.704  -0.369  0.00  0.00    +0.238 C 
ATOM      8  O   UNL     1       1.701  -2.033   0.499  0.00  0.00    -0.273 OA
ATOM      9  N   UNL     1       1.718  -3.895  -0.708  0.00  0.00    -0.284 N 
ATOM     10  H   UNL     1       1.265  -4.464  -1.349  0.00  0.00    +0.155 HD
BRANCH   9  11
ATOM     11  C   UNL     1       2.925  -4.309  -0.134  0.00  0.00    +0.035 A 
ATOM     12  C   UNL     1       3.152  -5.657   0.111  0.00  0.00    +0.023 A 
ATOM     13  C   UNL     1       4.344  -6.067   0.677  0.00  0.00    +0.004 A 
ATOM     14  C   UNL     1       5.314  -5.138   1.001  0.00  0.00    +0.023 A 
ATOM     15  C   UNL     1       5.093  -3.788   0.758  0.00  0.00    +0.035 A 
ATOM     16  C   UNL     1       3.899  -3.374   0.185  0.00  0.00    +0.046 A 
BRANCH  15  17
ATOM     17  N   UNL     1       6.076  -2.847   1.086  0.00  0.00    -0.285 N 
ATOM     18  C   UNL     1       7.380  -3.159   0.947  0.00  0.00    +0.220 C 
ATOM     19  O   UNL     1       7.704  -4.280   0.618  0.00  0.00    -0.275 OA
ATOM     20  H   UNL     1       5.819  -1.971   1.414  0.00  0.00    +0.155 HD
BRANCH  18  21
ATOM     21  C   UNL     1       8.435  -2.113   1.202  0.00  0.00    +0.075 C 
ATOM     22  C   UNL     1       9.235  -1.610  -0.002  0.00  0.00    +0.013 C 
ATOM     23  C   UNL     1       9.897  -2.529   1.027  0.00  0.00    +0.013 C 
ENDBRANCH  18  21
ENDBRANCH  15  17
ENDBRANCH   9  11
ENDBRANCH   1   7
BRANCH   1  24
ATOM     24  C   UNL     1      -1.286  -2.886  -0.471  0.00  0.00    +0.065 C 
BRANCH  24  25
ATOM     25  C   UNL     1      -2.511  -2.483  -1.251  0.00  0.00    -0.039 C 
ATOM     26  C   UNL     1      -3.085  -3.161  -2.271  0.00  0.00    -0.001 A 
ATOM     27  C   UNL     1      -2.754  -4.428  -2.934  0.00  0.00    +0.010 A 
ATOM     28  C   UNL     1      -3.534  -4.860  -3.951  0.00  0.00    +0.001 A 
ATOM     29  C   UNL     1      -4.648  -4.129  -4.386  0.00  0.00    +0.002 A 
ATOM     30  C   UNL     1      -5.016  -2.957  -3.827  0.00  0.00    +0.026 A 
ATOM     31  C   UNL     1      -4.267  -2.409  -2.749  0.00  0.00    +0.043 A 
ATOM     32  N   UNL     1      -4.418  -1.309  -2.052  0.00  0.00    -0.380 N 
ATOM     33  C   UNL     1      -3.350  -1.242  -1.048  0.00  0.00    +0.144 C 
ATOM     34  H   UNL     1      -5.120  -0.651  -2.177  0.00  0.00    +0.160 HD
ENDBRANCH  24  25
ENDBRANCH   1  24
TORSDOF 7
