REMARK  Name = ZINC35394143
REMARK  16 active torsions:
REMARK  status: ('A' for Active; 'I' for Inactive)
REMARK    1  A    between atoms: C_1  and  C_2
REMARK    2  A    between atoms: C_2  and  O_3
REMARK    3  A    between atoms: O_3  and  C_4
REMARK    4  A    between atoms: C_4  and  C_5
REMARK    5  A    between atoms: C_5  and  C_6
REMARK    6  A    between atoms: C_6  and  N_7
REMARK    7  A    between atoms: N_7  and  C_8
REMARK    8  A    between atoms: C_8  and  C_9
REMARK    9  A    between atoms: N_11  and  C_12
REMARK   10  A    between atoms: N_11  and  C_19
REMARK   11  A    between atoms: C_12  and  C_13
REMARK   12  A    between atoms: C_19  and  C_20
REMARK   13  A    between atoms: C_25  and  C_27
REMARK   14  A    between atoms: C_27  and  C_28
REMARK   15  A    between atoms: C_27  and  C_29
REMARK   16  A    between atoms: C_27  and  C_30
REMARK                            x       y       z     vdW  Elec       q    Type
REMARK                         _______ _______ _______ _____ _____    ______ ____
ROOT
ATOM      1  C   UNL     1       2.378  -6.867  -4.285  0.00  0.00    +0.234 C 
ATOM      2  O   UNL     1       1.326  -7.314  -4.690  0.00  0.00    -0.274 OA
ATOM      3  N   UNL     1       3.427  -7.688  -4.083  0.00  0.00    -0.291 N 
ENDROOT
BRANCH   1   4
ATOM      4  C   UNL     1       2.512  -5.391  -4.009  0.00  0.00    +0.203 C 
BRANCH   4   5
ATOM      5  N   UNL     1       1.243  -4.722  -4.305  0.00  0.00    -0.292 N 
ATOM      6  C   UNL     1       1.031  -4.190  -5.525  0.00  0.00    +0.221 C 
ATOM      7  O   UNL     1      -0.051  -3.714  -5.799  0.00  0.00    -0.275 OA
BRANCH   6   8
ATOM      8  C   UNL     1       2.137  -4.186  -6.548  0.00  0.00    +0.039 C 
ATOM      9  C   UNL     1       1.591  -3.687  -7.888  0.00  0.00    +0.020 C 
ATOM     10  C   UNL     1       3.262  -3.261  -6.080  0.00  0.00    +0.020 C 
ATOM     11  C   UNL     1       2.681  -5.606  -6.716  0.00  0.00    +0.020 C 
ENDBRANCH   6   8
BRANCH   5  12
ATOM     12  C   UNL     1       0.205  -4.630  -3.275  0.00  0.00    +0.110 C 
BRANCH  12  13
ATOM     13  C   UNL     1       0.329  -3.292  -2.544  0.00  0.00    +0.047 C 
BRANCH  13  14
ATOM     14  C   UNL     1      -0.827  -3.144  -1.552  0.00  0.00    +0.161 C 
BRANCH  14  15
ATOM     15  O   UNL     1      -0.711  -1.894  -0.869  0.00  0.00    -0.380 OA
BRANCH  15  17
ATOM     16  C   UNL     1      -1.524  -0.297   0.752  0.00  0.00    +0.034 C 
ATOM     17  C   UNL     1      -1.747  -1.656   0.086  0.00  0.00    +0.156 C 
ENDBRANCH  15  17
ENDBRANCH  14  15
ENDBRANCH  13  14
ENDBRANCH  12  13
ENDBRANCH   5  12
ENDBRANCH   4   5
ENDBRANCH   1   4
BRANCH   3  18
ATOM     18  C   UNL     1       3.296  -9.123  -4.352  0.00  0.00    +0.143 C 
BRANCH  18  19
ATOM     19  C   UNL     1       3.677  -9.402  -5.783  0.00  0.00    -0.030 A 
ATOM     20  C   UNL     1       2.715  -9.358  -6.775  0.00  0.00    +0.005 A 
ATOM     21  C   UNL     1       3.064  -9.614  -8.088  0.00  0.00    +0.000 A 
ATOM     22  C   UNL     1       4.374  -9.914  -8.409  0.00  0.00    +0.000 A 
ATOM     23  C   UNL     1       5.337  -9.956  -7.417  0.00  0.00    +0.000 A 
ATOM     24  C   UNL     1       4.989  -9.696  -6.105  0.00  0.00    +0.005 A 
ENDBRANCH  18  19
ENDBRANCH   3  18
BRANCH   3  25
ATOM     25  C   UNL     1       4.697  -7.147  -3.594  0.00  0.00    +0.150 C 
BRANCH  25  26
ATOM     26  C   UNL     1       4.708  -7.174  -2.087  0.00  0.00    +0.007 A 
ATOM     27  C   UNL     1       5.138  -8.153  -1.254  0.00  0.00    +0.013 A 
ATOM     28  C   UNL     1       5.052  -7.957   0.112  0.00  0.00    +0.008 A 
ATOM     29  C   UNL     1       4.539  -6.792   0.577  0.00  0.00    +0.045 A 
ATOM     30  S   UNL     1       4.165  -5.922  -0.936  0.00  0.00    -0.100 S 
ENDBRANCH  25  26
ENDBRANCH   3  25
TORSDOF 12
