REMARK  Name = ZINC63697453
REMARK  11 active torsions:
REMARK  status: ('A' for Active; 'I' for Inactive)
REMARK    1  A    between atoms: C_1  and  C_2
REMARK    2  A    between atoms: C_2  and  N_3
REMARK    3  A    between atoms: N_3  and  C_4
REMARK    4  A    between atoms: N_3  and  C_6
REMARK    5  A    between atoms: C_4  and  C_5
REMARK    6  A    between atoms: C_6  and  C_7
REMARK    7  A    between atoms: N_9  and  N_10
REMARK    8  A    between atoms: N_10  and  C_11
REMARK    9  A    between atoms: C_11  and  N_13
REMARK   10  A    between atoms: N_13  and  C_14
REMARK   11  A    between atoms: C_16  and  C_21
REMARK                            x       y       z     vdW  Elec       q    Type
REMARK                         _______ _______ _______ _____ _____    ______ ____
ROOT
ATOM      1  C   UNL     1      -4.890  -5.534   0.115  0.00  0.00    +0.151 C 
ATOM      2  S   UNL     1      -6.475  -5.980  -0.356  0.00  0.00    -0.017 S 
ENDROOT
BRANCH   1   3
ATOM      3  N   UNL     1      -4.501  -4.246   0.034  0.00  0.00    -0.246 N 
ATOM      4  H   UNL     1      -5.118  -3.572  -0.291  0.00  0.00    +0.172 HD
BRANCH   3   7
ATOM      5  C   UNL     1      -2.815  -2.593   0.339  0.00  0.00    +0.212 C 
ATOM      6  O   UNL     1      -3.587  -1.751  -0.068  0.00  0.00    -0.276 OA
ATOM      7  N   UNL     1      -3.204  -3.881   0.419  0.00  0.00    -0.237 N 
ATOM      8  H   UNL     1      -2.587  -4.555   0.744  0.00  0.00    +0.173 HD
BRANCH   5   9
ATOM      9  C   UNL     1      -1.420  -2.200   0.753  0.00  0.00    +0.020 C 
BRANCH   9  10
ATOM     10  N   UNL     1      -1.218  -0.768   0.496  0.00  0.00    +0.385 N 
ATOM     11  H   UNL     1      -1.460  -0.561  -0.462  0.00  0.00    -0.081 HD
BRANCH  10  13
ATOM     12  C   UNL     1      -1.956   1.501   1.046  0.00  0.00    -0.017 C 
ATOM     13  C   UNL     1      -2.072   0.017   1.397  0.00  0.00    -0.082 C 
ENDBRANCH  10  13
BRANCH  10  14
ATOM     14  C   UNL     1       0.190  -0.423   0.730  0.00  0.00    -0.082 C 
ATOM     15  C   UNL     1       1.070  -1.146  -0.291  0.00  0.00    -0.017 C 
ENDBRANCH  10  14
ENDBRANCH   9  10
ENDBRANCH   5   9
ENDBRANCH   3   7
ENDBRANCH   1   3
BRANCH   1  16
ATOM     16  N   UNL     1      -4.032  -6.470   0.566  0.00  0.00    -0.295 N 
ATOM     17  H   UNL     1      -3.163  -6.208   0.907  0.00  0.00    +0.154 HD
BRANCH  16  18
ATOM     18  C   UNL     1      -4.396  -7.822   0.543  0.00  0.00    +0.052 A 
ATOM     19  C   UNL     1      -5.674  -8.206   0.927  0.00  0.00    +0.037 A 
ATOM     20  C   UNL     1      -6.029  -9.540   0.902  0.00  0.00    +0.057 A 
ATOM     21  C   UNL     1      -5.114 -10.494   0.496  0.00  0.00    +0.014 A 
ATOM     22  C   UNL     1      -3.841 -10.116   0.113  0.00  0.00    +0.022 A 
ATOM     23  C   UNL     1      -3.480  -8.782   0.129  0.00  0.00    +0.062 A 
ATOM     24 CL   UNL     1      -1.883  -8.307  -0.359  0.00  0.00    -0.082 Cl
BRANCH  20  25
ATOM     25  C   UNL     1      -7.416  -9.957   1.319  0.00  0.00    +0.417 C 
ATOM     26  F   UNL     1      -8.260  -9.952   0.203  0.00  0.00    -0.166 F 
ATOM     27  F   UNL     1      -7.372 -11.244   1.865  0.00  0.00    -0.166 F 
ATOM     28  F   UNL     1      -7.905  -9.061   2.276  0.00  0.00    -0.166 F 
ENDBRANCH  20  25
ENDBRANCH  16  18
ENDBRANCH   1  16
TORSDOF 9
