REMARK  Name = ZINC09159705
REMARK  4 active torsions:
REMARK  status: ('A' for Active; 'I' for Inactive)
REMARK    1  A    between atoms: C_1  and  C_2
REMARK    2  A    between atoms: C_4  and  N_11
REMARK    3  A    between atoms: C_5  and  O_9
REMARK    4  A    between atoms: O_9  and  C_10
REMARK                            x       y       z     vdW  Elec       q    Type
REMARK                         _______ _______ _______ _____ _____    ______ ____
ROOT
ATOM      1  N   UNL     1       3.791  -3.022   1.343  0.00  0.00    -0.206 N 
ATOM      2  C   UNL     1       3.421  -4.201   0.831  0.00  0.00    +0.229 C 
ATOM      3  O   UNL     1       4.175  -5.103   0.533  0.00  0.00    -0.275 OA
ATOM      4  C   UNL     1       1.917  -4.234   0.680  0.00  0.00    +0.074 C 
ATOM      5  C   UNL     1       1.554  -4.239  -0.817  0.00  0.00    -0.054 C 
ATOM      6  C   UNL     1       2.719  -4.809  -1.645  0.00  0.00    -0.016 C 
ATOM      7  C   UNL     1       3.576  -3.593  -2.043  0.00  0.00    -0.020 C 
ATOM      8  C   UNL     1       2.877  -2.379  -1.399  0.00  0.00    -0.076 C 
ATOM      9  C   UNL     1       0.908  -2.130  -0.018  0.00  0.00    +0.053 C 
ATOM     10  C   UNL     1       1.513  -2.837   1.201  0.00  0.00    +0.089 C 
ATOM     11  C   UNL     1       2.779  -2.182   1.591  0.00  0.00    +0.230 C 
ATOM     12  O   UNL     1       2.891  -1.068   2.056  0.00  0.00    -0.275 OA
ATOM     13  C   UNL     1       1.228  -0.661  -0.013  0.00  0.00    -0.026 A 
ATOM     14  C   UNL     1       2.407   0.051  -0.019  0.00  0.00    +0.024 A 
ATOM     15  C   UNL     1       2.380   1.435  -0.011  0.00  0.00    +0.041 A 
ATOM     16  C   UNL     1       1.165   2.099   0.002  0.00  0.00    +0.022 A 
ATOM     17  C   UNL     1      -0.017   1.389   0.010  0.00  0.00    +0.025 A 
ATOM     18  C   UNL     1       0.002  -0.004   0.002  0.00  0.00    +0.036 A 
ATOM     19  N   UNL     1      -1.043  -0.931   0.007  0.00  0.00    -0.286 N 
ATOM     20  C   UNL     1      -0.594  -2.202  -0.004  0.00  0.00    +0.212 C 
ATOM     21  O   UNL     1      -1.271  -3.208  -0.004  0.00  0.00    -0.277 OA
ATOM     22 CL   UNL     1       3.864   2.335  -0.019  0.00  0.00    -0.084 Cl
ATOM     23  H   UNL     1      -1.982  -0.689   0.017  0.00  0.00    +0.155 HD
ATOM     24  N   UNL     1       1.493  -2.837  -1.161  0.00  0.00    +0.395 N 
ATOM     25  H   UNL     1       0.921  -2.690  -2.001  0.00  0.00    -0.079 HD
ENDROOT
BRANCH   1  29
ATOM     26  C   UNL     1       8.047  -1.090  -0.189  0.00  0.00    +0.045 C 
ATOM     27  C   UNL     1       7.216  -1.756   0.877  0.00  0.00    -0.030 A 
ATOM     28  C   UNL     1       5.897  -2.080   0.622  0.00  0.00    +0.032 A 
ATOM     29  C   UNL     1       5.131  -2.693   1.601  0.00  0.00    +0.086 A 
ATOM     30  C   UNL     1       5.693  -2.977   2.844  0.00  0.00    +0.143 A 
ATOM     31  C   UNL     1       7.017  -2.654   3.092  0.00  0.00    +0.067 A 
ATOM     32  C   UNL     1       7.776  -2.043   2.110  0.00  0.00    +0.047 A 
ATOM     33 CL   UNL     1       9.433  -1.634   2.425  0.00  0.00    -0.083 Cl
BRANCH  30  34
ATOM     34  O   UNL     1       4.944  -3.573   3.810  0.00  0.00    -0.493 OA
ATOM     35  C   UNL     1       5.586  -3.833   5.060  0.00  0.00    +0.277 C 
ENDBRANCH  30  34
ENDBRANCH   1  29
TORSDOF 2
