REMARK  Name = ZINC59992941
REMARK  11 active torsions:
REMARK  status: ('A' for Active; 'I' for Inactive)
REMARK    1  A    between atoms: C_1  and  C_2
REMARK    2  A    between atoms: C_7  and  N_8
REMARK    3  A    between atoms: C_9  and  C_11
REMARK    4  A    between atoms: C_11  and  N_12
REMARK    5  A    between atoms: N_15  and  C_16
REMARK    6  A    between atoms: C_16  and  C_17
REMARK    7  A    between atoms: C_17  and  C_18
REMARK    8  A    between atoms: C_17  and  C_19
REMARK    9  A    between atoms: C_17  and  N_20
REMARK   10  A    between atoms: C_22  and  C_29
REMARK   11  A    between atoms: C_25  and  C_28
REMARK                            x       y       z     vdW  Elec       q    Type
REMARK                         _______ _______ _______ _____ _____    ______ ____
ROOT
ATOM      1  N   UNL     1      -0.240  -0.903   5.989  0.00  0.00    -0.291 N 
ATOM      2  C   UNL     1      -0.345  -0.460   7.257  0.00  0.00    +0.300 C 
ATOM      3  O   UNL     1      -0.377   0.734   7.484  0.00  0.00    -0.253 OA
ATOM      4  N   UNL     1      -0.412  -1.341   8.275  0.00  0.00    -0.301 N 
ATOM      5  H   UNL     1      -0.214  -1.856   5.809  0.00  0.00    +0.151 HD
ATOM      6  H   UNL     1      -0.386  -2.294   8.095  0.00  0.00    +0.150 HD
ENDROOT
BRANCH   1   7
ATOM      7  C   UNL     1      -0.167   0.054   4.882  0.00  0.00    +0.202 C 
BRANCH   7   9
ATOM      8  N   UNL     1       0.026  -0.014   2.417  0.00  0.00    -0.284 N 
ATOM      9  C   UNL     1      -0.056  -0.694   3.578  0.00  0.00    +0.234 C 
ATOM     10  O   UNL     1      -0.040  -1.906   3.574  0.00  0.00    -0.274 OA
ATOM     11  H   UNL     1       0.079   0.955   2.425  0.00  0.00    +0.155 HD
BRANCH   8  18
ATOM     12  C   UNL     1      -1.265   1.183   0.182  0.00  0.00    +0.046 C 
ATOM     13  C   UNL     1      -0.584  -0.158   0.085  0.00  0.00    -0.028 A 
ATOM     14  C   UNL     1      -0.570  -0.840  -1.116  0.00  0.00    +0.020 A 
ATOM     15  C   UNL     1       0.055  -2.071  -1.206  0.00  0.00    +0.018 A 
ATOM     16  C   UNL     1       0.666  -2.623  -0.094  0.00  0.00    +0.017 A 
ATOM     17  C   UNL     1       0.655  -1.945   1.109  0.00  0.00    +0.024 A 
ATOM     18  C   UNL     1       0.034  -0.706   1.201  0.00  0.00    +0.036 A 
ATOM     19 BR   UNL     1       0.072  -3.002  -2.852  0.00  0.00    -0.050 Br
ENDBRANCH   8  18
ENDBRANCH   7   9
ENDBRANCH   1   7
BRANCH   4  20
ATOM     20  C   UNL     1      -0.526  -0.859   9.654  0.00  0.00    +0.093 C 
BRANCH  20  21
ATOM     21  C   UNL     1      -0.585  -2.054  10.609  0.00  0.00    -0.055 C 
ATOM     22  C   UNL     1      -0.703  -1.551  12.049  0.00  0.00    -0.008 C 
ATOM     23  C   UNL     1      -1.800  -2.918  10.269  0.00  0.00    -0.008 C 
BRANCH  21  24
ATOM     24  N   UNL     1       0.640  -2.853  10.468  0.00  0.00    +0.384 N 
ATOM     25  C   UNL     1       1.806  -2.020  10.786  0.00  0.00    -0.075 C 
ATOM     26  C   UNL     1       3.088  -2.825  10.563  0.00  0.00    -0.031 C 
ATOM     27  C   UNL     1       3.076  -4.057  11.473  0.00  0.00    +0.003 C 
ATOM     28  C   UNL     1       1.817  -4.880  11.184  0.00  0.00    -0.031 C 
ATOM     29  C   UNL     1       0.582  -3.999  11.384  0.00  0.00    -0.075 C 
ATOM     30  C   UNL     1       1.857  -5.386   9.741  0.00  0.00    +0.005 C 
ATOM     31  C   UNL     1       4.302  -1.954  10.896  0.00  0.00    +0.005 C 
ATOM     32  H   UNL     1       0.716  -3.187   9.519  0.00  0.00    -0.081 HD
ENDBRANCH  21  24
ENDBRANCH  20  21
ENDBRANCH   4  20
TORSDOF 6
