REMARK  Name = ZINC39673053
REMARK  7 active torsions:
REMARK  status: ('A' for Active; 'I' for Inactive)
REMARK    1  A    between atoms: C_1  and  C_2
REMARK    2  A    between atoms: C_5  and  C_9
REMARK    3  A    between atoms: C_7  and  C_8
REMARK    4  A    between atoms: C_9  and  N_10
REMARK    5  A    between atoms: C_11  and  C_13
REMARK    6  A    between atoms: C_24  and  C_26
REMARK    7  A    between atoms: C_29  and  C_33
REMARK                            x       y       z     vdW  Elec       q    Type
REMARK                         _______ _______ _______ _____ _____    ______ ____
ROOT
ATOM      1  C   UNL     1       3.828  -6.511  -0.072  0.00  0.00    +0.100 C 
ATOM      2  C   UNL     1       4.258  -5.914   1.287  0.00  0.00    +0.121 C 
ATOM      3  N   UNL     1       4.084  -7.022   2.255  0.00  0.00    -0.296 N 
ATOM      4  C   UNL     1       4.542  -8.227   1.522  0.00  0.00    +0.115 C 
ATOM      5  C   UNL     1       4.020  -8.028   0.085  0.00  0.00    -0.004 C 
ATOM      6  C   UNL     1       5.043  -8.539  -0.924  0.00  0.00    -0.010 C 
ATOM      7  C   UNL     1       5.173 -10.059  -0.788  0.00  0.00    -0.082 C 
ATOM      8  N   UNL     1       3.868 -10.687  -1.024  0.00  0.00    +0.379 N 
ATOM      9  C   UNL     1       2.914 -10.261   0.007  0.00  0.00    -0.082 C 
ATOM     10  C   UNL     1       2.688  -8.750  -0.096  0.00  0.00    -0.010 C 
ATOM     11  C   UNL     1       3.615  -6.952   3.517  0.00  0.00    +0.247 C 
ATOM     12  O   UNL     1       3.158  -5.907   3.937  0.00  0.00    -0.270 OA
ATOM     13  H   UNL     1       3.524 -10.413  -1.933  0.00  0.00    -0.086 HD
ATOM     14  H   UNL     1       3.968 -11.690  -0.995  0.00  0.00    -0.086 HD
ENDROOT
BRANCH  11  15
ATOM     15  C   UNL     1       3.656  -8.145   4.389  0.00  0.00    +0.040 A 
ATOM     16  C   UNL     1       4.538  -9.190   4.105  0.00  0.00    +0.014 A 
ATOM     17  C   UNL     1       4.573 -10.300   4.922  0.00  0.00    +0.016 A 
ATOM     18  C   UNL     1       3.737 -10.382   6.022  0.00  0.00    +0.090 A 
ATOM     19  C   UNL     1       2.859  -9.349   6.309  0.00  0.00    +0.136 A 
ATOM     20  C   UNL     1       2.819  -8.229   5.501  0.00  0.00    +0.052 A 
ATOM     21  F   UNL     1       2.045  -9.436   7.384  0.00  0.00    -0.205 F 
BRANCH  18  22
ATOM     22  C   UNL     1       3.781 -11.599   6.910  0.00  0.00    +0.420 C 
ATOM     23  F   UNL     1       4.736 -12.497   6.422  0.00  0.00    -0.166 F 
ATOM     24  F   UNL     1       4.123 -11.214   8.210  0.00  0.00    -0.166 F 
ATOM     25  F   UNL     1       2.525 -12.214   6.920  0.00  0.00    -0.166 F 
ENDBRANCH  18  22
ENDBRANCH  11  15
BRANCH   1  27
ATOM     26  N   UNL     1       1.929  -6.176  -1.621  0.00  0.00    -0.311 N 
ATOM     27  C   UNL     1       2.383  -6.190  -0.352  0.00  0.00    +0.218 C 
ATOM     28  O   UNL     1       1.627  -5.945   0.565  0.00  0.00    -0.275 OA
ATOM     29  H   UNL     1       2.533  -6.373  -2.354  0.00  0.00    +0.149 HD
BRANCH  26  30
ATOM     30  C   UNL     1       0.524  -5.865  -1.893  0.00  0.00    +0.139 C 
BRANCH  30  35
ATOM     31  C   UNL     1      -0.427  -6.059  -7.590  0.00  0.00    +0.044 C 
ATOM     32  C   UNL     1      -0.179  -6.009  -6.104  0.00  0.00    -0.048 A 
ATOM     33  C   UNL     1      -0.338  -7.148  -5.338  0.00  0.00    +0.004 A 
ATOM     34  C   UNL     1      -0.111  -7.102  -3.975  0.00  0.00    +0.005 A 
ATOM     35  C   UNL     1       0.277  -5.916  -3.379  0.00  0.00    -0.030 A 
ATOM     36  C   UNL     1       0.437  -4.777  -4.145  0.00  0.00    +0.008 A 
ATOM     37  C   UNL     1       0.213  -4.824  -5.509  0.00  0.00    -0.047 A 
ATOM     38  C   UNL     1       0.393  -3.584  -6.346  0.00  0.00    +0.044 C 
ENDBRANCH  30  35
ENDBRANCH  26  30
ENDBRANCH   1  27
TORSDOF 5
