REMARK  Name = ZINC08767419
REMARK  6 active torsions:
REMARK  status: ('A' for Active; 'I' for Inactive)
REMARK    1  A    between atoms: C_4  and  N_7
REMARK    2  A    between atoms: C_13  and  C_15
REMARK    3  A    between atoms: C_15  and  N_16
REMARK    4  A    between atoms: C_20  and  C_21
REMARK    5  A    between atoms: C_24  and  S_27
REMARK    6  A    between atoms: S_27  and  C_28
REMARK                            x       y       z     vdW  Elec       q    Type
REMARK                         _______ _______ _______ _____ _____    ______ ____
ROOT
ATOM      1  N   UNL     1       8.517  -3.163   3.724  0.00  0.00    -0.219 N 
ATOM      2  C   UNL     1       9.542  -3.832   3.222  0.00  0.00    +0.261 C 
ATOM      3  O   UNL     1       9.386  -4.725   2.410  0.00  0.00    -0.269 OA
ATOM      4  C   UNL     1      10.884  -3.437   3.691  0.00  0.00    +0.080 C 
ATOM      5  C   UNL     1      12.101  -3.935   3.353  0.00  0.00    +0.028 C 
ATOM      6  S   UNL     1      10.466  -2.126   4.834  0.00  0.00    -0.026 S 
ATOM      7  C   UNL     1       8.693  -2.178   4.627  0.00  0.00    +0.286 C 
ATOM      8  O   UNL     1       7.849  -1.491   5.171  0.00  0.00    -0.262 OA
ENDROOT
BRANCH   5   9
ATOM      9  C   UNL     1      12.219  -4.898   2.252  0.00  0.00    -0.024 A 
ATOM     10  C   UNL     1      13.073  -6.002   2.374  0.00  0.00    +0.009 A 
ATOM     11  C   UNL     1      13.176  -6.900   1.349  0.00  0.00    +0.015 A 
ATOM     12  C   UNL     1      12.442  -6.712   0.180  0.00  0.00    +0.013 A 
ATOM     13  C   UNL     1      11.595  -5.613   0.053  0.00  0.00    +0.015 A 
ATOM     14  C   UNL     1      11.482  -4.714   1.075  0.00  0.00    +0.009 A 
BRANCH  12  15
ATOM     15  S   UNL     1      12.583  -7.870  -1.141  0.00  0.00    -0.089 S 
BRANCH  15  16
ATOM     16  C   UNL     1      13.992  -7.316  -2.043  0.00  0.00    +0.013 A 
ATOM     17  C   UNL     1      14.615  -6.123  -1.698  0.00  0.00    +0.016 A 
ATOM     18  C   UNL     1      15.723  -5.695  -2.403  0.00  0.00    +0.021 A 
ATOM     19  C   UNL     1      16.205  -6.447  -3.459  0.00  0.00    +0.041 A 
ATOM     20  C   UNL     1      15.584  -7.633  -3.809  0.00  0.00    +0.021 A 
ATOM     21  C   UNL     1      14.479  -8.070  -3.104  0.00  0.00    +0.016 A 
ATOM     22 CL   UNL     1      17.593  -5.902  -4.348  0.00  0.00    -0.084 Cl
ENDBRANCH  15  16
ENDBRANCH  12  15
ENDBRANCH   5   9
BRANCH   1  23
ATOM     23  C   UNL     1       7.159  -3.506   3.293  0.00  0.00    +0.213 C 
BRANCH  23  30
ATOM     24  N   UNL     1       2.870  -2.398   1.012  0.00  0.00    -0.327 N 
ATOM     25  C   UNL     1       3.268  -3.059   2.262  0.00  0.00    +0.124 C 
ATOM     26  C   UNL     1       4.602  -3.783   2.051  0.00  0.00    +0.126 C 
ATOM     27  N   UNL     1       5.577  -2.820   1.520  0.00  0.00    -0.297 N 
ATOM     28  C   UNL     1       5.196  -2.018   0.346  0.00  0.00    +0.126 C 
ATOM     29  C   UNL     1       3.838  -1.364   0.625  0.00  0.00    +0.124 C 
ATOM     30  C   UNL     1       6.789  -2.675   2.092  0.00  0.00    +0.234 C 
ATOM     31  O   UNL     1       7.581  -1.875   1.640  0.00  0.00    -0.274 OA
BRANCH  24  35
ATOM     32  C   UNL     1      -0.967  -0.810   1.321  0.00  0.00    +0.000 A 
ATOM     33  C   UNL     1       0.091   0.006   0.965  0.00  0.00    +0.002 A 
ATOM     34  C   UNL     1       1.365  -0.517   0.862  0.00  0.00    +0.023 A 
ATOM     35  C   UNL     1       1.583  -1.866   1.115  0.00  0.00    +0.030 A 
ATOM     36  C   UNL     1       0.518  -2.683   1.472  0.00  0.00    +0.023 A 
ATOM     37  C   UNL     1      -0.753  -2.153   1.574  0.00  0.00    +0.002 A 
ENDBRANCH  24  35
ENDBRANCH  23  30
ENDBRANCH   1  23
TORSDOF 6
