REMARK  Name = ZINC08455960
REMARK  6 active torsions:
REMARK  status: ('A' for Active; 'I' for Inactive)
REMARK    1  A    between atoms: C_4  and  C_7
REMARK    2  A    between atoms: C_12  and  C_29
REMARK    3  A    between atoms: C_14  and  C_27
REMARK    4  A    between atoms: C_15  and  N_26
REMARK    5  A    between atoms: N_16  and  C_17
REMARK    6  A    between atoms: C_20  and  N_23
REMARK                            x       y       z     vdW  Elec       q    Type
REMARK                         _______ _______ _______ _____ _____    ______ ____
ROOT
ATOM      1  C   UNL     1       4.553  -2.904  -1.402  0.00  0.00    +0.032 C 
ATOM      2  C   UNL     1       3.621  -1.957  -0.643  0.00  0.00    +0.060 C 
ATOM      3  C   UNL     1       2.434  -2.727  -0.119  0.00  0.00    +0.025 C 
ATOM      4  C   UNL     1       2.547  -4.027   0.229  0.00  0.00    +0.025 C 
ATOM      5  C   UNL     1       1.366  -4.788   0.776  0.00  0.00    +0.097 C 
ATOM      6  C   UNL     1       0.077  -4.090   0.458  0.00  0.00    +0.077 C 
ATOM      7  C   UNL     1       0.059  -2.782   0.097  0.00  0.00    +0.107 C 
ATOM      8  N   UNL     1       1.236  -2.074   0.001  0.00  0.00    -0.260 N 
ATOM      9  C   UNL     1       3.769  -4.709   0.094  0.00  0.00    +0.162 C 
ATOM     10  O   UNL     1       3.839  -5.877   0.423  0.00  0.00    -0.292 OA
ATOM     11  C   UNL     1       4.991  -4.022  -0.450  0.00  0.00    +0.088 C 
ENDROOT
BRANCH   1  15
ATOM     12  C   UNL     1       7.982  -0.754  -2.767  0.00  0.00    +0.000 A 
ATOM     13  C   UNL     1       7.163  -1.396  -3.676  0.00  0.00    +0.000 A 
ATOM     14  C   UNL     1       6.053  -2.092  -3.234  0.00  0.00    +0.004 A 
ATOM     15  C   UNL     1       5.763  -2.146  -1.884  0.00  0.00    -0.044 A 
ATOM     16  C   UNL     1       6.580  -1.500  -0.975  0.00  0.00    +0.004 A 
ATOM     17  C   UNL     1       7.693  -0.807  -1.417  0.00  0.00    +0.000 A 
ENDBRANCH   1  15
BRANCH   8  18
ATOM     18  C   UNL     1       1.208  -0.675   0.030  0.00  0.00    +0.040 A 
ATOM     19  C   UNL     1       1.019   0.043  -1.144  0.00  0.00    +0.026 A 
ATOM     20  C   UNL     1       0.992   1.423  -1.111  0.00  0.00    +0.034 A 
ATOM     21  C   UNL     1       1.152   2.091   0.089  0.00  0.00    +0.126 A 
ATOM     22  C   UNL     1       1.340   1.380   1.260  0.00  0.00    +0.034 A 
ATOM     23  C   UNL     1       1.369  -0.001   1.234  0.00  0.00    +0.026 A 
BRANCH  21  24
ATOM     24  N   UNL     1       1.122   3.571   0.121  0.00  0.00    +0.056 N 
ATOM     25  O   UNL     1       0.956   4.198  -0.909  0.00  0.00    -0.126 OA
ATOM     26  O   UNL     1       1.263   4.160   1.177  0.00  0.00    -0.126 OA
ENDBRANCH  21  24
ENDBRANCH   8  18
BRANCH   5  27
ATOM     27  C   UNL     1       1.507  -4.908   2.272  0.00  0.00    -0.035 A 
ATOM     28  C   UNL     1       1.575  -3.770   3.054  0.00  0.00    +0.004 A 
ATOM     29  C   UNL     1       1.699  -3.880   4.426  0.00  0.00    +0.000 A 
ATOM     30  C   UNL     1       1.765  -5.128   5.016  0.00  0.00    +0.000 A 
ATOM     31  C   UNL     1       1.702  -6.266   4.234  0.00  0.00    +0.000 A 
ATOM     32  C   UNL     1       1.574  -6.156   2.862  0.00  0.00    +0.004 A 
ENDBRANCH   5  27
BRANCH   7  33
ATOM     33  N   UNL     1      -1.137  -2.165  -0.177  0.00  0.00    -0.345 N 
ATOM     34  H   UNL     1      -1.148  -1.259  -0.523  0.00  0.00    +0.144 HD
ATOM     35  H   UNL     1      -1.972  -2.635  -0.025  0.00  0.00    +0.144 HD
ENDBRANCH   7  33
BRANCH   6  36
ATOM     36  C   UNL     1      -1.155  -4.815   0.541  0.00  0.00    +0.099 C 
ATOM     37  N   UNL     1      -2.132  -5.390   0.608  0.00  0.00    -0.191 NA
ENDBRANCH   6  36
TORSDOF 6
