REMARK  Name = ZINC12898058
REMARK  6 active torsions:
REMARK  status: ('A' for Active; 'I' for Inactive)
REMARK    1  A    between atoms: C_1  and  N_2
REMARK    2  A    between atoms: C_7  and  O_25
REMARK    3  A    between atoms: C_10  and  C_11
REMARK    4  A    between atoms: C_11  and  N_12
REMARK    5  A    between atoms: N_15  and  C_16
REMARK    6  A    between atoms: O_25  and  C_26
REMARK                            x       y       z     vdW  Elec       q    Type
REMARK                         _______ _______ _______ _____ _____    ______ ____
ROOT
ATOM      1  C   UNL     1       7.271   5.537   4.743  0.00  0.00    -0.096 C 
ATOM      2  N   UNL     1       6.834   4.571   3.726  0.00  0.00    +0.381 N 
ATOM      3  C   UNL     1       6.130   3.437   4.344  0.00  0.00    -0.074 C 
ATOM      4  C   UNL     1       5.390   2.670   3.248  0.00  0.00    +0.017 C 
ATOM      5  C   UNL     1       6.328   2.365   2.108  0.00  0.00    -0.036 A 
ATOM      6  C   UNL     1       7.527   3.031   1.961  0.00  0.00    -0.015 A 
ATOM      7  C   UNL     1       8.361   2.725   0.891  0.00  0.00    +0.167 A 
ATOM      8  C   UNL     1       7.995   1.752  -0.028  0.00  0.00    +0.208 A 
ATOM      9  C   UNL     1       6.789   1.077   0.128  0.00  0.00    +0.175 A 
ATOM     10  C   UNL     1       5.960   1.392   1.192  0.00  0.00    +0.019 A 
ATOM     11  O   UNL     1       6.655   0.180  -0.892  0.00  0.00    -0.452 OA
ATOM     12  C   UNL     1       7.601   0.593  -1.896  0.00  0.00    +0.467 C 
ATOM     13  O   UNL     1       8.623   1.273  -1.143  0.00  0.00    -0.449 OA
ATOM     14  C   UNL     1       7.972   4.092   2.934  0.00  0.00    -0.039 C 
ATOM     15  H   UNL     1       6.138   5.090   3.050  0.00  0.00    -0.082 HD
ENDROOT
BRANCH   7  16
ATOM     16  O   UNL     1       9.542   3.384   0.744  0.00  0.00    -0.491 OA
ATOM     17  C   UNL     1      10.687   2.813   1.380  0.00  0.00    +0.277 C 
ENDBRANCH   7  16
BRANCH  10  18
ATOM     18  C   UNL     1       4.649   0.667   1.359  0.00  0.00    +0.145 C 
BRANCH  18  19
ATOM     19  N   UNL     1       3.596   1.392   0.645  0.00  0.00    -0.295 N 
ATOM     20  C   UNL     1       2.331   0.926   0.654  0.00  0.00    +0.300 C 
ATOM     21  O   UNL     1       2.065  -0.097   1.255  0.00  0.00    -0.253 OA
ATOM     22  N   UNL     1       1.362   1.593  -0.002  0.00  0.00    -0.297 N 
ATOM     23  H   UNL     1       3.836   2.317   0.101  0.00  0.00    +0.151 HD
ATOM     24  H   UNL     1       1.602   2.518  -0.546  0.00  0.00    +0.151 HD
BRANCH  22  25
ATOM     25  C   UNL     1      -0.013   1.086   0.008  0.00  0.00    +0.074 C 
ATOM     26  C   UNL     1      -0.729   1.579   1.267  0.00  0.00    +0.022 C 
ATOM     27  C   UNL     1      -2.164   1.050   1.278  0.00  0.00    +0.002 C 
ATOM     28  C   UNL     1      -2.904   1.556   0.038  0.00  0.00    +0.000 C 
ATOM     29  C   UNL     1      -2.188   1.063  -1.221  0.00  0.00    +0.002 C 
ATOM     30  C   UNL     1      -0.753   1.593  -1.232  0.00  0.00    +0.022 C 
ENDBRANCH  22  25
ENDBRANCH  18  19
ENDBRANCH  10  18
TORSDOF 4
