REMARK  Name = ZINC14231923
REMARK  4 active torsions:
REMARK  status: ('A' for Active; 'I' for Inactive)
REMARK    1  A    between atoms: C_1  and  C_2
REMARK    2  A    between atoms: C_12  and  S_14
REMARK    3  A    between atoms: S_14  and  N_17
REMARK    4  A    between atoms: N_17  and  C_18
REMARK                            x       y       z     vdW  Elec       q    Type
REMARK                         _______ _______ _______ _____ _____    ______ ____
ROOT
ATOM      1  C   UNL     1       2.216   4.003   2.339  0.00  0.00    +0.109 C 
ATOM      2  C   UNL     1       3.011   3.199   1.342  0.00  0.00    +0.217 C 
ATOM      3  O   UNL     1       4.163   3.494   1.105  0.00  0.00    -0.276 OA
ATOM      4  N   UNL     1       2.441   2.152   0.713  0.00  0.00    -0.271 N 
ATOM      5  C   UNL     1       1.094   1.699   1.087  0.00  0.00    +0.114 C 
ATOM      6  C   UNL     1       1.122   0.168   1.180  0.00  0.00    +0.024 C 
ATOM      7  C   UNL     1       1.443  -0.405  -0.200  0.00  0.00    +0.038 C 
ATOM      8  C   UNL     1       2.676   0.247  -0.768  0.00  0.00    -0.024 A 
ATOM      9  C   UNL     1       3.123   1.476  -0.308  0.00  0.00    +0.040 A 
ATOM     10  C   UNL     1       4.262   2.053  -0.857  0.00  0.00    +0.026 A 
ATOM     11  C   UNL     1       4.953   1.400  -1.859  0.00  0.00    +0.030 A 
ATOM     12  C   UNL     1       4.509   0.172  -2.315  0.00  0.00    +0.109 A 
ATOM     13  C   UNL     1       3.375  -0.401  -1.772  0.00  0.00    +0.034 A 
ENDROOT
BRANCH  12  14
ATOM     14  S   UNL     1       5.391  -0.662  -3.592  0.00  0.00    +0.072 S 
ATOM     15  O   UNL     1       6.680  -0.068  -3.651  0.00  0.00    -0.150 OA
ATOM     16  O   UNL     1       5.203  -2.053  -3.373  0.00  0.00    -0.150 OA
BRANCH  14  17
ATOM     17  N   UNL     1       4.638  -0.302  -5.023  0.00  0.00    -0.216 N 
ATOM     18  H   UNL     1       4.197  -1.002  -5.528  0.00  0.00    +0.174 HD
BRANCH  17  19
ATOM     19  C   UNL     1       4.640   1.010  -5.502  0.00  0.00    +0.053 A 
ATOM     20  C   UNL     1       3.484   1.778  -5.430  0.00  0.00    +0.063 A 
ATOM     21  C   UNL     1       3.490   3.079  -5.899  0.00  0.00    +0.128 A 
ATOM     22  C   UNL     1       4.642   3.612  -6.451  0.00  0.00    +0.076 A 
ATOM     23  C   UNL     1       5.793   2.847  -6.529  0.00  0.00    +0.128 A 
ATOM     24  C   UNL     1       5.794   1.547  -6.056  0.00  0.00    +0.063 A 
ATOM     25  F   UNL     1       6.916   3.369  -7.069  0.00  0.00    -0.205 F 
ATOM     26  F   UNL     1       2.368   3.828  -5.825  0.00  0.00    -0.205 F 
ENDBRANCH  17  19
ENDBRANCH  14  17
ENDBRANCH  12  14
TORSDOF 3
