REMARK  Name = ZINC35026085
REMARK  6 active torsions:
REMARK  status: ('A' for Active; 'I' for Inactive)
REMARK    1  A    between atoms: C_1  and  C_2
REMARK    2  A    between atoms: C_5  and  O_33
REMARK    3  A    between atoms: C_17  and  C_32
REMARK    4  A    between atoms: C_21  and  S_25
REMARK    5  A    between atoms: S_25  and  C_26
REMARK    6  A    between atoms: N_30  and  C_31
REMARK                            x       y       z     vdW  Elec       q    Type
REMARK                         _______ _______ _______ _____ _____    ______ ____
ROOT
ATOM      1  C   UNL     1      -0.019   1.526   0.010  0.00  0.00    +0.016 C 
ATOM      2  C   UNL     1       0.002  -0.004   0.002  0.00  0.00    -0.008 C 
ATOM      3  C   UNL     1      -1.446  -0.500   0.055  0.00  0.00    +0.014 C 
ATOM      4  C   UNL     1      -2.086  -0.056   1.372  0.00  0.00    +0.032 C 
ATOM      5  C   UNL     1      -1.347  -0.697   2.548  0.00  0.00    +0.119 C 
ATOM      6  C   UNL     1       0.099  -0.190   2.579  0.00  0.00    +0.062 C 
ATOM      7  C   UNL     1       0.733  -0.468   1.227  0.00  0.00    -0.065 C 
ATOM      8  C   UNL     1       1.871  -1.097   1.197  0.00  0.00    -0.027 C 
ATOM      9  C   UNL     1       2.582  -1.441  -0.079  0.00  0.00    +0.031 C 
ATOM     10  C   UNL     1       2.178  -0.442  -1.170  0.00  0.00    +0.001 C 
ATOM     11  C   UNL     1       0.648  -0.462  -1.295  0.00  0.00    +0.003 C 
ATOM     12  C   UNL     1       0.235   0.487  -2.426  0.00  0.00    +0.005 C 
ATOM     13  C   UNL     1       0.804  -0.037  -3.741  0.00  0.00    +0.015 C 
ATOM     14  C   UNL     1       2.335  -0.042  -3.699  0.00  0.00    +0.030 C 
ATOM     15  C   UNL     1       2.845  -0.815  -2.472  0.00  0.00    +0.007 C 
ATOM     16  C   UNL     1       2.564  -2.273  -2.884  0.00  0.00    +0.027 C 
ATOM     17  C   UNL     1       2.914  -2.283  -4.390  0.00  0.00    +0.121 C 
ATOM     18  C   UNL     1       2.800  -0.890  -4.882  0.00  0.00    +0.153 C 
ATOM     19  O   UNL     1       3.033  -0.497  -6.000  0.00  0.00    -0.296 OA
ATOM     20  C   UNL     1       2.909   1.375  -3.748  0.00  0.00    +0.019 C 
ENDROOT
BRANCH   5  21
ATOM     21  O   UNL     1      -1.350  -2.118   2.395  0.00  0.00    -0.391 OA
ATOM     22  H   UNL     1      -0.897  -2.591   3.106  0.00  0.00    +0.210 HD
ENDBRANCH   5  21
BRANCH  17  23
ATOM     23  S   UNL     1       4.603  -2.899  -4.630  0.00  0.00    -0.077 S 
BRANCH  23  24
ATOM     24  C   UNL     1       4.781  -2.984  -6.380  0.00  0.00    +0.169 A 
ATOM     25  N   UNL     1       3.866  -2.656  -7.262  0.00  0.00    -0.230 NA
ATOM     26  C   UNL     1       4.352  -2.849  -8.500  0.00  0.00    +0.131 A 
ATOM     27  C   UNL     1       5.609  -3.311  -8.393  0.00  0.00    +0.107 A 
ATOM     28  N   UNL     1       5.893  -3.396  -7.048  0.00  0.00    -0.329 N 
ATOM     29  C   UNL     1       7.152  -3.846  -6.450  0.00  0.00    +0.151 C 
ENDBRANCH  23  24
ENDBRANCH  17  23
TORSDOF 3
