REMARK  Name = ZINC63530314
REMARK  3 active torsions:
REMARK  status: ('A' for Active; 'I' for Inactive)
REMARK    1  A    between atoms: C_6  and  C_19
REMARK    2  A    between atoms: C_8  and  S_11
REMARK    3  A    between atoms: S_11  and  C_12
REMARK                            x       y       z     vdW  Elec       q    Type
REMARK                         _______ _______ _______ _____ _____    ______ ____
ROOT
ATOM      1  C   UNL     1       1.807   1.673  -1.010  0.00  0.00    +0.001 A 
ATOM      2  C   UNL     1       3.176   1.874  -0.831  0.00  0.00    +0.002 A 
ATOM      3  C   UNL     1       3.984   0.902  -0.339  0.00  0.00    +0.026 A 
ATOM      4  C   UNL     1       3.439  -0.359   0.008  0.00  0.00    +0.044 A 
ATOM      5  N   UNL     1       4.003  -1.449   0.497  0.00  0.00    -0.369 N 
ATOM      6  C   UNL     1       2.977  -2.482   0.675  0.00  0.00    +0.204 C 
ATOM      7  C   UNL     1       1.676  -1.861   0.218  0.00  0.00    +0.030 C 
ATOM      8  C   UNL     1       1.996  -0.568  -0.181  0.00  0.00    +0.010 A 
ATOM      9  C   UNL     1       1.216   0.490  -0.699  0.00  0.00    +0.011 A 
ATOM     10  H   UNL     1       4.945  -1.550   0.704  0.00  0.00    +0.161 HD
ENDROOT
BRANCH   6  11
ATOM     11  C   UNL     1       2.884  -2.876   2.127  0.00  0.00    +0.243 C 
ATOM     12  O   UNL     1       3.162  -2.072   2.992  0.00  0.00    -0.273 OA
ATOM     13  N   UNL     1       2.493  -4.120   2.464  0.00  0.00    -0.299 N 
ATOM     14  C   UNL     1       2.066  -5.076   1.433  0.00  0.00    +0.113 C 
ATOM     15  C   UNL     1       0.677  -5.609   1.799  0.00  0.00    +0.084 C 
ATOM     16  C   UNL     1       0.713  -6.183   3.217  0.00  0.00    +0.173 C 
ATOM     17  C   UNL     1       1.093  -5.086   4.214  0.00  0.00    +0.084 C 
ATOM     18  C   UNL     1       2.491  -4.550   3.869  0.00  0.00    +0.113 C 
ATOM     19  O   UNL     1      -0.576  -6.713   3.553  0.00  0.00    -0.346 OA
ATOM     20  C   UNL     1      -0.400  -8.115   3.841  0.00  0.00    +0.191 C 
ATOM     21  C   UNL     1       1.108  -8.216   4.185  0.00  0.00    +0.191 C 
ATOM     22  O   UNL     1       1.682  -7.242   3.280  0.00  0.00    -0.346 OA
ENDBRANCH   6  11
BRANCH   7  23
ATOM     23  S   UNL     1       0.177  -2.575   0.198  0.00  0.00    -0.091 S 
BRANCH  23  24
ATOM     24  C   UNL     1       0.235  -3.647  -1.200  0.00  0.00    +0.013 A 
ATOM     25  C   UNL     1       1.335  -3.625  -2.049  0.00  0.00    +0.016 A 
ATOM     26  C   UNL     1       1.377  -4.466  -3.143  0.00  0.00    +0.021 A 
ATOM     27  C   UNL     1       0.326  -5.330  -3.395  0.00  0.00    +0.041 A 
ATOM     28  C   UNL     1      -0.772  -5.353  -2.552  0.00  0.00    +0.021 A 
ATOM     29  C   UNL     1      -0.817  -4.519  -1.453  0.00  0.00    +0.016 A 
ATOM     30 CL   UNL     1       0.382  -6.385  -4.772  0.00  0.00    -0.084 Cl
ENDBRANCH  23  24
ENDBRANCH   7  23
TORSDOF 3
