REMARK  Name = ZINC66373025
REMARK  5 active torsions:
REMARK  status: ('A' for Active; 'I' for Inactive)
REMARK    1  A    between atoms: C_1  and  N_2
REMARK    2  A    between atoms: N_5  and  C_6
REMARK    3  A    between atoms: C_9  and  N_12
REMARK    4  A    between atoms: C_13  and  C_15
REMARK    5  A    between atoms: C_18  and  C_21
REMARK                            x       y       z     vdW  Elec       q    Type
REMARK                         _______ _______ _______ _____ _____    ______ ____
ROOT
ATOM      1  N   UNL     1       2.743  -5.058  -5.171  0.00  0.00    -0.282 N 
ATOM      2  C   UNL     1       2.560  -6.393  -5.190  0.00  0.00    +0.261 C 
ATOM      3  O   UNL     1       2.009  -6.943  -4.260  0.00  0.00    -0.271 OA
ATOM      4  H   UNL     1       3.242  -4.626  -5.882  0.00  0.00    +0.155 HD
ENDROOT
BRANCH   1   8
ATOM      5  C   UNL     1       1.165  -2.780  -2.054  0.00  0.00    +0.035 A 
ATOM      6  C   UNL     1       1.642  -4.060  -1.806  0.00  0.00    +0.025 A 
ATOM      7  C   UNL     1       2.165  -4.814  -2.838  0.00  0.00    +0.025 A 
ATOM      8  C   UNL     1       2.212  -4.293  -4.124  0.00  0.00    +0.034 A 
ATOM      9  C   UNL     1       1.734  -3.013  -4.372  0.00  0.00    +0.025 A 
ATOM     10  C   UNL     1       1.207  -2.261  -3.341  0.00  0.00    +0.025 A 
BRANCH   5  15
ATOM     11  C   UNL     1      -2.103   0.378  -0.460  0.00  0.00    +0.129 C 
ATOM     12  N   UNL     1      -0.974  -0.522  -0.211  0.00  0.00    -0.302 N 
ATOM     13  C   UNL     1      -0.404  -1.187  -1.236  0.00  0.00    +0.304 C 
ATOM     14  O   UNL     1      -0.827  -1.041  -2.366  0.00  0.00    -0.253 OA
ATOM     15  N   UNL     1       0.635  -2.015  -1.007  0.00  0.00    -0.269 N 
ATOM     16  H   UNL     1      -0.636  -0.638   0.690  0.00  0.00    +0.150 HD
ATOM     17  H   UNL     1       1.016  -2.081  -0.117  0.00  0.00    +0.156 HD
ENDBRANCH   5  15
ENDBRANCH   1   8
BRANCH   2  18
ATOM     18  C   UNL     1       3.039  -7.202  -6.367  0.00  0.00    +0.295 C 
ATOM     19  C   UNL     1       4.585  -7.221  -6.433  0.00  0.00    +0.116 C 
ATOM     20  C   UNL     1       4.931  -8.496  -5.686  0.00  0.00    +0.094 C 
ATOM     21  N   UNL     1       3.860  -9.209  -5.585  0.00  0.00    -0.088 NA
ATOM     22  O   UNL     1       2.735  -8.601  -6.190  0.00  0.00    -0.380 OA
BRANCH  20  23
ATOM     23  C   UNL     1       6.264  -8.858  -5.166  0.00  0.00    +0.037 A 
ATOM     24  C   UNL     1       7.344  -7.991  -5.339  0.00  0.00    +0.051 A 
ATOM     25  C   UNL     1       8.588  -8.336  -4.849  0.00  0.00    +0.124 A 
ATOM     26  C   UNL     1       8.767  -9.541  -4.188  0.00  0.00    +0.041 A 
ATOM     27  C   UNL     1       7.702 -10.405  -4.013  0.00  0.00    +0.042 A 
ATOM     28  C   UNL     1       6.449 -10.069  -4.492  0.00  0.00    +0.132 A 
ATOM     29  F   UNL     1       5.408 -10.912  -4.316  0.00  0.00    -0.205 F 
ATOM     30  F   UNL     1       9.635  -7.498  -5.015  0.00  0.00    -0.205 F 
ENDBRANCH  20  23
ENDBRANCH   2  18
TORSDOF 4
