REMARK  Name = ZINC13171742
REMARK  7 active torsions:
REMARK  status: ('A' for Active; 'I' for Inactive)
REMARK    1  A    between atoms: C_1  and  C_2
REMARK    2  A    between atoms: C_2  and  C_4
REMARK    3  A    between atoms: C_2  and  S_19
REMARK    4  A    between atoms: N_6  and  C_7
REMARK    5  A    between atoms: C_16  and  C_17
REMARK    6  A    between atoms: S_19  and  C_20
REMARK    7  A    between atoms: C_23  and  N_26
REMARK                            x       y       z     vdW  Elec       q    Type
REMARK                         _______ _______ _______ _____ _____    ______ ____
ROOT
ATOM      1  C   UNL     1      -3.751  -0.826  -0.370  0.00  0.00    +0.230 C 
ATOM      2  O   UNL     1      -4.772  -0.196  -0.550  0.00  0.00    -0.274 OA
ATOM      3  N   UNL     1      -2.585  -0.178  -0.178  0.00  0.00    -0.284 N 
ATOM      4  H   UNL     1      -1.757  -0.680  -0.111  0.00  0.00    +0.155 HD
ENDROOT
BRANCH   3   5
ATOM      5  C   UNL     1      -2.568   1.212  -0.074  0.00  0.00    +0.048 A 
ATOM      6  C   UNL     1      -3.607   1.858   0.532  0.00  0.00    +0.032 A 
ATOM      7  C   UNL     1      -3.597   3.258   0.640  0.00  0.00    -0.016 A 
ATOM      8  C   UNL     1      -4.656   3.943   1.260  0.00  0.00    +0.008 A 
ATOM      9  C   UNL     1      -4.620   5.301   1.351  0.00  0.00    +0.001 A 
ATOM     10  C   UNL     1      -3.546   6.027   0.837  0.00  0.00    +0.001 A 
ATOM     11  C   UNL     1      -2.503   5.399   0.230  0.00  0.00    +0.008 A 
ATOM     12  C   UNL     1      -2.504   3.997   0.116  0.00  0.00    -0.017 A 
ATOM     13  C   UNL     1      -1.441   3.321  -0.500  0.00  0.00    +0.025 A 
ATOM     14  C   UNL     1      -1.476   1.939  -0.599  0.00  0.00    +0.085 A 
BRANCH  14  15
ATOM     15  C   UNL     1      -0.364   1.223  -1.250  0.00  0.00    +0.388 C 
ATOM     16  O   UNL     1      -0.344   0.008  -1.256  0.00  0.00    -0.241 OA
ATOM     17  O   UNL     1       0.628   1.915  -1.843  0.00  0.00    -0.241 OA
ENDBRANCH  14  15
ENDBRANCH   3   5
BRANCH   1  19
ATOM     18  C   UNL     1      -3.917  -2.831   1.080  0.00  0.00    +0.029 C 
ATOM     19  C   UNL     1      -3.787  -2.332  -0.361  0.00  0.00    +0.134 C 
BRANCH  19  20
ATOM     20  S   UNL     1      -5.208  -2.909  -1.330  0.00  0.00    -0.113 S 
BRANCH  20  21
ATOM     21  C   UNL     1      -4.778  -2.516  -2.993  0.00  0.00    +0.009 A 
ATOM     22  C   UNL     1      -3.523  -1.993  -3.283  0.00  0.00    +0.017 A 
ATOM     23  C   UNL     1      -3.187  -1.692  -4.588  0.00  0.00    +0.034 A 
ATOM     24  C   UNL     1      -4.101  -1.900  -5.604  0.00  0.00    +0.126 A 
ATOM     25  C   UNL     1      -5.353  -2.415  -5.319  0.00  0.00    +0.034 A 
ATOM     26  C   UNL     1      -5.694  -2.724  -4.017  0.00  0.00    +0.017 A 
BRANCH  24  27
ATOM     27  N   UNL     1      -3.739  -1.571  -7.001  0.00  0.00    +0.056 N 
ATOM     28  O   UNL     1      -4.543  -1.753  -7.898  0.00  0.00    -0.126 OA
ATOM     29  O   UNL     1      -2.637  -1.117  -7.254  0.00  0.00    -0.126 OA
ENDBRANCH  24  27
ENDBRANCH  20  21
ENDBRANCH  19  20
ENDBRANCH   1  19
TORSDOF 6
