REMARK  Name = ZINC12867701
REMARK  7 active torsions:
REMARK  status: ('A' for Active; 'I' for Inactive)
REMARK    1  A    between atoms: C_1  and  C_2
REMARK    2  A    between atoms: C_6  and  O_35
REMARK    3  A    between atoms: C_7  and  O_34
REMARK    4  A    between atoms: C_12  and  C_13
REMARK    5  A    between atoms: C_12  and  N_67
REMARK    6  A    between atoms: C_20  and  C_33
REMARK    7  A    between atoms: O_35  and  C_36
REMARK                            x       y       z     vdW  Elec       q    Type
REMARK                         _______ _______ _______ _____ _____    ______ ____
ROOT
ATOM      1  C   UNL     1      -6.413  -2.319  -1.046  0.00  0.00    -0.063 C 
ENDROOT
BRANCH   1   2
ATOM      2  C   UNL     1      -7.537  -3.156  -0.431  0.00  0.00    +0.088 C 
ATOM      3  C   UNL     1      -8.314  -3.924  -1.542  0.00  0.00    +0.042 C 
ATOM      4  C   UNL     1      -7.355  -4.060  -2.726  0.00  0.00    +0.014 C 
ATOM      5  C   UNL     1      -7.769  -5.191  -3.647  0.00  0.00    +0.030 C 
ATOM      6  C   UNL     1      -7.750  -6.510  -2.863  0.00  0.00    -0.023 C 
ATOM      7  C   UNL     1      -8.080  -7.667  -3.806  0.00  0.00    +0.007 C 
ATOM      8  C   UNL     1      -7.002  -7.779  -4.885  0.00  0.00    +0.003 C 
ATOM      9  C   UNL     1      -6.996  -6.504  -5.735  0.00  0.00    +0.037 C 
ATOM     10  C   UNL     1      -6.790  -5.296  -4.818  0.00  0.00    +0.096 C 
ATOM     11  C   UNL     1      -6.289  -3.998  -5.449  0.00  0.00    +0.196 C 
ATOM     12  O   UNL     1      -5.460  -4.820  -4.625  0.00  0.00    -0.368 OA
ATOM     13  C   UNL     1      -8.809  -6.419  -1.764  0.00  0.00    +0.052 C 
ATOM     14  C   UNL     1      -8.529  -5.271  -0.825  0.00  0.00    +0.181 C 
ATOM     15  O   UNL     1      -7.297  -5.456  -0.071  0.00  0.00    -0.461 OA
ATOM     16  C   UNL     1      -6.964  -4.250   0.449  0.00  0.00    +0.309 C 
ATOM     17  O   UNL     1      -6.314  -4.072   1.453  0.00  0.00    -0.251 OA
ATOM     18  C   UNL     1      -6.373  -6.735  -2.235  0.00  0.00    +0.011 C 
ENDBRANCH   1   2
BRANCH   1  29
ATOM     19  C   UNL     1      -3.528  -1.972  -0.927  0.00  0.00    -0.008 C 
ATOM     20  C   UNL     1      -4.532  -0.899  -0.500  0.00  0.00    -0.040 C 
ATOM     21  C   UNL     1      -3.909  -0.032   0.564  0.00  0.00    -0.054 A 
ATOM     22  C   UNL     1      -2.590   0.366   0.399  0.00  0.00    +0.051 A 
ATOM     23  C   UNL     1      -1.976   1.163   1.348  0.00  0.00    +0.161 A 
ATOM     24  C   UNL     1      -2.690   1.574   2.470  0.00  0.00    +0.159 A 
ATOM     25  C   UNL     1      -4.005   1.177   2.628  0.00  0.00    +0.053 A 
ATOM     26  C   UNL     1      -4.615   0.374   1.676  0.00  0.00    -0.044 A 
ATOM     27  C   UNL     1      -6.049  -0.036   1.896  0.00  0.00    +0.017 C 
ATOM     28  C   UNL     1      -6.654  -0.543   0.587  0.00  0.00    -0.073 C 
ATOM     29  N   UNL     1      -5.737  -1.559   0.030  0.00  0.00    +0.385 N 
ATOM     30  H   UNL     1      -5.463  -2.208   0.777  0.00  0.00    -0.081 HD
BRANCH  24  31
ATOM     31  O   UNL     1      -2.097   2.363   3.406  0.00  0.00    -0.503 OA
ATOM     32  H   UNL     1      -2.195   3.311   3.241  0.00  0.00    +0.292 HD
ENDBRANCH  24  31
BRANCH  23  33
ATOM     33  O   UNL     1      -0.682   1.547   1.184  0.00  0.00    -0.491 OA
ATOM     34  C   UNL     1      -0.013   1.086   0.008  0.00  0.00    +0.277 C 
ENDBRANCH  23  33
ENDBRANCH   1  29
TORSDOF 4
