REMARK  Name = ZINC65621513
REMARK  9 active torsions:
REMARK  status: ('A' for Active; 'I' for Inactive)
REMARK    1  A    between atoms: C_1  and  C_2
REMARK    2  A    between atoms: C_2  and  C_3
REMARK    3  A    between atoms: C_6  and  N_9
REMARK    4  A    between atoms: C_10  and  C_12
REMARK    5  A    between atoms: C_12  and  C_13
REMARK    6  A    between atoms: C_13  and  C_14
REMARK    7  A    between atoms: C_16  and  C_19
REMARK    8  A    between atoms: C_19  and  N_26
REMARK    9  A    between atoms: C_27  and  C_29
REMARK                            x       y       z     vdW  Elec       q    Type
REMARK                         _______ _______ _______ _____ _____    ______ ____
ROOT
ATOM      1  C   UNL     1       6.936  -2.766  -6.959  0.00  0.00    +0.228 A 
ATOM      2  N   UNL     1       7.388  -1.935  -7.857  0.00  0.00    -0.194 NA
ATOM      3  C   UNL     1       7.967  -2.610  -8.857  0.00  0.00    +0.195 A 
ATOM      4  N   UNL     1       7.889  -3.885  -8.605  0.00  0.00    -0.059 NA
ATOM      5  O   UNL     1       7.220  -4.012  -7.359  0.00  0.00    -0.338 OA
ENDROOT
BRANCH   3   6
ATOM      6  C   UNL     1       8.605  -1.995 -10.075  0.00  0.00    +0.097 C 
ATOM      7  C   UNL     1       9.821  -1.208  -9.666  0.00  0.00    +0.034 C 
ATOM      8  C   UNL     1      10.039   0.039 -10.544  0.00  0.00    +0.003 C 
ATOM      9  C   UNL     1       9.788  -0.232 -12.040  0.00  0.00    +0.000 C 
ATOM     10  C   UNL     1      10.353  -1.552 -12.489  0.00  0.00    +0.000 C 
ATOM     11  C   UNL     1       9.240  -2.616 -12.403  0.00  0.00    +0.003 C 
ATOM     12  C   UNL     1       9.046  -3.108 -11.048  0.00  0.00    +0.034 C 
BRANCH   6  13
ATOM     13  N   UNL     1       7.644  -1.112 -10.741  0.00  0.00    -0.303 N 
ATOM     14  C   UNL     1       7.128  -0.058 -10.079  0.00  0.00    +0.211 C 
ATOM     15  O   UNL     1       7.458   0.160  -8.933  0.00  0.00    -0.276 OA
ATOM     16  C   UNL     1       6.139   0.851 -10.764  0.00  0.00    +0.109 C 
ATOM     17  H   UNL     1       7.380  -1.286 -11.658  0.00  0.00    +0.150 HD
ENDBRANCH   6  13
ENDBRANCH   3   6
BRANCH   1  18
ATOM     18  C   UNL     1       6.221  -2.388  -5.687  0.00  0.00    +0.108 C 
BRANCH  18  19
ATOM     19  C   UNL     1       4.715  -2.327  -5.947  0.00  0.00    +0.105 C 
BRANCH  19  21
ATOM     20  N   UNL     1       2.657  -1.834  -4.665  0.00  0.00    -0.285 N 
ATOM     21  C   UNL     1       4.000  -1.949  -4.676  0.00  0.00    +0.218 C 
ATOM     22  O   UNL     1       4.634  -1.749  -3.661  0.00  0.00    -0.275 OA
ATOM     23  H   UNL     1       2.145  -2.067  -5.455  0.00  0.00    +0.155 HD
BRANCH  20  27
ATOM     24  C   UNL     1       0.708  -0.471  -1.245  0.00  0.00    -0.048 A 
ATOM     25  C   UNL     1       1.965   0.011  -1.561  0.00  0.00    +0.005 A 
ATOM     26  C   UNL     1       2.614  -0.438  -2.695  0.00  0.00    +0.023 A 
ATOM     27  C   UNL     1       2.003  -1.377  -3.516  0.00  0.00    +0.033 A 
ATOM     28  C   UNL     1       0.741  -1.860  -3.195  0.00  0.00    +0.023 A 
ATOM     29  C   UNL     1       0.100  -1.410  -2.058  0.00  0.00    +0.005 A 
BRANCH  24  31
ATOM     30  C   UNL     1       0.372  -0.872   1.179  0.00  0.00    +0.009 C 
ATOM     31  C   UNL     1       0.003   0.021  -0.007  0.00  0.00    +0.032 C 
ENDBRANCH  24  31
ENDBRANCH  20  27
ENDBRANCH  19  21
ENDBRANCH  18  19
ENDBRANCH   1  18
TORSDOF 7
