REMARK  Name = ZINC04436135
REMARK  4 active torsions:
REMARK  status: ('A' for Active; 'I' for Inactive)
REMARK    1  A    between atoms: C_1  and  C_2
REMARK    2  A    between atoms: C_2  and  S_3
REMARK    3  A    between atoms: S_3  and  C_4
REMARK    4  A    between atoms: C_9  and  C_19
REMARK                            x       y       z     vdW  Elec       q    Type
REMARK                         _______ _______ _______ _____ _____    ______ ____
ROOT
ATOM      1  C   UNL     1      -1.508  -2.383   0.004  0.00  0.00    +0.210 A 
ATOM      2  N   UNL     1      -0.338  -3.039  -0.005  0.00  0.00    -0.187 NA
ATOM      3  C   UNL     1      -0.559  -4.325  -0.009  0.00  0.00    +0.219 A 
ATOM      4  N   UNL     1      -1.900  -4.523  -0.008  0.00  0.00    -0.220 N 
ATOM      5  N   UNL     1      -2.490  -3.260   0.008  0.00  0.00    -0.141 NA
ATOM      6  C   UNL     1      -2.516  -5.844  -0.021  0.00  0.00    +0.175 C 
ATOM      7  C   UNL     1      -1.483  -6.899   0.307  0.00  0.00    +0.041 C 
ATOM      8  C   UNL     1      -0.159  -6.638   0.289  0.00  0.00    +0.020 C 
ATOM      9  N   UNL     1       0.329  -5.388  -0.011  0.00  0.00    -0.287 N 
ATOM     10  C   UNL     1       0.850  -7.719   0.598  0.00  0.00    +0.052 C 
ATOM     11  C   UNL     1       0.253  -8.706   1.603  0.00  0.00    +0.014 C 
ATOM     12  C   UNL     1      -1.023  -9.299   0.997  0.00  0.00    +0.080 C 
ATOM     13  C   UNL     1      -1.961  -8.180   0.640  0.00  0.00    +0.163 C 
ATOM     14  O   UNL     1      -3.158  -8.386   0.637  0.00  0.00    -0.292 OA
ATOM     15  H   UNL     1       1.267  -5.255  -0.220  0.00  0.00    +0.155 HD
ENDROOT
BRANCH   6  16
ATOM     16  C   UNL     1      -3.088  -6.115  -1.389  0.00  0.00    -0.018 A 
ATOM     17  C   UNL     1      -2.259  -6.126  -2.495  0.00  0.00    +0.007 A 
ATOM     18  C   UNL     1      -2.782  -6.375  -3.749  0.00  0.00    +0.020 A 
ATOM     19  C   UNL     1      -4.137  -6.614  -3.898  0.00  0.00    +0.041 A 
ATOM     20  C   UNL     1      -4.966  -6.603  -2.791  0.00  0.00    +0.020 A 
ATOM     21  C   UNL     1      -4.440  -6.359  -1.536  0.00  0.00    +0.007 A 
ATOM     22 CL   UNL     1      -4.796  -6.926  -5.473  0.00  0.00    -0.084 Cl
ENDBRANCH   6  16
BRANCH   1  23
ATOM     23  S   UNL     1      -1.700  -0.632   0.015  0.00  0.00    -0.085 S 
BRANCH  23  25
ATOM     24  C   UNL     1      -0.019   1.526   0.010  0.00  0.00    +0.016 C 
ATOM     25  C   UNL     1       0.002  -0.004   0.002  0.00  0.00    +0.074 C 
ENDBRANCH  23  25
ENDBRANCH   1  23
TORSDOF 3
