REMARK  Name = ZINC12140786
REMARK  11 active torsions:
REMARK  status: ('A' for Active; 'I' for Inactive)
REMARK    1  A    between atoms: C_1  and  C_2
REMARK    2  A    between atoms: N_11  and  C_12
REMARK    3  A    between atoms: C_12  and  C_13
REMARK    4  A    between atoms: C_13  and  N_67
REMARK    5  A    between atoms: C_14  and  N_67
REMARK    6  A    between atoms: C_15  and  N_67
REMARK    7  A    between atoms: C_16  and  C_18
REMARK    8  A    between atoms: C_21  and  S_24
REMARK    9  A    between atoms: S_24  and  N_27
REMARK   10  A    between atoms: C_29  and  C_36
REMARK   11  A    between atoms: C_32  and  C_35
REMARK                            x       y       z     vdW  Elec       q    Type
REMARK                         _______ _______ _______ _____ _____    ______ ____
ROOT
ATOM      1  C   UNL     1      -1.940   0.906   0.759  0.00  0.00    +0.044 C 
ATOM      2  C   UNL     1      -0.553   1.371   0.393  0.00  0.00    -0.049 A 
ATOM      3  C   UNL     1      -0.348   2.660  -0.077  0.00  0.00    +0.005 A 
ATOM      4  C   UNL     1       0.902   3.107  -0.417  0.00  0.00    +0.029 A 
ATOM      5  C   UNL     1       2.030   2.262  -0.296  0.00  0.00    +0.080 A 
ATOM      6  C   UNL     1       1.782   0.956   0.186  0.00  0.00    +0.041 A 
ATOM      7  C   UNL     1       0.526   0.517   0.523  0.00  0.00    +0.020 A 
ATOM      8  S   UNL     1       3.408   0.239   0.188  0.00  0.00    -0.052 S 
ATOM      9  C   UNL     1       4.284   1.668  -0.430  0.00  0.00    +0.168 A 
ATOM     10  N   UNL     1       3.318   2.544  -0.585  0.00  0.00    -0.224 NA
ATOM     11  N   UNL     1       5.638   1.815  -0.682  0.00  0.00    -0.248 N 
ATOM     12  C   UNL     1       6.480   0.788  -0.456  0.00  0.00    +0.252 C 
ATOM     13  O   UNL     1       6.074  -0.225   0.081  0.00  0.00    -0.270 OA
ENDROOT
BRANCH  12  14
ATOM     14  C   UNL     1       7.897   0.891  -0.862  0.00  0.00    +0.037 A 
ATOM     15  C   UNL     1       8.532   2.135  -0.881  0.00  0.00    +0.015 A 
ATOM     16  C   UNL     1       9.857   2.224  -1.256  0.00  0.00    +0.029 A 
ATOM     17  C   UNL     1      10.553   1.086  -1.623  0.00  0.00    +0.106 A 
ATOM     18  C   UNL     1       9.929  -0.149  -1.612  0.00  0.00    +0.029 A 
ATOM     19  C   UNL     1       8.606  -0.253  -1.234  0.00  0.00    +0.015 A 
BRANCH  17  20
ATOM     20  S   UNL     1      12.243   1.210  -2.107  0.00  0.00    +0.061 S 
ATOM     21  O   UNL     1      12.750   2.396  -1.510  0.00  0.00    -0.153 OA
ATOM     22  O   UNL     1      12.825  -0.066  -1.879  0.00  0.00    -0.153 OA
BRANCH  20  23
ATOM     23  N   UNL     1      12.267   1.456  -3.744  0.00  0.00    -0.172 NA
ATOM     24  C   UNL     1      12.322   0.321  -4.680  0.00  0.00    +0.140 C 
ATOM     25  C   UNL     1      11.208   0.505  -5.722  0.00  0.00    +0.131 C 
ATOM     26  O   UNL     1      11.316   1.809  -6.299  0.00  0.00    -0.371 OA
ATOM     27  C   UNL     1      11.135   2.878  -5.367  0.00  0.00    +0.131 C 
ATOM     28  C   UNL     1      12.240   2.815  -4.307  0.00  0.00    +0.140 C 
ATOM     29  C   UNL     1      11.210   4.217  -6.104  0.00  0.00    +0.039 C 
ATOM     30  C   UNL     1       9.842   0.356  -5.048  0.00  0.00    +0.039 C 
ENDBRANCH  20  23
ENDBRANCH  17  20
ENDBRANCH  12  14
BRANCH  11  31
ATOM     31  C   UNL     1       6.154   3.087  -1.193  0.00  0.00    +0.097 C 
BRANCH  31  32
ATOM     32  C   UNL     1       6.300   4.080  -0.037  0.00  0.00    -0.060 C 
BRANCH  32  35
ATOM     33  C   UNL     1       6.652   6.418   0.483  0.00  0.00    -0.097 C 
ATOM     34  C   UNL     1       8.034   5.326  -1.178  0.00  0.00    -0.097 C 
ATOM     35  N   UNL     1       6.682   5.398  -0.586  0.00  0.00    +0.377 N 
ATOM     36  H   UNL     1       6.011   5.662  -1.317  0.00  0.00    -0.083 HD
ENDBRANCH  32  35
ENDBRANCH  31  32
ENDBRANCH  11  31
TORSDOF 6
