REMARK  Name = ZINC38979950
REMARK  8 active torsions:
REMARK  status: ('A' for Active; 'I' for Inactive)
REMARK    1  A    between atoms: C_1  and  C_2
REMARK    2  A    between atoms: C_2  and  C_3
REMARK    3  A    between atoms: C_3  and  C_5
REMARK    4  A    between atoms: C_3  and  C_6
REMARK    5  A    between atoms: C_9  and  N_12
REMARK    6  A    between atoms: N_12  and  C_13
REMARK    7  A    between atoms: N_16  and  S_17
REMARK    8  A    between atoms: S_17  and  C_20
REMARK                            x       y       z     vdW  Elec       q    Type
REMARK                         _______ _______ _______ _____ _____    ______ ____
ROOT
ATOM      1  C   UNL     1      -1.915  -6.838   1.637  0.00  0.00    +0.235 C 
ATOM      2  C   UNL     1      -2.744  -8.014   1.174  0.00  0.00    +0.170 C 
ATOM      3  N   UNL     1      -3.739  -7.839   0.354  0.00  0.00    -0.111 NA
ATOM      4  N   UNL     1      -2.439  -9.243   1.622  0.00  0.00    -0.338 N 
ATOM      5  C   UNL     1      -1.437  -9.446   2.451  0.00  0.00    +0.064 A 
ATOM      6  C   UNL     1      -1.143 -10.757   2.904  0.00  0.00    +0.028 A 
ATOM      7  C   UNL     1      -0.116 -10.972   3.755  0.00  0.00    +0.002 A 
ATOM      8  C   UNL     1       0.703  -9.936   4.234  0.00  0.00    +0.002 A 
ATOM      9  C   UNL     1       0.510  -8.650   3.867  0.00  0.00    +0.027 A 
ATOM     10  C   UNL     1      -0.588  -8.332   2.941  0.00  0.00    +0.061 A 
ATOM     11  N   UNL     1      -0.804  -7.104   2.564  0.00  0.00    -0.359 N 
ATOM     12  H   UNL     1      -0.244  -6.381   2.887  0.00  0.00    +0.162 HD
ATOM     13  H   UNL     1      -2.970  -9.999   1.327  0.00  0.00    +0.167 HD
ENDROOT
BRANCH   3  14
ATOM     14  S   UNL     1      -4.639  -9.136  -0.144  0.00  0.00    +0.107 S 
ATOM     15  O   UNL     1      -3.778  -9.951  -0.928  0.00  0.00    -0.146 OA
ATOM     16  O   UNL     1      -5.315  -9.628   1.005  0.00  0.00    -0.146 OA
BRANCH  14  17
ATOM     17  C   UNL     1      -5.880  -8.521  -1.234  0.00  0.00    +0.150 A 
ATOM     18  C   UNL     1      -5.833  -8.365  -2.579  0.00  0.00    +0.037 A 
ATOM     19  C   UNL     1      -6.940  -7.858  -3.234  0.00  0.00    +0.010 A 
ATOM     20  C   UNL     1      -8.039  -7.532  -2.511  0.00  0.00    +0.047 A 
ATOM     21  S   UNL     1      -7.527  -7.949  -0.853  0.00  0.00    -0.076 S 
ENDBRANCH  14  17
ENDBRANCH   3  14
BRANCH   1  22
ATOM     22  N   UNL     1      -1.359  -6.187   0.448  0.00  0.00    -0.318 N 
ATOM     23  H   UNL     1      -0.887  -6.713  -0.217  0.00  0.00    +0.148 HD
BRANCH  22  27
ATOM     24  C   UNL     1      -1.808  -2.082  -0.081  0.00  0.00    -0.044 A 
ATOM     25  C   UNL     1      -2.178  -2.668   1.116  0.00  0.00    +0.006 A 
ATOM     26  C   UNL     1      -2.030  -4.029   1.294  0.00  0.00    +0.023 A 
ATOM     27  C   UNL     1      -1.510  -4.810   0.270  0.00  0.00    +0.029 A 
ATOM     28  C   UNL     1      -1.140  -4.218  -0.931  0.00  0.00    +0.023 A 
ATOM     29  C   UNL     1      -1.295  -2.857  -1.104  0.00  0.00    +0.006 A 
BRANCH  24  30
ATOM     30  C   UNL     1      -1.970  -0.596  -0.272  0.00  0.00    +0.016 C 
ATOM     31  C   UNL     1      -1.134   0.147   0.773  0.00  0.00    +0.012 C 
BRANCH  30  33
ATOM     32  C   UNL     1      -3.628   1.268  -0.424  0.00  0.00    +0.004 C 
ATOM     33  C   UNL     1      -3.444  -0.218  -0.108  0.00  0.00    +0.004 C 
ENDBRANCH  30  33
ENDBRANCH  24  30
ENDBRANCH  22  27
ENDBRANCH   1  22
TORSDOF 6
