REMARK  Name = ZINC59060798
REMARK  10 active torsions:
REMARK  status: ('A' for Active; 'I' for Inactive)
REMARK    1  A    between atoms: C_1  and  C_2
REMARK    2  A    between atoms: C_5  and  C_33
REMARK    3  A    between atoms: N_8  and  C_10
REMARK    4  A    between atoms: C_10  and  C_11
REMARK    5  A    between atoms: C_16  and  C_17
REMARK    6  A    between atoms: C_17  and  N_18
REMARK    7  A    between atoms: C_19  and  C_21
REMARK    8  A    between atoms: C_21  and  N_22
REMARK    9  A    between atoms: C_23  and  C_25
REMARK   10  A    between atoms: C_26  and  C_27
REMARK                            x       y       z     vdW  Elec       q    Type
REMARK                         _______ _______ _______ _____ _____    ______ ____
ROOT
ATOM      1  C   UNL     1       0.437  -1.763   3.434  0.00  0.00    +0.139 C 
ENDROOT
BRANCH   1   7
ATOM      2  C   UNL     1       2.218  -0.014   3.254  0.00  0.00    -0.059 A 
ATOM      3  C   UNL     1       2.810   1.164   3.671  0.00  0.00    +0.002 A 
ATOM      4  C   UNL     1       2.272   1.870   4.730  0.00  0.00    +0.000 A 
ATOM      5  C   UNL     1       1.142   1.399   5.372  0.00  0.00    +0.000 A 
ATOM      6  C   UNL     1       0.550   0.222   4.955  0.00  0.00    +0.005 A 
ATOM      7  C   UNL     1       1.086  -0.483   3.892  0.00  0.00    -0.029 A 
BRANCH   2   8
ATOM      8  C   UNL     1       2.805  -0.784   2.099  0.00  0.00    -0.043 C 
BRANCH   8  14
ATOM      9  C   UNL     1       4.806  -3.211   4.912  0.00  0.00    +0.005 C 
ATOM     10  C   UNL     1       5.654  -2.416   3.918  0.00  0.00    -0.031 C 
ATOM     11  C   UNL     1       6.139  -3.344   2.801  0.00  0.00    +0.003 C 
ATOM     12  C   UNL     1       4.926  -3.880   2.034  0.00  0.00    -0.031 C 
ATOM     13  C   UNL     1       4.109  -2.703   1.496  0.00  0.00    -0.075 C 
ATOM     14  N   UNL     1       3.653  -1.868   2.614  0.00  0.00    +0.383 N 
ATOM     15  C   UNL     1       4.811  -1.292   3.311  0.00  0.00    -0.075 C 
ATOM     16  C   UNL     1       5.402  -4.748   0.867  0.00  0.00    +0.005 C 
ATOM     17  H   UNL     1       3.120  -2.432   3.258  0.00  0.00    -0.081 HD
ENDBRANCH   8  14
ENDBRANCH   2   8
ENDBRANCH   1   7
BRANCH   1  18
ATOM     18  N   UNL     1       1.148  -2.905   4.014  0.00  0.00    -0.310 N 
ATOM     19  C   UNL     1       0.815  -4.160   3.653  0.00  0.00    +0.230 C 
ATOM     20  O   UNL     1      -0.072  -4.344   2.847  0.00  0.00    -0.274 OA
ATOM     21  H   UNL     1       1.858  -2.758   4.659  0.00  0.00    +0.149 HD
BRANCH  19  22
ATOM     22  C   UNL     1       1.546  -5.335   4.250  0.00  0.00    +0.200 C 
BRANCH  22  23
ATOM     23  N   UNL     1       1.003  -6.580   3.699  0.00  0.00    -0.303 N 
ATOM     24  C   UNL     1       1.506  -7.766   4.092  0.00  0.00    +0.237 C 
ATOM     25  O   UNL     1       2.413  -7.805   4.903  0.00  0.00    -0.271 OA
ATOM     26  H   UNL     1       0.281  -6.549   3.052  0.00  0.00    +0.149 HD
BRANCH  24  27
ATOM     27  C   UNL     1       0.963  -9.010   3.541  0.00  0.00    +0.068 C 
ATOM     28  C   UNL     1       1.467 -10.197   3.934  0.00  0.00    +0.013 C 
BRANCH  28  29
ATOM     29  C   UNL     1       0.921 -11.448   3.381  0.00  0.00    -0.025 A 
ATOM     30  C   UNL     1      -0.116 -11.408   2.444  0.00  0.00    +0.008 A 
ATOM     31  C   UNL     1      -0.622 -12.583   1.930  0.00  0.00    +0.001 A 
ATOM     32  C   UNL     1      -0.106 -13.800   2.340  0.00  0.00    +0.000 A 
ATOM     33  C   UNL     1       0.920 -13.848   3.267  0.00  0.00    +0.001 A 
ATOM     34  C   UNL     1       1.441 -12.681   3.785  0.00  0.00    +0.008 A 
ENDBRANCH  28  29
ENDBRANCH  24  27
ENDBRANCH  22  23
ENDBRANCH  19  22
ENDBRANCH   1  18
TORSDOF 8
