REMARK  Name = ZINC19925257
REMARK  9 active torsions:
REMARK  status: ('A' for Active; 'I' for Inactive)
REMARK    1  A    between atoms: C_1  and  C_2
REMARK    2  A    between atoms: C_5  and  C_8
REMARK    3  A    between atoms: N_9  and  C_10
REMARK    4  A    between atoms: C_10  and  C_11
REMARK    5  A    between atoms: N_17  and  C_18
REMARK    6  A    between atoms: C_18  and  N_20
REMARK    7  A    between atoms: N_20  and  N_21
REMARK    8  A    between atoms: N_21  and  C_22
REMARK    9  A    between atoms: N_21  and  C_28
REMARK                            x       y       z     vdW  Elec       q    Type
REMARK                         _______ _______ _______ _____ _____    ______ ____
ROOT
ATOM      1  C   UNL     1       2.350  -4.518  -0.354  0.00  0.00    +0.097 C 
ATOM      2  N   UNL     1       3.558  -5.143  -0.208  0.00  0.00    -0.328 N 
ATOM      3  N   UNL     1       1.268  -5.226  -0.620  0.00  0.00    -0.284 N 
ATOM      4  H   UNL     1       4.353  -4.622  -0.013  0.00  0.00    +0.148 HD
ATOM      5  H   UNL     1       1.312  -6.195  -0.628  0.00  0.00    +0.155 HD
ENDROOT
BRANCH   1  10
ATOM      6  C   UNL     1       1.983   1.198   0.189  0.00  0.00    +0.044 C 
ATOM      7  C   UNL     1       2.079  -0.299   0.047  0.00  0.00    -0.050 A 
ATOM      8  C   UNL     1       3.181  -0.863  -0.572  0.00  0.00    +0.004 A 
ATOM      9  C   UNL     1       3.276  -2.232  -0.706  0.00  0.00    +0.011 A 
ATOM     10  C   UNL     1       2.256  -3.051  -0.214  0.00  0.00    +0.011 A 
ATOM     11  C   UNL     1       1.147  -2.475   0.409  0.00  0.00    +0.011 A 
ATOM     12  C   UNL     1       1.068  -1.104   0.541  0.00  0.00    +0.004 A 
ENDBRANCH   1  10
BRANCH   3  13
ATOM     13  C   UNL     1       0.106  -4.606  -0.879  0.00  0.00    +0.152 C 
ATOM     14  S   UNL     1      -1.126  -4.565   0.308  0.00  0.00    -0.017 S 
BRANCH  13  15
ATOM     15  N   UNL     1      -0.090  -4.014  -2.075  0.00  0.00    -0.241 N 
ATOM     16  H   UNL     1      -0.929  -3.566  -2.262  0.00  0.00    +0.172 HD
BRANCH  15  17
ATOM     17  N   UNL     1       0.919  -4.048  -3.047  0.00  0.00    -0.221 N 
BRANCH  17  18
ATOM     18  C   UNL     1       1.165  -5.225  -3.757  0.00  0.00    +0.053 A 
ATOM     19  C   UNL     1       0.516  -6.401  -3.403  0.00  0.00    +0.025 A 
ATOM     20  C   UNL     1       0.763  -7.563  -4.107  0.00  0.00    +0.002 A 
ATOM     21  C   UNL     1       1.654  -7.557  -5.165  0.00  0.00    +0.000 A 
ATOM     22  C   UNL     1       2.302  -6.388  -5.520  0.00  0.00    +0.002 A 
ATOM     23  C   UNL     1       2.055  -5.221  -4.824  0.00  0.00    +0.025 A 
ENDBRANCH  17  18
BRANCH  17  24
ATOM     24  C   UNL     1       1.678  -2.904  -3.305  0.00  0.00    +0.053 A 
ATOM     25  C   UNL     1       1.051  -1.674  -3.466  0.00  0.00    +0.025 A 
ATOM     26  C   UNL     1       1.804  -0.545  -3.722  0.00  0.00    +0.002 A 
ATOM     27  C   UNL     1       3.181  -0.638  -3.817  0.00  0.00    +0.000 A 
ATOM     28  C   UNL     1       3.808  -1.860  -3.657  0.00  0.00    +0.002 A 
ATOM     29  C   UNL     1       3.061  -2.992  -3.395  0.00  0.00    +0.025 A 
ENDBRANCH  17  24
ENDBRANCH  15  17
ENDBRANCH  13  15
ENDBRANCH   3  13
BRANCH   2  30
ATOM     30  C   UNL     1       3.651  -6.598  -0.347  0.00  0.00    +0.138 C 
BRANCH  30  31
ATOM     31  C   UNL     1       5.080  -7.032  -0.142  0.00  0.00    -0.030 A 
ATOM     32  C   UNL     1       5.943  -7.100  -1.219  0.00  0.00    +0.005 A 
ATOM     33  C   UNL     1       7.253  -7.498  -1.031  0.00  0.00    +0.000 A 
ATOM     34  C   UNL     1       7.700  -7.827   0.235  0.00  0.00    +0.000 A 
ATOM     35  C   UNL     1       6.838  -7.758   1.312  0.00  0.00    +0.000 A 
ATOM     36  C   UNL     1       5.528  -7.356   1.125  0.00  0.00    +0.005 A 
ENDBRANCH  30  31
ENDBRANCH   2  30
TORSDOF 8
