REMARK  Name = ZINC39595017
REMARK  11 active torsions:
REMARK  status: ('A' for Active; 'I' for Inactive)
REMARK    1  A    between atoms: C_1  and  C_2
REMARK    2  A    between atoms: C_2  and  C_3
REMARK    3  A    between atoms: C_3  and  C_4
REMARK    4  A    between atoms: C_4  and  C_5
REMARK    5  A    between atoms: C_5  and  C_7
REMARK    6  A    between atoms: C_5  and  C_8
REMARK    7  A    between atoms: C_12  and  C_21
REMARK    8  A    between atoms: N_23  and  C_24
REMARK    9  A    between atoms: C_24  and  C_25
REMARK   10  A    between atoms: C_25  and  C_27
REMARK   11  A    between atoms: C_25  and  N_33
REMARK                            x       y       z     vdW  Elec       q    Type
REMARK                         _______ _______ _______ _____ _____    ______ ____
ROOT
ATOM      1  C   UNL     1       1.434  -4.993   2.376  0.00  0.00    +0.218 C 
ATOM      2  O   UNL     1       0.822  -5.709   1.611  0.00  0.00    -0.275 OA
ATOM      3  N   UNL     1       2.008  -5.518   3.476  0.00  0.00    -0.300 N 
ATOM      4  C   UNL     1       2.784  -4.810   4.521  0.00  0.00    +0.121 C 
ATOM      5  C   UNL     1       2.346  -5.470   5.848  0.00  0.00    +0.100 C 
ATOM      6  C   UNL     1       1.838  -6.865   5.443  0.00  0.00    -0.004 C 
ATOM      7  C   UNL     1       2.001  -6.934   3.918  0.00  0.00    +0.115 C 
ATOM      8  C   UNL     1       0.368  -7.021   5.818  0.00  0.00    -0.010 C 
ATOM      9  C   UNL     1      -0.098  -8.434   5.458  0.00  0.00    -0.082 C 
ATOM     10  N   UNL     1       0.719  -9.419   6.178  0.00  0.00    +0.379 N 
ATOM     11  C   UNL     1       2.117  -9.324   5.742  0.00  0.00    -0.082 C 
ATOM     12  C   UNL     1       2.677  -7.948   6.114  0.00  0.00    -0.010 C 
ATOM     13  H   UNL     1       0.663  -9.240   7.169  0.00  0.00    -0.086 HD
ATOM     14  H   UNL     1       0.371 -10.347   5.986  0.00  0.00    -0.086 HD
ENDROOT
BRANCH   5  15
ATOM     15  C   UNL     1       3.518  -5.589   6.788  0.00  0.00    +0.218 C 
ATOM     16  O   UNL     1       4.638  -5.733   6.345  0.00  0.00    -0.275 OA
ATOM     17  N   UNL     1       3.322  -5.533   8.120  0.00  0.00    -0.316 N 
ATOM     18  H   UNL     1       2.426  -5.418   8.474  0.00  0.00    +0.149 HD
BRANCH  17  19
ATOM     19  C   UNL     1       4.461  -5.648   9.034  0.00  0.00    +0.093 C 
BRANCH  19  20
ATOM     20  C   UNL     1       3.955  -5.691  10.477  0.00  0.00    -0.019 C 
BRANCH  20  21
ATOM     21  C   UNL     1       3.154  -6.949  10.691  0.00  0.00    -0.041 A 
ATOM     22  C   UNL     1       1.768  -6.914  10.656  0.00  0.00    +0.005 A 
ATOM     23  C   UNL     1       1.073  -8.096  10.859  0.00  0.00    +0.020 A 
ATOM     24  C   UNL     1       1.779  -9.262  11.087  0.00  0.00    +0.111 A 
ATOM     25  N   UNL     1       3.097  -9.258  11.113  0.00  0.00    -0.263 NA
ATOM     26  C   UNL     1       3.792  -8.154  10.919  0.00  0.00    +0.112 A 
ENDBRANCH  20  21
BRANCH  20  27
ATOM     27  N   UNL     1       5.100  -5.677  11.398  0.00  0.00    +0.385 N 
ATOM     28  C   UNL     1       5.861  -4.410  11.249  0.00  0.00    -0.078 C 
ATOM     29  C   UNL     1       6.623  -4.294  12.593  0.00  0.00    -0.020 C 
ATOM     30  C   UNL     1       5.599  -4.832  13.618  0.00  0.00    -0.020 C 
ATOM     31  C   UNL     1       4.628  -5.701  12.799  0.00  0.00    -0.078 C 
ATOM     32  H   UNL     1       5.701  -6.467  11.219  0.00  0.00    -0.081 HD
ENDBRANCH  20  27
ENDBRANCH  19  20
ENDBRANCH  17  19
ENDBRANCH   5  15
BRANCH   1  33
ATOM     33  C   UNL     1       1.552  -3.517   2.095  0.00  0.00    +0.072 C 
ATOM     34  C   UNL     1       3.029  -3.141   1.956  0.00  0.00    +0.017 C 
BRANCH  33  35
ATOM     35  C   UNL     1       0.817  -3.185   0.795  0.00  0.00    +0.012 C 
BRANCH  35  36
ATOM     36  C   UNL     1       0.830  -1.671   0.575  0.00  0.00    +0.000 C 
BRANCH  36  38
ATOM     37  C   UNL     1       0.108   0.176  -0.945  0.00  0.00    +0.004 C 
ATOM     38  C   UNL     1       0.095  -1.338  -0.725  0.00  0.00    -0.003 C 
ENDBRANCH  36  38
ENDBRANCH  35  36
ENDBRANCH  33  35
ENDBRANCH   1  33
TORSDOF 9
