REMARK  Name = ZINC36206438
REMARK  14 active torsions:
REMARK  status: ('A' for Active; 'I' for Inactive)
REMARK    1  A    between atoms: C_1  and  C_2
REMARK    2  A    between atoms: C_5  and  C_9
REMARK    3  A    between atoms: C_6  and  C_8
REMARK    4  A    between atoms: C_18  and  C_20
REMARK    5  A    between atoms: C_20  and  N_21
REMARK    6  A    between atoms: N_21  and  C_22
REMARK    7  A    between atoms: N_21  and  C_30
REMARK    8  A    between atoms: C_22  and  C_23
REMARK    9  A    between atoms: C_23  and  N_24
REMARK   10  A    between atoms: C_30  and  C_31
REMARK   11  A    between atoms: C_31  and  C_33
REMARK   12  A    between atoms: C_31  and  O_36
REMARK   13  A    between atoms: C_33  and  C_34
REMARK   14  A    between atoms: C_33  and  C_35
REMARK                            x       y       z     vdW  Elec       q    Type
REMARK                         _______ _______ _______ _____ _____    ______ ____
ROOT
ATOM      1  C   UNL     1      -3.968  -6.996   7.596  0.00  0.00    +0.004 A 
ATOM      2  C   UNL     1      -3.462  -8.062   8.262  0.00  0.00    +0.056 A 
ATOM      3  S   UNL     1      -3.008  -9.187   6.956  0.00  0.00    -0.076 S 
ATOM      4  C   UNL     1      -3.503  -8.210   5.560  0.00  0.00    +0.116 A 
ATOM      5  C   UNL     1      -4.014  -7.037   6.139  0.00  0.00    +0.080 A 
ATOM      6  C   UNL     1      -4.500  -6.053   5.220  0.00  0.00    +0.260 A 
ATOM      7  O   UNL     1      -4.959  -4.999   5.627  0.00  0.00    -0.267 OA
ATOM      8  N   UNL     1      -4.443  -6.308   3.900  0.00  0.00    -0.312 N 
ATOM      9  H   UNL     1      -4.771  -5.645   3.273  0.00  0.00    +0.170 HD
ATOM     10  C   UNL     1      -3.934  -7.476   3.429  0.00  0.00    +0.094 A 
ATOM     11  N   UNL     1      -3.474  -8.388   4.242  0.00  0.00    -0.229 NA
ENDROOT
BRANCH   1  16
ATOM     12  C   UNL     1      -5.921  -2.401  10.464  0.00  0.00    +0.044 C 
ATOM     13  C   UNL     1      -5.410  -3.603   9.713  0.00  0.00    -0.050 A 
ATOM     14  C   UNL     1      -4.066  -3.928   9.765  0.00  0.00    +0.004 A 
ATOM     15  C   UNL     1      -3.593  -5.028   9.081  0.00  0.00    +0.009 A 
ATOM     16  C   UNL     1      -4.471  -5.813   8.334  0.00  0.00    -0.014 A 
ATOM     17  C   UNL     1      -5.824  -5.481   8.285  0.00  0.00    -0.042 A 
ATOM     18  C   UNL     1      -6.287  -4.381   8.979  0.00  0.00    +0.007 A 
ATOM     19  C   UNL     1      -6.780  -6.324   7.481  0.00  0.00    +0.044 C 
ENDBRANCH   1  16
BRANCH  10  20
ATOM     20  C   UNL     1      -3.890  -7.718   1.942  0.00  0.00    -0.003 C 
BRANCH  20  21
ATOM     21  N   UNL     1      -3.430  -9.088   1.683  0.00  0.00    +0.387 N 
ATOM     22  H   UNL     1      -2.561  -9.250   2.170  0.00  0.00    -0.081 HD
BRANCH  21  23
ATOM     23  C   UNL     1      -4.442 -10.042   2.156  0.00  0.00    -0.063 C 
BRANCH  23  24
ATOM     24  C   UNL     1      -3.910 -11.469   2.001  0.00  0.00    +0.066 C 
BRANCH  24  25
ATOM     25  N   UNL     1      -4.922 -12.422   2.474  0.00  0.00    -0.300 NA
ATOM     26  C   UNL     1      -5.133 -12.291   3.923  0.00  0.00    +0.112 C 
ATOM     27  C   UNL     1      -6.234 -13.259   4.363  0.00  0.00    +0.175 C 
ATOM     28  O   UNL     1      -5.870 -14.590   3.988  0.00  0.00    -0.377 OA
ATOM     29  C   UNL     1      -5.658 -14.754   2.583  0.00  0.00    +0.175 C 
ATOM     30  C   UNL     1      -4.551 -13.801   2.125  0.00  0.00    +0.112 C 
ENDBRANCH  24  25
ENDBRANCH  23  24
ENDBRANCH  21  23
BRANCH  21  31
ATOM     31  C   UNL     1      -3.223  -9.271   0.240  0.00  0.00    -0.046 C 
BRANCH  31  32
ATOM     32  C   UNL     1      -2.077  -8.371  -0.228  0.00  0.00    +0.101 C 
BRANCH  32  33
ATOM     33  C   UNL     1      -1.845  -8.578  -1.726  0.00  0.00    +0.010 C 
ATOM     34  C   UNL     1      -3.120  -8.221  -2.493  0.00  0.00    +0.010 C 
ATOM     35  C   UNL     1      -0.699  -7.679  -2.195  0.00  0.00    +0.010 C 
ENDBRANCH  32  33
BRANCH  32  36
ATOM     36  O   UNL     1      -0.886  -8.705   0.488  0.00  0.00    -0.393 OA
ATOM     37  H   UNL     1      -0.598  -9.620   0.368  0.00  0.00    +0.210 HD
ENDBRANCH  32  36
ENDBRANCH  31  32
ENDBRANCH  21  31
ENDBRANCH  20  21
ENDBRANCH  10  20
TORSDOF 10
