REMARK  Name = ZINC16814203
REMARK  6 active torsions:
REMARK  status: ('A' for Active; 'I' for Inactive)
REMARK    1  A    between atoms: C_6  and  C_7
REMARK    2  A    between atoms: C_7  and  O_8
REMARK    3  A    between atoms: O_8  and  C_9
REMARK    4  A    between atoms: C_9  and  C_11
REMARK    5  A    between atoms: C_13  and  N_18
REMARK    6  A    between atoms: C_16  and  N_17
REMARK                            x       y       z     vdW  Elec       q    Type
REMARK                         _______ _______ _______ _____ _____    ______ ____
ROOT
ATOM      1  C   UNL     1      -1.196  -0.727   0.121  0.00  0.00    +0.082 A 
ATOM      2  C   UNL     1      -1.164  -2.124   0.092  0.00  0.00    +0.049 A 
ATOM      3  C   UNL     1       0.040  -2.782  -0.027  0.00  0.00    +0.127 A 
ATOM      4  C   UNL     1       1.223  -2.066  -0.125  0.00  0.00    +0.034 A 
ATOM      5  C   UNL     1       1.209  -0.686  -0.104  0.00  0.00    +0.026 A 
ATOM      6  C   UNL     1       0.004  -0.004   0.016  0.00  0.00    +0.039 A 
ENDROOT
BRANCH   6   7
ATOM      7  N   UNL     1      -0.013   1.384   0.038  0.00  0.00    -0.357 N 
ATOM      8  H   UNL     1       0.821   1.879   0.054  0.00  0.00    +0.142 HD
ATOM      9  H   UNL     1      -0.859   1.859   0.033  0.00  0.00    +0.142 HD
ENDBRANCH   6   7
BRANCH   3  10
ATOM     10  N   UNL     1       0.071  -4.261  -0.051  0.00  0.00    +0.056 N 
ATOM     11  O   UNL     1       1.134  -4.846  -0.157  0.00  0.00    -0.126 OA
ATOM     12  O   UNL     1      -0.966  -4.894   0.034  0.00  0.00    -0.126 OA
ENDBRANCH   3  10
BRANCH   1  13
ATOM     13  C   UNL     1      -2.479  -0.016   0.255  0.00  0.00    +0.341 C 
ATOM     14  O   UNL     1      -2.515   1.195   0.171  0.00  0.00    -0.245 OA
BRANCH  13  15
ATOM     15  O   UNL     1      -3.614  -0.711   0.470  0.00  0.00    -0.456 OA
BRANCH  15  16
ATOM     16  C   UNL     1      -4.842   0.055   0.592  0.00  0.00    +0.268 C 
BRANCH  16  22
ATOM     17  C   UNL     1      -6.702  -1.396  -0.246  0.00  0.00    +0.008 A 
ATOM     18  C   UNL     1      -7.758  -2.260  -0.030  0.00  0.00    +0.015 A 
ATOM     19  C   UNL     1      -8.118  -2.604   1.260  0.00  0.00    +0.018 A 
ATOM     20  C   UNL     1      -7.416  -2.087   2.335  0.00  0.00    +0.015 A 
ATOM     21  C   UNL     1      -6.356  -1.227   2.118  0.00  0.00    +0.008 A 
ATOM     22  C   UNL     1      -5.997  -0.884   0.828  0.00  0.00    -0.010 A 
ATOM     23 BR   UNL     1      -9.568  -3.782   1.556  0.00  0.00    -0.050 Br
ENDBRANCH  16  22
ENDBRANCH  15  16
ENDBRANCH  13  15
ENDBRANCH   1  13
TORSDOF 6
