REMARK  Name = ZINC24957866
REMARK  10 active torsions:
REMARK  status: ('A' for Active; 'I' for Inactive)
REMARK    1  A    between atoms: C_1  and  C_2
REMARK    2  A    between atoms: C_2  and  C_3
REMARK    3  A    between atoms: C_3  and  C_4
REMARK    4  A    between atoms: C_4  and  C_5
REMARK    5  A    between atoms: C_5  and  C_7
REMARK    6  A    between atoms: C_5  and  N_22
REMARK    7  A    between atoms: N_9  and  C_10
REMARK    8  A    between atoms: C_10  and  C_11
REMARK    9  A    between atoms: C_14  and  C_16
REMARK   10  A    between atoms: C_19  and  C_21
REMARK                            x       y       z     vdW  Elec       q    Type
REMARK                         _______ _______ _______ _____ _____    ______ ____
ROOT
ATOM      1  C   UNL     1       5.933   2.890  -0.040  0.00  0.00    +0.158 C 
ENDROOT
BRANCH   1   2
ATOM      2  N   UNL     1       4.825   1.932  -0.035  0.00  0.00    -0.316 N 
ATOM      3  C   UNL     1       3.523   2.384  -0.019  0.00  0.00    +0.150 C 
ATOM      4  N   UNL     1       3.272   3.654  -0.009  0.00  0.00    -0.113 NA
ATOM      5  S   UNL     1       1.604   3.790   0.007  0.00  0.00    +0.101 S 
ATOM      6  O   UNL     1       1.226   4.331   1.266  0.00  0.00    -0.146 OA
ATOM      7  O   UNL     1       1.202   4.346  -1.237  0.00  0.00    -0.146 OA
ATOM      8  C   UNL     1       1.160   2.074   0.002  0.00  0.00    +0.123 A 
ATOM      9  C   UNL     1       2.404   1.429  -0.014  0.00  0.00    +0.043 A 
ATOM     10  C   UNL     1       2.404   0.026  -0.021  0.00  0.00    +0.013 A 
ATOM     11  C   UNL     1       1.215  -0.669  -0.013  0.00  0.00    +0.001 A 
ATOM     12  C   UNL     1       0.002  -0.004   0.002  0.00  0.00    +0.002 A 
ATOM     13  C   UNL     1      -0.017   1.384   0.010  0.00  0.00    +0.030 A 
ATOM     14  H   UNL     1       5.032   0.851  -0.043  0.00  0.00    +0.148 HD
ENDBRANCH   1   2
BRANCH   1  15
ATOM     15  C   UNL     1       7.149   2.247  -0.657  0.00  0.00    +0.234 C 
ATOM     16  O   UNL     1       7.095   1.102  -1.053  0.00  0.00    -0.274 OA
ATOM     17  N   UNL     1       8.297   2.946  -0.768  0.00  0.00    -0.309 N 
ATOM     18  H   UNL     1       8.345   3.984  -0.409  0.00  0.00    +0.149 HD
BRANCH  17  19
ATOM     19  C   UNL     1       9.479   2.321  -1.368  0.00  0.00    +0.146 C 
BRANCH  19  20
ATOM     20  C   UNL     1      10.619   3.307  -1.373  0.00  0.00    +0.007 A 
ATOM     21  C   UNL     1      11.562   3.525  -0.423  0.00  0.00    +0.013 A 
ATOM     22  C   UNL     1      12.527   4.486  -0.642  0.00  0.00    +0.018 A 
ATOM     23  C   UNL     1      12.493   5.198  -1.810  0.00  0.00    +0.038 A 
ATOM     24  S   UNL     1      11.071   4.492  -2.629  0.00  0.00    -0.090 S 
BRANCH  23  25
ATOM     25  C   UNL     1      13.398   6.271  -2.274  0.00  0.00    +0.085 A 
ATOM     26  C   UNL     1      13.214   6.876  -3.491  0.00  0.00    +0.075 A 
ATOM     27  S   UNL     1      14.566   8.044  -3.486  0.00  0.00    -0.080 S 
ATOM     28  C   UNL     1      15.223   7.627  -1.934  0.00  0.00    +0.076 A 
ATOM     29  N   UNL     1      14.416   6.677  -1.530  0.00  0.00    -0.244 NA
ATOM     30  C   UNL     1      16.420   8.212  -1.229  0.00  0.00    +0.073 C 
ENDBRANCH  23  25
ENDBRANCH  19  20
ENDBRANCH  17  19
ENDBRANCH   1  15
BRANCH   1  31
ATOM     31  C   UNL     1       6.251   3.310   1.396  0.00  0.00    +0.032 C 
BRANCH  31  32
ATOM     32  C   UNL     1       5.060   4.072   1.980  0.00  0.00    +0.002 C 
BRANCH  32  34
ATOM     33  C   UNL     1       4.187   5.254   4.000  0.00  0.00    +0.004 C 
ATOM     34  C   UNL     1       5.378   4.492   3.417  0.00  0.00    -0.003 C 
ENDBRANCH  32  34
ENDBRANCH  31  32
ENDBRANCH   1  31
TORSDOF 8
