REMARK  Name = ZINC21901070
REMARK  14 active torsions:
REMARK  status: ('A' for Active; 'I' for Inactive)
REMARK    1  A    between atoms: C_1  and  C_2
REMARK    2  A    between atoms: C_3  and  S_8
REMARK    3  A    between atoms: C_4  and  C_7
REMARK    4  A    between atoms: S_8  and  N_11
REMARK    5  A    between atoms: N_15  and  C_18
REMARK    6  A    between atoms: C_18  and  C_19
REMARK    7  A    between atoms: N_21  and  C_22
REMARK    8  A    between atoms: C_22  and  C_24
REMARK    9  A    between atoms: C_22  and  C_33
REMARK   10  A    between atoms: C_27  and  C_30
REMARK   11  A    between atoms: C_30  and  C_31
REMARK   12  A    between atoms: C_30  and  C_32
REMARK   13  A    between atoms: C_33  and  C_34
REMARK   14  A    between atoms: C_33  and  C_35
REMARK                            x       y       z     vdW  Elec       q    Type
REMARK                         _______ _______ _______ _____ _____    ______ ____
ROOT
ATOM      1  N   UNL     1      -9.057   5.925   6.978  0.00  0.00    -0.178 NA
ATOM      2  C   UNL     1      -8.315   6.028   8.216  0.00  0.00    +0.107 C 
ATOM      3  C   UNL     1      -7.002   6.813   7.969  0.00  0.00    -0.001 C 
ATOM      4  C   UNL     1      -6.085   6.004   7.144  0.00  0.00    -0.077 C 
ATOM      5  N   UNL     1      -6.594   5.685   5.811  0.00  0.00    +0.386 N 
ATOM      6  C   UNL     1      -7.379   4.469   5.841  0.00  0.00    -0.061 C 
ATOM      7  C   UNL     1      -8.869   4.817   6.019  0.00  0.00    +0.091 C 
ATOM      8  H   UNL     1      -7.261   6.500   5.492  0.00  0.00    -0.081 HD
ENDROOT
BRANCH   1   9
ATOM      9  S   UNL     1     -10.167   7.101   6.621  0.00  0.00    +0.066 S 
ATOM     10  O   UNL     1     -11.103   6.518   5.725  0.00  0.00    -0.153 OA
ATOM     11  O   UNL     1     -10.556   7.681   7.859  0.00  0.00    -0.153 OA
BRANCH   9  14
ATOM     12  C   UNL     1      -9.657   7.497   3.277  0.00  0.00    +0.071 C 
ATOM     13  C   UNL     1      -9.150   8.459   4.320  0.00  0.00    +0.107 A 
ATOM     14  C   UNL     1      -9.323   8.358   5.720  0.00  0.00    +0.170 A 
ATOM     15  C   UNL     1      -8.694   9.454   6.207  0.00  0.00    +0.161 A 
ATOM     16  O   UNL     1      -8.201  10.111   5.148  0.00  0.00    -0.358 OA
ATOM     17  N   UNL     1      -8.466   9.546   4.112  0.00  0.00    -0.081 NA
ATOM     18  C   UNL     1      -8.571   9.856   7.654  0.00  0.00    +0.091 C 
ENDBRANCH   9  14
ENDBRANCH   1   9
BRANCH   5  19
ATOM     19  C   UNL     1      -5.497   5.580   4.839  0.00  0.00    +0.019 C 
BRANCH  19  20
ATOM     20  C   UNL     1      -4.632   4.395   5.185  0.00  0.00    +0.197 C 
ATOM     21  O   UNL     1      -4.903   3.707   6.146  0.00  0.00    -0.278 OA
ATOM     22  N   UNL     1      -3.558   4.101   4.426  0.00  0.00    -0.310 N 
ATOM     23  H   UNL     1      -3.312   4.725   3.555  0.00  0.00    +0.149 HD
BRANCH  22  24
ATOM     24  C   UNL     1      -2.717   2.949   4.763  0.00  0.00    +0.106 C 
BRANCH  24  25
ATOM     25  C   UNL     1      -2.011   2.463   3.523  0.00  0.00    -0.027 A 
ATOM     26  C   UNL     1      -1.870   1.107   3.295  0.00  0.00    +0.006 A 
ATOM     27  C   UNL     1      -1.222   0.662   2.158  0.00  0.00    +0.004 A 
ATOM     28  C   UNL     1      -0.718   1.572   1.248  0.00  0.00    -0.045 A 
ATOM     29  C   UNL     1      -0.856   2.928   1.478  0.00  0.00    +0.004 A 
ATOM     30  C   UNL     1      -1.507   3.374   2.613  0.00  0.00    +0.006 A 
BRANCH  28  31
ATOM     31  C   UNL     1      -0.013   1.086   0.008  0.00  0.00    +0.013 C 
ATOM     32  C   UNL     1       1.423   1.615  -0.003  0.00  0.00    +0.012 C 
ATOM     33  C   UNL     1      -0.753   1.593  -1.232  0.00  0.00    +0.012 C 
ENDBRANCH  28  31
ENDBRANCH  24  25
BRANCH  24  34
ATOM     34  C   UNL     1      -1.681   3.363   5.810  0.00  0.00    +0.008 C 
ATOM     35  C   UNL     1      -0.803   2.160   6.161  0.00  0.00    +0.009 C 
ATOM     36  C   UNL     1      -0.807   4.486   5.247  0.00  0.00    +0.009 C 
ENDBRANCH  24  34
ENDBRANCH  22  24
ENDBRANCH  19  20
ENDBRANCH   5  19
TORSDOF 8
