REMARK  Name = ZINC20115138
REMARK  11 active torsions:
REMARK  status: ('A' for Active; 'I' for Inactive)
REMARK    1  A    between atoms: C_1  and  C_2
REMARK    2  A    between atoms: C_2  and  N_3
REMARK    3  A    between atoms: N_6  and  C_9
REMARK    4  A    between atoms: C_9  and  C_10
REMARK    5  A    between atoms: C_10  and  C_11
REMARK    6  A    between atoms: C_11  and  N_12
REMARK    7  A    between atoms: C_13  and  C_27
REMARK    8  A    between atoms: N_17  and  C_20
REMARK    9  A    between atoms: C_23  and  C_26
REMARK   10  A    between atoms: C_27  and  C_28
REMARK   11  A    between atoms: N_30  and  C_31
REMARK                            x       y       z     vdW  Elec       q    Type
REMARK                         _______ _______ _______ _____ _____    ______ ____
ROOT
ATOM      1  N   UNL     1      -7.527  -2.653   3.615  0.00  0.00    -0.300 N 
ATOM      2  C   UNL     1      -8.198  -1.663   4.475  0.00  0.00    +0.171 C 
ATOM      3  C   UNL     1      -8.511  -2.442   5.737  0.00  0.00    +0.246 C 
ATOM      4  O   UNL     1      -9.067  -2.031   6.733  0.00  0.00    -0.273 OA
ATOM      5  N   UNL     1      -8.043  -3.688   5.522  0.00  0.00    -0.220 N 
ATOM      6  C   UNL     1      -7.487  -3.804   4.310  0.00  0.00    +0.147 C 
ATOM      7  S   UNL     1      -6.800  -5.253   3.713  0.00  0.00    -0.018 S 
ENDROOT
BRANCH   5   8
ATOM      8  C   UNL     1      -8.132  -4.734   6.450  0.00  0.00    +0.043 A 
ATOM      9  C   UNL     1      -7.579  -4.589   7.716  0.00  0.00    +0.024 A 
ATOM     10  C   UNL     1      -7.672  -5.620   8.631  0.00  0.00    +0.005 A 
ATOM     11  C   UNL     1      -8.306  -6.799   8.283  0.00  0.00    -0.050 A 
ATOM     12  C   UNL     1      -8.852  -6.948   7.022  0.00  0.00    +0.005 A 
ATOM     13  C   UNL     1      -8.767  -5.918   6.105  0.00  0.00    +0.024 A 
ATOM     14  C   UNL     1      -8.401  -7.924   9.282  0.00  0.00    +0.044 C 
ENDBRANCH   5   8
BRANCH   1  15
ATOM     15  C   UNL     1      -7.008  -2.429   2.263  0.00  0.00    +0.109 C 
BRANCH  15  16
ATOM     16  C   UNL     1      -5.579  -1.889   2.348  0.00  0.00    +0.034 C 
BRANCH  16  17
ATOM     17  C   UNL     1      -5.037  -1.655   0.936  0.00  0.00    +0.086 C 
BRANCH  17  21
ATOM     18  N   UNL     1      -1.556   0.685   0.438  0.00  0.00    +0.381 N 
ATOM     19  C   UNL     1      -2.193   0.672   1.762  0.00  0.00    -0.063 C 
ATOM     20  C   UNL     1      -3.643   0.202   1.623  0.00  0.00    +0.066 C 
ATOM     21  N   UNL     1      -3.665  -1.137   1.017  0.00  0.00    -0.306 NA
ATOM     22  C   UNL     1      -3.028  -1.123  -0.307  0.00  0.00    +0.066 C 
ATOM     23  C   UNL     1      -1.578  -0.653  -0.168  0.00  0.00    -0.063 C 
ATOM     24  H   UNL     1      -2.133   1.361  -0.210  0.00  0.00    -0.082 HD
BRANCH  18  26
ATOM     25  C   UNL     1      -0.219   2.680   0.918  0.00  0.00    -0.017 C 
ATOM     26  C   UNL     1      -0.184   1.204   0.520  0.00  0.00    -0.082 C 
ENDBRANCH  18  26
ENDBRANCH  17  21
ENDBRANCH  16  17
ENDBRANCH  15  16
ENDBRANCH   1  15
BRANCH   2  27
ATOM     27  C   UNL     1      -7.261  -0.493   4.783  0.00  0.00    +0.128 C 
BRANCH  27  28
ATOM     28  C   UNL     1      -8.021   0.578   5.521  0.00  0.00    +0.219 C 
ATOM     29  O   UNL     1      -9.183   0.401   5.820  0.00  0.00    -0.275 OA
ATOM     30  N   UNL     1      -7.409   1.733   5.849  0.00  0.00    -0.285 N 
ATOM     31  H   UNL     1      -6.334   1.862   5.653  0.00  0.00    +0.155 HD
BRANCH  30  32
ATOM     32  C   UNL     1      -8.142   2.770   6.439  0.00  0.00    +0.033 A 
ATOM     33  C   UNL     1      -7.837   4.092   6.145  0.00  0.00    +0.025 A 
ATOM     34  C   UNL     1      -8.564   5.113   6.725  0.00  0.00    +0.022 A 
ATOM     35  C   UNL     1      -9.589   4.819   7.607  0.00  0.00    +0.041 A 
ATOM     36  C   UNL     1      -9.892   3.502   7.906  0.00  0.00    +0.022 A 
ATOM     37  C   UNL     1      -9.171   2.478   7.325  0.00  0.00    +0.025 A 
ATOM     38 CL   UNL     1     -10.497   6.105   8.339  0.00  0.00    -0.084 Cl
ENDBRANCH  30  32
ENDBRANCH  27  28
ENDBRANCH   2  27
TORSDOF 9
