REMARK  Name = ZINC20568369
REMARK  7 active torsions:
REMARK  status: ('A' for Active; 'I' for Inactive)
REMARK    1  A    between atoms: C_1  and  C_2
REMARK    2  A    between atoms: C_7  and  C_9
REMARK    3  A    between atoms: C_7  and  C_10
REMARK    4  A    between atoms: N_11  and  C_13
REMARK    5  A    between atoms: C_13  and  N_14
REMARK    6  A    between atoms: N_22  and  N_23
REMARK    7  A    between atoms: C_24  and  C_26
REMARK                            x       y       z     vdW  Elec       q    Type
REMARK                         _______ _______ _______ _____ _____    ______ ____
ROOT
ATOM      1  N   UNL     1       1.335  -2.447  -3.369  0.00  0.00    -0.282 N 
ATOM      2  C   UNL     1       0.863  -2.575  -4.671  0.00  0.00    +0.044 A 
ATOM      3  C   UNL     1      -0.341  -3.055  -5.173  0.00  0.00    +0.025 A 
ATOM      4  C   UNL     1      -0.565  -3.076  -6.535  0.00  0.00    +0.017 A 
ATOM      5  C   UNL     1       0.403  -2.621  -7.416  0.00  0.00    +0.019 A 
ATOM      6  C   UNL     1       1.605  -2.140  -6.935  0.00  0.00    +0.027 A 
ATOM      7  C   UNL     1       1.839  -2.115  -5.565  0.00  0.00    +0.029 A 
ATOM      8  C   UNL     1       2.988  -1.675  -4.740  0.00  0.00    +0.153 C 
ATOM      9  N   UNL     1       4.125  -1.173  -5.157  0.00  0.00    -0.174 NA
ATOM     10  C   UNL     1       2.572  -1.921  -3.344  0.00  0.00    +0.270 C 
ATOM     11  O   UNL     1       3.232  -1.690  -2.349  0.00  0.00    -0.268 OA
ATOM     12 BR   UNL     1       0.078  -2.658  -9.279  0.00  0.00    -0.050 Br
ENDROOT
BRANCH   9  13
ATOM     13  N   UNL     1       5.111  -0.808  -4.232  0.00  0.00    -0.202 N 
ATOM     14  C   UNL     1       6.280  -0.291  -4.661  0.00  0.00    +0.263 C 
ATOM     15  O   UNL     1       6.478  -0.142  -5.851  0.00  0.00    -0.268 OA
ATOM     16  H   UNL     1       4.953  -0.927  -3.282  0.00  0.00    +0.178 HD
BRANCH  14  17
ATOM     17  C   UNL     1       7.322   0.095  -3.683  0.00  0.00    +0.041 A 
ATOM     18  C   UNL     1       7.117  -0.074  -2.310  0.00  0.00    +0.033 A 
ATOM     19  C   UNL     1       8.117   0.299  -1.433  0.00  0.00    +0.111 A 
ATOM     20  N   UNL     1       9.250   0.808  -1.875  0.00  0.00    -0.263 NA
ATOM     21  C   UNL     1       9.484   0.983  -3.160  0.00  0.00    +0.111 A 
ATOM     22  C   UNL     1       8.542   0.632  -4.107  0.00  0.00    +0.033 A 
ENDBRANCH  14  17
ENDBRANCH   9  13
BRANCH   1  23
ATOM     23  C   UNL     1       0.578  -2.831  -2.175  0.00  0.00    +0.039 C 
BRANCH  23  33
ATOM     24  C   UNL     1      -0.019   1.532   0.011  0.00  0.00    +0.009 C 
ATOM     25  C   UNL     1       0.002  -0.004   0.002  0.00  0.00    -0.048 C 
ATOM     26  C   UNL     1      -1.426  -0.615   0.004  0.00  0.00    -0.011 C 
ATOM     27  C   UNL     1      -1.101  -2.018  -0.581  0.00  0.00    -0.065 C 
ATOM     28  C   UNL     1      -0.397  -2.817   0.499  0.00  0.00    -0.009 C 
ATOM     29  C   UNL     1       0.663  -2.102   1.307  0.00  0.00    -0.036 C 
ATOM     30  C   UNL     1       0.727  -0.591   1.214  0.00  0.00    +0.011 C 
ATOM     31  C   UNL     1       0.412  -2.453   2.797  0.00  0.00    +0.011 C 
ATOM     32  C   UNL     1       2.047  -2.686   0.964  0.00  0.00    +0.011 C 
ATOM     33  N   UNL     1      -0.211  -1.695  -1.714  0.00  0.00    +0.393 N 
ATOM     34  C   UNL     1       0.647  -0.577  -1.281  0.00  0.00    -0.070 C 
ATOM     35  H   UNL     1      -0.789  -1.365  -2.490  0.00  0.00    -0.079 HD
ENDBRANCH  23  33
ENDBRANCH   1  23
TORSDOF 4
