REMARK  Name = ZINC24140381
REMARK  9 active torsions:
REMARK  status: ('A' for Active; 'I' for Inactive)
REMARK    1  A    between atoms: C_1  and  C_2
REMARK    2  A    between atoms: C_2  and  C_3
REMARK    3  A    between atoms: C_3  and  C_28
REMARK    4  A    between atoms: N_6  and  N_10
REMARK    5  A    between atoms: C_11  and  C_13
REMARK    6  A    between atoms: C_13  and  S_14
REMARK    7  A    between atoms: S_14  and  C_15
REMARK    8  A    between atoms: C_18  and  C_21
REMARK    9  A    between atoms: N_19  and  N_20
REMARK                            x       y       z     vdW  Elec       q    Type
REMARK                         _______ _______ _______ _____ _____    ______ ____
ROOT
ATOM      1  N   UNL     1      -2.170  -0.064   0.344  0.00  0.00    -0.223 N 
ATOM      2  C   UNL     1      -2.312  -0.764  -0.800  0.00  0.00    +0.240 C 
ATOM      3  O   UNL     1      -1.592  -0.529  -1.748  0.00  0.00    -0.273 OA
ATOM      4  H   UNL     1      -2.822  -0.278   1.203  0.00  0.00    +0.174 HD
ENDROOT
BRANCH   1   8
ATOM      5  C   UNL     1      -0.108   2.943   0.534  0.00  0.00    +0.139 C 
ATOM      6  C   UNL     1      -1.453   2.256   0.402  0.00  0.00    +0.268 C 
ATOM      7  O   UNL     1      -2.537   2.785   0.284  0.00  0.00    -0.271 OA
ATOM      8  N   UNL     1      -1.192   0.934   0.437  0.00  0.00    -0.137 N 
ATOM      9  C   UNL     1       0.118   0.693   0.572  0.00  0.00    +0.327 C 
ATOM     10  O   UNL     1       0.597  -0.422   0.628  0.00  0.00    -0.251 OA
ATOM     11  N   UNL     1       0.844   1.824   0.638  0.00  0.00    -0.280 N 
ATOM     12  H   UNL     1       1.920   2.025   0.747  0.00  0.00    +0.152 HD
BRANCH   5  13
ATOM     13  C   UNL     1      -0.067   3.792   1.779  0.00  0.00    -0.015 A 
ATOM     14  C   UNL     1      -0.445   5.120   1.722  0.00  0.00    +0.006 A 
ATOM     15  C   UNL     1      -0.411   5.898   2.865  0.00  0.00    +0.000 A 
ATOM     16  C   UNL     1       0.010   5.349   4.062  0.00  0.00    +0.000 A 
ATOM     17  C   UNL     1       0.393   4.022   4.117  0.00  0.00    +0.000 A 
ATOM     18  C   UNL     1       0.354   3.244   2.976  0.00  0.00    +0.006 A 
ENDBRANCH   5  13
BRANCH   5  20
ATOM     19  C   UNL     1       0.194   2.891  -1.946  0.00  0.00    +0.007 C 
ATOM     20  C   UNL     1       0.188   3.788  -0.706  0.00  0.00    +0.037 C 
ENDBRANCH   5  20
ENDBRANCH   1   8
BRANCH   2  21
ATOM     21  C   UNL     1      -3.364  -1.838  -0.901  0.00  0.00    +0.174 C 
BRANCH  21  22
ATOM     22  S   UNL     1      -3.305  -2.588  -2.547  0.00  0.00    -0.075 S 
BRANCH  22  23
ATOM     23  C   UNL     1      -4.600  -3.772  -2.390  0.00  0.00    +0.209 A 
ATOM     24  N   UNL     1      -5.342  -3.980  -1.325  0.00  0.00    -0.121 NA
ATOM     25  N   UNL     1      -6.193  -4.915  -1.556  0.00  0.00    -0.127 NA
ATOM     26  C   UNL     1      -6.041  -5.367  -2.779  0.00  0.00    +0.182 A 
ATOM     27  N   UNL     1      -5.016  -4.649  -3.351  0.00  0.00    -0.224 N 
BRANCH  26  28
ATOM     28  C   UNL     1      -6.825  -6.444  -3.420  0.00  0.00    +0.021 A 
ATOM     29  C   UNL     1      -6.347  -7.064  -4.577  0.00  0.00    +0.014 A 
ATOM     30  C   UNL     1      -7.080  -8.072  -5.168  0.00  0.00    +0.039 A 
ATOM     31  C   UNL     1      -8.292  -8.463  -4.623  0.00  0.00    +0.123 A 
ATOM     32  C   UNL     1      -8.773  -7.847  -3.478  0.00  0.00    +0.039 A 
ATOM     33  C   UNL     1      -8.047  -6.842  -2.876  0.00  0.00    +0.014 A 
ATOM     34  F   UNL     1      -9.008  -9.447  -5.210  0.00  0.00    -0.205 F 
ENDBRANCH  26  28
BRANCH  27  35
ATOM     35  N   UNL     1      -4.519  -4.786  -4.616  0.00  0.00    -0.295 N 
ATOM     36  H   UNL     1      -4.947  -5.536  -5.297  0.00  0.00    +0.163 HD
ATOM     37  H   UNL     1      -3.691  -4.145  -4.953  0.00  0.00    +0.163 HD
ENDBRANCH  27  35
ENDBRANCH  22  23
ENDBRANCH  21  22
ENDBRANCH   2  21
TORSDOF 8
