REMARK  Name = ZINC66566622
REMARK  8 active torsions:
REMARK  status: ('A' for Active; 'I' for Inactive)
REMARK    1  A    between atoms: C_1  and  C_2
REMARK    2  A    between atoms: C_8  and  C_10
REMARK    3  A    between atoms: C_10  and  C_12
REMARK    4  A    between atoms: C_10  and  N_13
REMARK    5  A    between atoms: N_16  and  C_19
REMARK    6  A    between atoms: C_19  and  C_20
REMARK    7  A    between atoms: N_22  and  C_23
REMARK    8  A    between atoms: C_28  and  C_31
REMARK                            x       y       z     vdW  Elec       q    Type
REMARK                         _______ _______ _______ _____ _____    ______ ____
ROOT
ATOM      1  N   UNL     1      -5.023  -3.879  -0.036  0.00  0.00    -0.289 NA
ATOM      2  C   UNL     1      -5.252  -2.917   1.051  0.00  0.00    +0.100 C 
ATOM      3  C   UNL     1      -6.669  -2.351   0.937  0.00  0.00    +0.100 C 
ATOM      4  N   UNL     1      -7.640  -3.452   1.000  0.00  0.00    -0.292 NA
ATOM      5  C   UNL     1      -7.411  -4.414  -0.087  0.00  0.00    +0.100 C 
ATOM      6  C   UNL     1      -5.994  -4.980   0.027  0.00  0.00    +0.100 C 
ENDROOT
BRANCH   1   7
ATOM      7  C   UNL     1      -3.646  -4.389  -0.006  0.00  0.00    +0.140 C 
ATOM      8  C   UNL     1      -3.505  -5.412   1.123  0.00  0.00    +0.034 C 
BRANCH   7  16
ATOM      9  C   UNL     1      -2.612  -7.413  -6.142  0.00  0.00    +0.089 C 
ATOM     10  C   UNL     1      -2.007  -6.865  -4.875  0.00  0.00    +0.136 A 
ATOM     11  C   UNL     1      -2.683  -6.314  -3.852  0.00  0.00    +0.091 A 
ATOM     12  C   UNL     1      -1.748  -5.930  -2.865  0.00  0.00    +0.168 A 
ATOM     13  N   UNL     1      -0.555  -6.248  -3.296  0.00  0.00    -0.063 NA
ATOM     14  O   UNL     1      -0.700  -6.848  -4.571  0.00  0.00    -0.358 OA
ATOM     15  N   UNL     1      -2.045  -5.321  -1.645  0.00  0.00    -0.266 N 
ATOM     16  C   UNL     1      -3.325  -5.047  -1.323  0.00  0.00    +0.235 C 
ATOM     17  O   UNL     1      -4.218  -5.331  -2.092  0.00  0.00    -0.274 OA
ATOM     18  H   UNL     1      -1.331  -5.094  -1.030  0.00  0.00    +0.156 HD
ENDBRANCH   7  16
ENDBRANCH   1   7
BRANCH   4  19
ATOM     19  C   UNL     1      -9.018  -2.942   0.970  0.00  0.00    +0.180 C 
BRANCH  19  20
ATOM     20  C   UNL     1      -9.975  -4.063   1.280  0.00  0.00    +0.227 C 
ATOM     21  O   UNL     1      -9.552  -5.178   1.505  0.00  0.00    -0.274 OA
ATOM     22  N   UNL     1     -11.302  -3.828   1.309  0.00  0.00    -0.311 N 
ATOM     23  H   UNL     1     -11.640  -2.937   1.129  0.00  0.00    +0.149 HD
BRANCH  22  24
ATOM     24  C   UNL     1     -12.233  -4.918   1.611  0.00  0.00    +0.073 C 
ATOM     25  C   UNL     1     -12.375  -5.062   3.127  0.00  0.00    +0.022 C 
ATOM     26  C   UNL     1     -12.911  -3.756   3.716  0.00  0.00    +0.002 C 
ATOM     27  C   UNL     1     -14.277  -3.443   3.104  0.00  0.00    +0.003 C 
ATOM     28  C   UNL     1     -14.136  -3.299   1.587  0.00  0.00    -0.012 C 
ATOM     29  C   UNL     1     -13.600  -4.605   0.999  0.00  0.00    +0.025 C 
ATOM     30  C   UNL     1     -15.503  -2.987   0.975  0.00  0.00    +0.007 C 
ENDBRANCH  22  24
ENDBRANCH  19  20
ENDBRANCH   4  19
TORSDOF 5
