REMARK  Name = ZINC64771975
REMARK  9 active torsions:
REMARK  status: ('A' for Active; 'I' for Inactive)
REMARK    1  A    between atoms: C_1  and  C_2
REMARK    2  A    between atoms: C_7  and  C_12
REMARK    3  A    between atoms: C_12  and  N_13
REMARK    4  A    between atoms: C_14  and  C_16
REMARK    5  A    between atoms: N_21  and  S_23
REMARK    6  A    between atoms: S_23  and  C_26
REMARK    7  A    between atoms: C_28  and  C_32
REMARK    8  A    between atoms: C_30  and  C_31
REMARK    9  A    between atoms: C_34  and  C_37
REMARK                            x       y       z     vdW  Elec       q    Type
REMARK                         _______ _______ _______ _____ _____    ______ ____
ROOT
ATOM      1  C   UNL     1      -4.896  -3.593   1.847  0.00  0.00    +0.091 C 
ATOM      2  C   UNL     1      -5.111  -2.389   2.767  0.00  0.00    +0.015 C 
ATOM      3  C   UNL     1      -6.454  -1.732   2.445  0.00  0.00    +0.018 C 
ATOM      4  C   UNL     1      -7.583  -2.737   2.693  0.00  0.00    +0.109 C 
ATOM      5  N   UNL     1      -7.308  -3.957   1.922  0.00  0.00    -0.176 NA
ATOM      6  C   UNL     1      -6.007  -4.620   2.088  0.00  0.00    +0.122 C 
ENDROOT
BRANCH   1   8
ATOM      7  N   UNL     1      -2.429  -3.499   2.001  0.00  0.00    -0.311 N 
ATOM      8  C   UNL     1      -3.558  -4.221   2.143  0.00  0.00    +0.218 C 
ATOM      9  O   UNL     1      -3.498  -5.375   2.509  0.00  0.00    -0.275 OA
ATOM     10  H   UNL     1      -2.477  -2.575   1.708  0.00  0.00    +0.149 HD
BRANCH   7  11
ATOM     11  C   UNL     1      -1.129  -4.109   2.289  0.00  0.00    +0.150 C 
BRANCH  11  18
ATOM     12  C   UNL     1      -0.977   2.861   1.610  0.00  0.00    +0.044 C 
ATOM     13  C   UNL     1      -0.733   1.401   1.327  0.00  0.00    -0.048 A 
ATOM     14  C   UNL     1      -0.632   0.981  -0.011  0.00  0.00    +0.005 A 
ATOM     15  C   UNL     1      -0.414  -0.304  -0.355  0.00  0.00    +0.027 A 
ATOM     16  C   UNL     1      -0.274  -1.322   0.696  0.00  0.00    +0.060 A 
ATOM     17  N   UNL     1      -0.064  -2.606   0.662  0.00  0.00    -0.362 N 
ATOM     18  C   UNL     1      -0.020  -3.082   2.050  0.00  0.00    +0.191 C 
ATOM     19  N   UNL     1      -0.231  -1.903   2.899  0.00  0.00    -0.362 N 
ATOM     20  C   UNL     1      -0.380  -0.877   2.112  0.00  0.00    +0.060 A 
ATOM     21  C   UNL     1      -0.613   0.552   2.366  0.00  0.00    +0.030 A 
ATOM     22  H   UNL     1       0.043  -3.149  -0.135  0.00  0.00    +0.162 HD
ATOM     23  H   UNL     1      -0.256  -1.891   3.869  0.00  0.00    +0.162 HD
ENDBRANCH  11  18
ENDBRANCH   7  11
ENDBRANCH   1   8
BRANCH   5  24
ATOM     24  S   UNL     1      -8.442  -4.574   0.885  0.00  0.00    +0.062 S 
ATOM     25  O   UNL     1      -9.210  -3.471   0.421  0.00  0.00    -0.153 OA
ATOM     26  O   UNL     1      -7.752  -5.447   0.001  0.00  0.00    -0.153 OA
BRANCH  24  27
ATOM     27  C   UNL     1      -9.530  -5.578   1.840  0.00  0.00    +0.116 A 
ATOM     28  C   UNL     1     -10.858  -5.242   1.967  0.00  0.00    +0.048 A 
ATOM     29  C   UNL     1     -11.673  -6.047   2.717  0.00  0.00    +0.062 A 
ATOM     30  S   UNL     1     -10.539  -7.315   3.260  0.00  0.00    -0.088 S 
ATOM     31  C   UNL     1      -9.069  -6.699   2.455  0.00  0.00    +0.014 A 
ATOM     32  C   UNL     1      -7.675  -7.272   2.460  0.00  0.00    +0.053 C 
BRANCH  29  33
ATOM     33  C   UNL     1     -13.115  -5.904   3.004  0.00  0.00    +0.209 A 
ATOM     34  N   UNL     1     -13.853  -6.739   3.760  0.00  0.00    -0.191 NA
ATOM     35  C   UNL     1     -15.086  -6.324   3.809  0.00  0.00    +0.225 A 
ATOM     36  O   UNL     1     -15.188  -5.203   3.083  0.00  0.00    -0.338 OA
ATOM     37  N   UNL     1     -13.891  -4.939   2.568  0.00  0.00    -0.056 NA
ATOM     38  C   UNL     1     -16.211  -6.993   4.556  0.00  0.00    +0.112 C 
ENDBRANCH  29  33
ENDBRANCH  24  27
ENDBRANCH   5  24
TORSDOF 6
