REMARK  Name = ZINC10383875
REMARK  9 active torsions:
REMARK  status: ('A' for Active; 'I' for Inactive)
REMARK    1  A    between atoms: C_1  and  C_2
REMARK    2  A    between atoms: C_5  and  N_8
REMARK    3  A    between atoms: N_8  and  C_9
REMARK    4  A    between atoms: C_12  and  C_29
REMARK    5  A    between atoms: C_18  and  C_21
REMARK    6  A    between atoms: C_22  and  C_24
REMARK    7  A    between atoms: C_30  and  C_32
REMARK    8  A    between atoms: C_32  and  N_75
REMARK    9  A    between atoms: C_35  and  C_38
REMARK                            x       y       z     vdW  Elec       q    Type
REMARK                         _______ _______ _______ _____ _____    ______ ____
ROOT
ATOM      1  N   UNL     1       2.872   0.083   1.322  0.00  0.00    -0.265 N 
ATOM      2  C   UNL     1       2.931   1.405   1.068  0.00  0.00    +0.204 C 
ATOM      3  O   UNL     1       3.583   2.132   1.787  0.00  0.00    -0.277 OA
ENDROOT
BRANCH   1   4
ATOM      4  C   UNL     1       2.175  -0.811   0.393  0.00  0.00    +0.115 C 
ATOM      5  C   UNL     1       0.939  -1.389   1.081  0.00  0.00    +0.050 C 
ATOM      6  C   UNL     1       1.392  -2.351   2.188  0.00  0.00    +0.081 C 
ATOM      7  N   UNL     1       2.113  -3.461   1.550  0.00  0.00    -0.262 N 
ATOM      8  C   UNL     1       3.051  -3.173   0.551  0.00  0.00    +0.042 A 
ATOM      9  C   UNL     1       3.108  -1.915  -0.029  0.00  0.00    -0.005 A 
ATOM     10  C   UNL     1       4.043  -1.660  -1.018  0.00  0.00    +0.010 A 
ATOM     11  C   UNL     1       4.915  -2.651  -1.425  0.00  0.00    -0.050 A 
ATOM     12  C   UNL     1       4.861  -3.906  -0.846  0.00  0.00    +0.005 A 
ATOM     13  C   UNL     1       3.931  -4.168   0.141  0.00  0.00    +0.024 A 
ATOM     14  C   UNL     1       5.928  -2.365  -2.504  0.00  0.00    +0.044 C 
ATOM     15  C   UNL     1       1.876  -4.735   1.921  0.00  0.00    +0.286 C 
ATOM     16  O   UNL     1       1.149  -4.968   2.868  0.00  0.00    -0.266 OA
ATOM     17  C   UNL     1       0.172  -2.889   2.938  0.00  0.00    +0.028 C 
BRANCH  15  18
ATOM     18  C   UNL     1       2.494  -5.840   1.182  0.00  0.00    +0.190 A 
ATOM     19  C   UNL     1       3.304  -6.805   1.710  0.00  0.00    +0.054 A 
ATOM     20  C   UNL     1       3.662  -7.655   0.652  0.00  0.00    +0.042 A 
ATOM     21  C   UNL     1       3.070  -7.173  -0.463  0.00  0.00    +0.196 A 
ATOM     22  O   UNL     1       2.367  -6.079  -0.140  0.00  0.00    -0.458 OA
ENDBRANCH  15  18
ENDBRANCH   1   4
BRANCH   1  27
ATOM     23  C   UNL     1       5.322  -2.023   5.986  0.00  0.00    +0.044 C 
ATOM     24  C   UNL     1       4.671  -1.464   4.747  0.00  0.00    -0.050 A 
ATOM     25  C   UNL     1       3.561  -0.646   4.859  0.00  0.00    +0.005 A 
ATOM     26  C   UNL     1       2.962  -0.132   3.726  0.00  0.00    +0.024 A 
ATOM     27  C   UNL     1       3.476  -0.437   2.472  0.00  0.00    +0.037 A 
ATOM     28  C   UNL     1       4.590  -1.258   2.362  0.00  0.00    +0.024 A 
ATOM     29  C   UNL     1       5.184  -1.769   3.500  0.00  0.00    +0.005 A 
ENDBRANCH   1  27
BRANCH   2  30
ATOM     30  C   UNL     1       2.186   1.980  -0.109  0.00  0.00    +0.019 C 
BRANCH  30  36
ATOM     31  C   UNL     1       3.995   3.562  -0.404  0.00  0.00    -0.077 C 
ATOM     32  C   UNL     1       4.340   5.053  -0.422  0.00  0.00    -0.006 C 
ATOM     33  C   UNL     1       3.620   5.724  -1.595  0.00  0.00    +0.071 C 
ATOM     34  C   UNL     1       2.112   5.496  -1.456  0.00  0.00    -0.006 C 
ATOM     35  C   UNL     1       1.832   3.992  -1.408  0.00  0.00    -0.077 C 
ATOM     36  N   UNL     1       2.533   3.410  -0.244  0.00  0.00    +0.385 N 
ATOM     37  H   UNL     1       2.238   3.906   0.605  0.00  0.00    -0.081 HD
BRANCH  33  38
ATOM     38  C   UNL     1       3.909   7.204  -1.584  0.00  0.00    +0.213 C 
ATOM     39  O   UNL     1       2.998   7.998  -1.476  0.00  0.00    -0.276 OA
ATOM     40  N   UNL     1       5.178   7.644  -1.694  0.00  0.00    -0.329 N 
ATOM     41  H   UNL     1       5.905   7.008  -1.781  0.00  0.00    +0.145 HD
ATOM     42  H   UNL     1       5.363   8.596  -1.687  0.00  0.00    +0.145 HD
ENDBRANCH  33  38
ENDBRANCH  30  36
ENDBRANCH   2  30
TORSDOF 6
