REMARK  Name = ZINC58456678
REMARK  5 active torsions:
REMARK  status: ('A' for Active; 'I' for Inactive)
REMARK    1  A    between atoms: C_12  and  C_14
REMARK    2  A    between atoms: C_14  and  C_15
REMARK    3  A    between atoms: C_15  and  C_16
REMARK    4  A    between atoms: C_16  and  C_17
REMARK    5  A    between atoms: C_17  and  C_18
REMARK                            x       y       z     vdW  Elec       q    Type
REMARK                         _______ _______ _______ _____ _____    ______ ____
ROOT
ATOM      1  C   UNL     1       2.282   4.136  -0.696  0.00  0.00    +0.096 C 
ENDROOT
BRANCH   1  13
ATOM      2  C   UNL     1       7.187   1.472   0.162  0.00  0.00    +0.022 A 
ATOM      3  C   UNL     1       5.986   2.108  -0.081  0.00  0.00    +0.025 A 
ATOM      4  C   UNL     1       4.788   1.470   0.216  0.00  0.00    +0.040 A 
ATOM      5  C   UNL     1       4.796   0.194   0.755  0.00  0.00    -0.025 A 
ATOM      6  C   UNL     1       6.004  -0.438   0.998  0.00  0.00    +0.025 A 
ATOM      7  C   UNL     1       7.195   0.198   0.703  0.00  0.00    +0.041 A 
ATOM      8 CL   UNL     1       8.705  -0.602   1.011  0.00  0.00    -0.084 Cl
ATOM      9  C   UNL     1       3.517  -0.532   1.080  0.00  0.00    +0.038 C 
ATOM     10  C   UNL     1       2.362   0.459   1.228  0.00  0.00    +0.024 C 
ATOM     11  C   UNL     1       2.327   1.369  -0.006  0.00  0.00    +0.114 C 
ATOM     12  N   UNL     1       3.579   2.137  -0.034  0.00  0.00    -0.271 N 
ATOM     13  C   UNL     1       3.567   3.459  -0.294  0.00  0.00    +0.220 C 
ATOM     14  O   UNL     1       4.590   4.104  -0.206  0.00  0.00    -0.275 OA
ENDBRANCH   1  13
BRANCH   1  15
ATOM     15  C   UNL     1       2.567   5.594  -1.063  0.00  0.00    +0.009 C 
BRANCH  15  16
ATOM     16  C   UNL     1       1.262   6.281  -1.471  0.00  0.00    +0.002 C 
BRANCH  16  17
ATOM     17  C   UNL     1       1.547   7.739  -1.838  0.00  0.00    +0.016 C 
BRANCH  17  18
ATOM     18  C   UNL     1       0.242   8.426  -2.246  0.00  0.00    +0.069 C 
ATOM     19  C   UNL     1       0.481   9.914  -2.584  0.00  0.00    +0.108 C 
ATOM     20  C   UNL     1      -0.315  10.405  -3.796  0.00  0.00    +0.105 C 
ATOM     21  C   UNL     1      -1.192   9.313  -4.447  0.00  0.00    +0.093 C 
ATOM     22  S   UNL     1      -0.371   7.779  -3.862  0.00  0.00    -0.154 S 
ATOM     23  N   UNL     1       0.718  10.817  -4.759  0.00  0.00    -0.294 N 
ATOM     24  C   UNL     1       1.927  10.609  -4.218  0.00  0.00    +0.300 C 
ATOM     25  O   UNL     1       2.965  10.863  -4.797  0.00  0.00    -0.253 OA
ATOM     26  N   UNL     1       1.883  10.095  -2.991  0.00  0.00    -0.294 N 
ATOM     27  H   UNL     1       0.552  11.181  -5.643  0.00  0.00    +0.151 HD
ATOM     28  H   UNL     1       2.659   9.877  -2.451  0.00  0.00    +0.151 HD
ENDBRANCH  17  18
ENDBRANCH  16  17
ENDBRANCH  15  16
ENDBRANCH   1  15
TORSDOF 5
