REMARK  Name = ZINC04375239
REMARK  9 active torsions:
REMARK  status: ('A' for Active; 'I' for Inactive)
REMARK    1  A    between atoms: C_1  and  C_2
REMARK    2  A    between atoms: C_5  and  C_29
REMARK    3  A    between atoms: C_6  and  N_8
REMARK    4  A    between atoms: C_9  and  C_11
REMARK    5  A    between atoms: N_13  and  C_14
REMARK    6  A    between atoms: C_14  and  C_15
REMARK    7  A    between atoms: C_15  and  C_16
REMARK    8  A    between atoms: C_17  and  C_28
REMARK    9  A    between atoms: C_19  and  C_21
REMARK                            x       y       z     vdW  Elec       q    Type
REMARK                         _______ _______ _______ _____ _____    ______ ____
ROOT
ATOM      1  C   UNL     1       1.844   6.090   2.627  0.00  0.00    +0.299 C 
ATOM      2  O   UNL     1       1.766   5.484   3.676  0.00  0.00    -0.265 OA
ATOM      3  N   UNL     1       1.730   5.430   1.458  0.00  0.00    -0.307 N 
ATOM      4  H   UNL     1       1.792   5.914   0.620  0.00  0.00    +0.149 HD
ENDROOT
BRANCH   1   6
ATOM      5  N   UNL     1       2.180   8.227   3.803  0.00  0.00    -0.278 N 
ATOM      6  C   UNL     1       2.066   7.567   2.633  0.00  0.00    +0.303 C 
ATOM      7  O   UNL     1       2.144   8.172   1.584  0.00  0.00    -0.265 OA
ATOM      8  H   UNL     1       2.038   7.758   4.640  0.00  0.00    +0.155 HD
BRANCH   5  14
ATOM      9  C   UNL     1       4.251  12.094   1.586  0.00  0.00    +0.044 C 
ATOM     10  C   UNL     1       3.506  11.488   2.748  0.00  0.00    -0.049 A 
ATOM     11  C   UNL     1       3.142  12.278   3.822  0.00  0.00    +0.004 A 
ATOM     12  C   UNL     1       2.459  11.726   4.890  0.00  0.00    +0.005 A 
ATOM     13  C   UNL     1       2.138  10.383   4.887  0.00  0.00    -0.029 A 
ATOM     14  C   UNL     1       2.502   9.586   3.809  0.00  0.00    +0.037 A 
ATOM     15  C   UNL     1       3.193  10.143   2.740  0.00  0.00    +0.027 A 
ATOM     16  C   UNL     1       1.393   9.782   6.051  0.00  0.00    +0.045 C 
ENDBRANCH   5  14
ENDBRANCH   1   6
BRANCH   3  17
ATOM     17  C   UNL     1       1.512   3.981   1.452  0.00  0.00    +0.110 C 
BRANCH  17  18
ATOM     18  C   UNL     1       1.419   3.485   0.008  0.00  0.00    +0.063 C 
BRANCH  18  19
ATOM     19  C   UNL     1       1.195   1.994   0.003  0.00  0.00    +0.014 A 
ATOM     20  C   UNL     1       0.031   1.292   0.012  0.00  0.00    +0.049 A 
ATOM     21  N   UNL     1       0.059  -0.020   0.005  0.00  0.00    -0.244 NA
ATOM     22  C   UNL     1       1.207  -0.684  -0.012  0.00  0.00    +0.109 A 
ATOM     23  S   UNL     1       2.386   0.660  -0.018  0.00  0.00    -0.072 S 
ATOM     24  C   UNL     1      -1.289   2.018   0.025  0.00  0.00    +0.066 C 
BRANCH  22  25
ATOM     25  C   UNL     1       1.447  -2.143  -0.023  0.00  0.00    +0.007 A 
ATOM     26  C   UNL     1       2.752  -2.637  -0.047  0.00  0.00    +0.013 A 
ATOM     27  C   UNL     1       2.971  -3.999  -0.053  0.00  0.00    +0.039 A 
ATOM     28  C   UNL     1       1.897  -4.876  -0.045  0.00  0.00    +0.123 A 
ATOM     29  C   UNL     1       0.600  -4.390  -0.027  0.00  0.00    +0.039 A 
ATOM     30  C   UNL     1       0.370  -3.030  -0.016  0.00  0.00    +0.013 A 
ATOM     31  F   UNL     1       2.117  -6.209  -0.056  0.00  0.00    -0.205 F 
ENDBRANCH  22  25
ENDBRANCH  18  19
ENDBRANCH  17  18
ENDBRANCH   3  17
TORSDOF 6
