REMARK  Name = ZINC36635493
REMARK  7 active torsions:
REMARK  status: ('A' for Active; 'I' for Inactive)
REMARK    1  A    between atoms: C_1  and  C_2
REMARK    2  A    between atoms: C_6  and  N_9
REMARK    3  A    between atoms: C_7  and  C_8
REMARK    4  A    between atoms: N_9  and  C_10
REMARK    5  A    between atoms: N_15  and  C_18
REMARK    6  A    between atoms: C_19  and  C_25
REMARK    7  A    between atoms: C_23  and  C_24
REMARK                            x       y       z     vdW  Elec       q    Type
REMARK                         _______ _______ _______ _____ _____    ______ ____
ROOT
ATOM      1  C   UNL     1       0.071  -4.261   2.379  0.00  0.00    +0.166 C 
ATOM      2  C   UNL     1       0.645  -4.806   3.703  0.00  0.00    +0.128 C 
ATOM      3  C   UNL     1      -0.500  -5.608   4.283  0.00  0.00    +0.228 C 
ATOM      4  O   UNL     1      -0.472  -6.213   5.333  0.00  0.00    -0.275 OA
ATOM      5  N   UNL     1      -1.548  -5.543   3.452  0.00  0.00    -0.208 N 
ATOM      6  C   UNL     1      -1.338  -4.812   2.346  0.00  0.00    +0.247 C 
ATOM      7  O   UNL     1      -2.146  -4.622   1.463  0.00  0.00    -0.273 OA
ENDROOT
BRANCH   5   8
ATOM      8  C   UNL     1      -2.765  -6.188   3.715  0.00  0.00    +0.050 A 
ATOM      9  C   UNL     1      -2.972  -7.489   3.276  0.00  0.00    -0.028 A 
ATOM     10  C   UNL     1      -4.172  -8.121   3.537  0.00  0.00    +0.005 A 
ATOM     11  C   UNL     1      -5.167  -7.460   4.233  0.00  0.00    +0.001 A 
ATOM     12  C   UNL     1      -4.963  -6.165   4.671  0.00  0.00    +0.005 A 
ATOM     13  C   UNL     1      -3.763  -5.529   4.419  0.00  0.00    -0.028 A 
ATOM     14  C   UNL     1      -3.540  -4.119   4.903  0.00  0.00    +0.046 C 
ATOM     15  C   UNL     1      -1.888  -8.210   2.516  0.00  0.00    +0.046 C 
ENDBRANCH   5   8
BRANCH   1  16
ATOM     16  N   UNL     1       0.051  -2.796   2.390  0.00  0.00    -0.332 N 
ATOM     17  H   UNL     1       0.049  -2.318   3.234  0.00  0.00    +0.147 HD
BRANCH  16  23
ATOM     18  C   UNL     1      -0.018   1.503   0.010  0.00  0.00    +0.044 C 
ATOM     19  C   UNL     1       0.002  -0.004   0.002  0.00  0.00    -0.046 A 
ATOM     20  C   UNL     1       0.006  -0.688  -1.200  0.00  0.00    +0.004 A 
ATOM     21  C   UNL     1       0.024  -2.071  -1.212  0.00  0.00    +0.002 A 
ATOM     22  C   UNL     1       0.039  -2.773  -0.023  0.00  0.00    +0.023 A 
ATOM     23  C   UNL     1       0.036  -2.089   1.186  0.00  0.00    +0.031 A 
ATOM     24  C   UNL     1       0.023  -0.700   1.194  0.00  0.00    -0.027 A 
ATOM     25  C   UNL     1       0.025   0.046   2.504  0.00  0.00    +0.046 C 
ENDBRANCH  16  23
ENDBRANCH   1  16
TORSDOF 3
