REMARK  Name = ZINC45960928
REMARK  4 active torsions:
REMARK  status: ('A' for Active; 'I' for Inactive)
REMARK    1  A    between atoms: C_8  and  N_12
REMARK    2  A    between atoms: C_9  and  O_10
REMARK    3  A    between atoms: C_13  and  C_15
REMARK    4  A    between atoms: N_22  and  C_23
REMARK                            x       y       z     vdW  Elec       q    Type
REMARK                         _______ _______ _______ _____ _____    ______ ____
ROOT
ATOM      1  C   UNL     1      -1.164   0.753  -0.508  0.00  0.00    +0.001 A 
ATOM      2  C   UNL     1      -0.244   1.729  -0.158  0.00  0.00    +0.004 A 
ATOM      3  C   UNL     1       1.049   1.389   0.181  0.00  0.00    +0.047 A 
ATOM      4  C   UNL     1       1.442   0.056   0.175  0.00  0.00    +0.141 A 
ATOM      5  C   UNL     1       0.507  -0.928  -0.176  0.00  0.00    +0.042 A 
ATOM      6  C   UNL     1      -0.794  -0.576  -0.520  0.00  0.00    +0.013 A 
ATOM      7  C   UNL     1       0.947  -2.344  -0.161  0.00  0.00    +0.075 A 
ATOM      8  C   UNL     1       2.237  -2.612   0.494  0.00  0.00    +0.139 A 
ATOM      9  C   UNL     1       3.037  -1.555   0.790  0.00  0.00    +0.309 A 
ATOM     10  O   UNL     1       2.705  -0.290   0.497  0.00  0.00    -0.424 OA
ATOM     11  N   UNL     1       0.226  -3.305  -0.701  0.00  0.00    -0.380 N 
ATOM     12  H   UNL     1       0.349  -4.223  -0.415  0.00  0.00    +0.160 HD
ENDROOT
BRANCH  11  13
ATOM     13  C   UNL     1      -0.764  -2.986  -1.733  0.00  0.00    +0.079 C 
ATOM     14  C   UNL     1      -2.182  -3.323  -1.228  0.00  0.00    +0.024 C 
ATOM     15  C   UNL     1      -2.910  -3.871  -2.481  0.00  0.00    +0.002 C 
ATOM     16  C   UNL     1      -1.803  -4.690  -3.189  0.00  0.00    +0.002 C 
ATOM     17  C   UNL     1      -0.523  -3.855  -2.980  0.00  0.00    +0.024 C 
ENDBRANCH  11  13
BRANCH   8  18
ATOM     18  N   UNL     1       2.632  -3.927   0.805  0.00  0.00    -0.274 N 
ATOM     19  C   UNL     1       1.877  -4.680   1.629  0.00  0.00    +0.249 C 
ATOM     20  O   UNL     1       0.812  -4.255   2.035  0.00  0.00    -0.270 OA
ATOM     21  H   UNL     1       3.447  -4.291   0.425  0.00  0.00    +0.155 HD
BRANCH  19  22
ATOM     22  C   UNL     1       2.344  -6.021   2.039  0.00  0.00    +0.040 A 
ATOM     23  C   UNL     1       3.568  -6.508   1.579  0.00  0.00    +0.013 A 
ATOM     24  C   UNL     1       3.999  -7.761   1.966  0.00  0.00    +0.004 A 
ATOM     25  C   UNL     1       3.221  -8.535   2.808  0.00  0.00    +0.038 A 
ATOM     26  C   UNL     1       2.004  -8.058   3.268  0.00  0.00    +0.124 A 
ATOM     27  C   UNL     1       1.564  -6.803   2.893  0.00  0.00    +0.051 A 
ATOM     28  F   UNL     1       1.249  -8.820   4.090  0.00  0.00    -0.205 F 
ENDBRANCH  19  22
ENDBRANCH   8  18
BRANCH   9  29
ATOM     29  O   UNL     1       4.219  -1.789   1.406  0.00  0.00    -0.479 OA
ATOM     30  H   UNL     1       4.734  -0.990   1.585  0.00  0.00    +0.295 HD
ENDBRANCH   9  29
TORSDOF 4
