REMARK  Name = ZINC23416668
REMARK  10 active torsions:
REMARK  status: ('A' for Active; 'I' for Inactive)
REMARK    1  A    between atoms: C_1  and  C_2
REMARK    2  A    between atoms: C_4  and  N_11
REMARK    3  A    between atoms: C_5  and  O_9
REMARK    4  A    between atoms: O_9  and  C_10
REMARK    5  A    between atoms: N_11  and  C_12
REMARK    6  A    between atoms: C_12  and  C_14
REMARK    7  A    between atoms: C_12  and  C_15
REMARK    8  A    between atoms: N_17  and  C_18
REMARK    9  A    between atoms: C_18  and  C_19
REMARK   10  A    between atoms: N_21  and  C_22
REMARK                            x       y       z     vdW  Elec       q    Type
REMARK                         _______ _______ _______ _____ _____    ______ ____
ROOT
ATOM      1  C   UNL     1       3.895   7.507   0.427  0.00  0.00    +0.233 C 
ATOM      2  O   UNL     1       2.962   8.281   0.459  0.00  0.00    -0.274 OA
ATOM      3  N   UNL     1       3.669   6.183   0.312  0.00  0.00    -0.305 N 
ATOM      4  H   UNL     1       4.516   5.481   0.283  0.00  0.00    +0.149 HD
ENDROOT
BRANCH   1   5
ATOM      5  C   UNL     1       5.308   8.025   0.516  0.00  0.00    +0.154 C 
ATOM      6  C   UNL     1       6.078   7.627  -0.745  0.00  0.00    +0.038 C 
BRANCH   5   7
ATOM      7  N   UNL     1       5.285   9.485   0.634  0.00  0.00    -0.330 N 
ATOM      8  H   UNL     1       4.428  10.055   0.248  0.00  0.00    +0.147 HD
BRANCH   7  12
ATOM      9  C   UNL     1       9.669   9.321   2.854  0.00  0.00    +0.045 C 
ATOM     10  C   UNL     1       8.494  10.101   2.324  0.00  0.00    -0.030 A 
ATOM     11  C   UNL     1       7.435   9.438   1.732  0.00  0.00    +0.031 A 
ATOM     12  C   UNL     1       6.356  10.155   1.239  0.00  0.00    +0.070 A 
ATOM     13  C   UNL     1       6.336  11.544   1.352  0.00  0.00    +0.142 A 
ATOM     14  C   UNL     1       7.397  12.202   1.951  0.00  0.00    +0.067 A 
ATOM     15  C   UNL     1       8.474  11.480   2.436  0.00  0.00    +0.047 A 
ATOM     16 CL   UNL     1       9.804  12.307   3.186  0.00  0.00    -0.083 Cl
BRANCH  13  17
ATOM     17  O   UNL     1       5.277  12.252   0.875  0.00  0.00    -0.493 OA
ATOM     18  C   UNL     1       5.326  13.672   1.025  0.00  0.00    +0.277 C 
ENDBRANCH  13  17
ENDBRANCH   7  12
ENDBRANCH   5   7
ENDBRANCH   1   5
BRANCH   3  19
ATOM     19  C   UNL     1       2.296   5.679   0.225  0.00  0.00    +0.200 C 
BRANCH  19  20
ATOM     20  C   UNL     1       2.319   4.177   0.104  0.00  0.00    +0.234 C 
ATOM     21  O   UNL     1       3.378   3.586   0.091  0.00  0.00    -0.274 OA
ATOM     22  N   UNL     1       1.163   3.491   0.009  0.00  0.00    -0.282 N 
ATOM     23  H   UNL     1       0.208   4.031  -0.071  0.00  0.00    +0.155 HD
BRANCH  22  24
ATOM     24  C   UNL     1       1.178   2.090   0.013  0.00  0.00    +0.072 A 
ATOM     25  C   UNL     1       2.230   1.407   0.608  0.00  0.00    +0.029 A 
ATOM     26  C   UNL     1       2.244   0.026   0.611  0.00  0.00    +0.043 A 
ATOM     27  C   UNL     1       1.210  -0.680   0.022  0.00  0.00    +0.161 A 
ATOM     28  C   UNL     1       0.156  -0.003  -0.574  0.00  0.00    +0.195 A 
ATOM     29  C   UNL     1       0.139   1.381  -0.579  0.00  0.00    +0.182 A 
ATOM     30  F   UNL     1      -0.884   2.043  -1.163  0.00  0.00    -0.200 F 
ATOM     31  F   UNL     1      -0.852  -0.694  -1.149  0.00  0.00    -0.199 F 
ATOM     32  F   UNL     1       1.226  -2.031   0.026  0.00  0.00    -0.202 F 
ENDBRANCH  22  24
ENDBRANCH  19  20
ENDBRANCH   3  19
TORSDOF 7
