REMARK  Name = ZINC26991394
REMARK  6 active torsions:
REMARK  status: ('A' for Active; 'I' for Inactive)
REMARK    1  A    between atoms: C_1  and  C_2
REMARK    2  A    between atoms: C_4  and  C_8
REMARK    3  A    between atoms: C_5  and  C_7
REMARK    4  A    between atoms: N_10  and  N_11
REMARK    5  A    between atoms: C_12  and  C_14
REMARK    6  A    between atoms: C_20  and  C_22
REMARK                            x       y       z     vdW  Elec       q    Type
REMARK                         _______ _______ _______ _____ _____    ______ ____
ROOT
ATOM      1  N   UNL     1       3.461   4.804  -0.020  0.00  0.00    -0.234 N 
ATOM      2  C   UNL     1       4.781   5.075  -0.036  0.00  0.00    +0.232 C 
ATOM      3  O   UNL     1       5.586   4.169  -0.061  0.00  0.00    -0.274 OA
ATOM      4  H   UNL     1       2.730   5.627   0.002  0.00  0.00    +0.173 HD
ENDROOT
BRANCH   2   5
ATOM      5  C   UNL     1       5.256   6.505  -0.025  0.00  0.00    +0.079 C 
ATOM      6  C   UNL     1       4.712   7.234  -1.256  0.00  0.00    +0.032 C 
ATOM      7  C   UNL     1       5.169   8.696  -1.222  0.00  0.00    +0.108 C 
ATOM      8  N   UNL     1       6.633   8.731  -1.098  0.00  0.00    -0.302 N 
ATOM      9  C   UNL     1       7.266   7.988  -0.000  0.00  0.00    +0.108 C 
ATOM     10  C   UNL     1       6.786   6.534  -0.047  0.00  0.00    +0.032 C 
ATOM     11  C   UNL     1       7.379   9.432  -1.974  0.00  0.00    +0.212 C 
ATOM     12  O   UNL     1       6.856   9.957  -2.933  0.00  0.00    -0.276 OA
ATOM     13  C   UNL     1       8.866   9.563  -1.761  0.00  0.00    +0.109 C 
ENDBRANCH   2   5
BRANCH   1  16
ATOM     14  C   UNL     1       1.698   3.204  -0.015  0.00  0.00    +0.263 C 
ATOM     15  O   UNL     1       0.891   4.113   0.010  0.00  0.00    -0.269 OA
ATOM     16  N   UNL     1       3.018   3.475  -0.031  0.00  0.00    -0.230 N 
ATOM     17  H   UNL     1       3.748   2.652  -0.053  0.00  0.00    +0.173 HD
BRANCH  14  21
ATOM     18  C   UNL     1       1.596  -1.897  -0.082  0.00  0.00    +0.086 C 
ATOM     19  C   UNL     1       1.208  -0.441  -0.056  0.00  0.00    +0.103 A 
ATOM     20  C   UNL     1       2.064   0.593  -0.055  0.00  0.00    +0.057 A 
ATOM     21  C   UNL     1       1.233   1.805  -0.026  0.00  0.00    +0.079 A 
ATOM     22  C   UNL     1      -0.058   1.366  -0.013  0.00  0.00    +0.114 A 
ATOM     23  O   UNL     1      -0.049   0.029  -0.031  0.00  0.00    -0.464 OA
ATOM     24  C   UNL     1      -1.286   2.238   0.012  0.00  0.00    +0.087 C 
ENDBRANCH  14  21
ENDBRANCH   1  16
TORSDOF 3
