REMARK  Name = ZINC04952751
REMARK  4 active torsions:
REMARK  status: ('A' for Active; 'I' for Inactive)
REMARK    1  A    between atoms: C_3  and  N_9
REMARK    2  A    between atoms: C_10  and  C_12
REMARK    3  A    between atoms: C_12  and  S_13
REMARK    4  A    between atoms: S_13  and  C_14
REMARK                            x       y       z     vdW  Elec       q    Type
REMARK                         _______ _______ _______ _____ _____    ______ ____
ROOT
ATOM      1  C   UNL     1      -3.716   1.537   4.985  0.00  0.00    +0.173 C 
ENDROOT
BRANCH   1   3
ATOM      2  N   UNL     1      -3.405   1.996   7.396  0.00  0.00    -0.283 N 
ATOM      3  C   UNL     1      -4.241   1.666   6.392  0.00  0.00    +0.228 C 
ATOM      4  O   UNL     1      -5.416   1.471   6.621  0.00  0.00    -0.275 OA
ATOM      5  H   UNL     1      -2.454   2.088   7.224  0.00  0.00    +0.155 HD
BRANCH   2   8
ATOM      6  C   UNL     1      -5.475   1.666  10.418  0.00  0.00    +0.017 A 
ATOM      7  C   UNL     1      -4.980   1.457   9.145  0.00  0.00    +0.027 A 
ATOM      8  C   UNL     1      -3.908   2.207   8.686  0.00  0.00    +0.069 A 
ATOM      9  C   UNL     1      -3.329   3.166   9.511  0.00  0.00    +0.146 A 
ATOM     10  C   UNL     1      -3.831   3.374  10.782  0.00  0.00    +0.055 A 
ATOM     11  C   UNL     1      -4.902   2.623  11.236  0.00  0.00    +0.021 A 
ATOM     12 BR   UNL     1      -5.582   2.906  12.977  0.00  0.00    -0.050 Br
ATOM     13  F   UNL     1      -2.281   3.895   9.070  0.00  0.00    -0.204 F 
ENDBRANCH   2   8
ENDBRANCH   1   3
BRANCH   1  14
ATOM     14  S   UNL     1      -5.072   1.086   3.874  0.00  0.00    -0.078 S 
BRANCH  14  15
ATOM     15  C   UNL     1      -4.201   1.005   2.345  0.00  0.00    +0.170 A 
ATOM     16  N   UNL     1      -4.874   0.684   1.205  0.00  0.00    -0.302 N 
ATOM     17  H   UNL     1      -5.856   0.500   1.235  0.00  0.00    +0.171 HD
ATOM     18  C   UNL     1      -4.205   0.618   0.036  0.00  0.00    +0.255 A 
ATOM     19  O   UNL     1      -4.790   0.328  -0.994  0.00  0.00    -0.267 OA
ATOM     20  C   UNL     1      -2.820   0.887   0.021  0.00  0.00    +0.038 A 
ATOM     21  C   UNL     1      -2.201   1.209   1.186  0.00  0.00    +0.052 A 
ATOM     22  N   UNL     1      -2.909   1.257   2.320  0.00  0.00    -0.228 NA
ATOM     23  C   UNL     1      -0.730   1.530   1.264  0.00  0.00    +0.056 C 
ATOM     24  C   UNL     1      -0.004   1.021   0.020  0.00  0.00    +0.006 C 
ATOM     25  C   UNL     1      -0.754   1.525  -1.219  0.00  0.00    +0.005 C 
ATOM     26  C   UNL     1      -2.096   0.800  -1.295  0.00  0.00    +0.042 C 
ENDBRANCH  14  15
ENDBRANCH   1  14
TORSDOF 4
