REMARK  Name = ZINC43579915
REMARK  6 active torsions:
REMARK  status: ('A' for Active; 'I' for Inactive)
REMARK    1  A    between atoms: C_1  and  C_2
REMARK    2  A    between atoms: C_2  and  C_3
REMARK    3  A    between atoms: C_2  and  C_4
REMARK    4  A    between atoms: C_2  and  C_5
REMARK    5  A    between atoms: C_7  and  N_10
REMARK    6  A    between atoms: C_11  and  C_13
REMARK                            x       y       z     vdW  Elec       q    Type
REMARK                         _______ _______ _______ _____ _____    ______ ____
ROOT
ATOM      1  N   UNL     1       3.573  -1.150  -3.281  0.00  0.00    -0.250 N 
ATOM      2  C   UNL     1       3.668  -1.684  -4.515  0.00  0.00    +0.251 C 
ATOM      3  O   UNL     1       2.664  -2.027  -5.107  0.00  0.00    -0.270 OA
ATOM      4  H   UNL     1       4.375  -0.876  -2.808  0.00  0.00    +0.158 HD
ENDROOT
BRANCH   2   5
ATOM      5  C   UNL     1       4.993  -1.852  -5.148  0.00  0.00    +0.040 A 
ATOM      6  C   UNL     1       6.149  -1.464  -4.467  0.00  0.00    +0.014 A 
ATOM      7  C   UNL     1       7.383  -1.623  -5.061  0.00  0.00    +0.019 A 
ATOM      8  C   UNL     1       7.479  -2.166  -6.331  0.00  0.00    +0.053 A 
ATOM      9  C   UNL     1       6.335  -2.554  -7.013  0.00  0.00    +0.138 A 
ATOM     10  C   UNL     1       5.094  -2.404  -6.426  0.00  0.00    +0.052 A 
ATOM     11  F   UNL     1       6.436  -3.084  -8.252  0.00  0.00    -0.204 F 
ATOM     12 BR   UNL     1       9.175  -2.380  -7.139  0.00  0.00    -0.047 Br
ENDBRANCH   2   5
BRANCH   1  15
ATOM     13  C   UNL     1       0.707  -0.490  -1.238  0.00  0.00    +0.091 A 
ATOM     14  C   UNL     1       2.092  -0.472  -1.456  0.00  0.00    +0.092 A 
ATOM     15  C   UNL     1       2.331  -0.993  -2.687  0.00  0.00    +0.224 A 
ATOM     16  O   UNL     1       1.147  -1.327  -3.228  0.00  0.00    -0.339 OA
ATOM     17  N   UNL     1       0.135  -1.005  -2.291  0.00  0.00    -0.081 NA
BRANCH  13  19
ATOM     18  C   UNL     1      -0.019   1.526   0.010  0.00  0.00    +0.017 C 
ATOM     19  C   UNL     1       0.002  -0.004   0.002  0.00  0.00    +0.008 C 
ATOM     20  C   UNL     1       0.742  -0.511   1.242  0.00  0.00    +0.017 C 
ATOM     21  C   UNL     1      -1.433  -0.534   0.013  0.00  0.00    +0.017 C 
ENDBRANCH  13  19
ENDBRANCH   1  15
TORSDOF 3
