REMARK  Name = ZINC67652638
REMARK  10 active torsions:
REMARK  status: ('A' for Active; 'I' for Inactive)
REMARK    1  A    between atoms: C_1  and  C_2
REMARK    2  A    between atoms: C_3  and  C_7
REMARK    3  A    between atoms: C_10  and  S_18
REMARK    4  A    between atoms: N_11  and  C_12
REMARK    5  A    between atoms: S_18  and  C_19
REMARK    6  A    between atoms: C_19  and  C_20
REMARK    7  A    between atoms: C_20  and  C_21
REMARK    8  A    between atoms: C_21  and  N_22
REMARK    9  A    between atoms: N_22  and  S_23
REMARK   10  A    between atoms: S_23  and  C_26
REMARK                            x       y       z     vdW  Elec       q    Type
REMARK                         _______ _______ _______ _____ _____    ______ ____
ROOT
ATOM      1  C   UNL     1      -2.510  -0.400   0.012  0.00  0.00    +0.173 A 
ATOM      2  N   UNL     1      -2.963   0.832   0.015  0.00  0.00    -0.128 NA
ATOM      3  N   UNL     1      -4.248   0.829   0.024  0.00  0.00    -0.122 NA
ATOM      4  C   UNL     1      -4.697  -0.405   0.026  0.00  0.00    +0.196 A 
ATOM      5  N   UNL     1      -3.607  -1.233   0.012  0.00  0.00    -0.270 N 
ENDROOT
BRANCH   1   8
ATOM      6  C   UNL     1      -0.018   1.503   0.010  0.00  0.00    +0.087 C 
ATOM      7  C   UNL     1       0.002  -0.004   0.002  0.00  0.00    +0.112 A 
ATOM      8  C   UNL     1      -1.091  -0.815   0.003  0.00  0.00    +0.060 A 
ATOM      9  C   UNL     1      -0.568  -2.187  -0.007  0.00  0.00    +0.053 A 
ATOM     10  C   UNL     1       0.770  -2.074  -0.013  0.00  0.00    +0.196 A 
ATOM     11  O   UNL     1       1.100  -0.773  -0.013  0.00  0.00    -0.467 OA
ENDBRANCH   1   8
BRANCH   5  12
ATOM     12  C   UNL     1      -3.607  -2.635   0.004  0.00  0.00    +0.051 A 
ATOM     13  C   UNL     1      -3.099  -3.324  -1.088  0.00  0.00    +0.026 A 
ATOM     14  C   UNL     1      -3.099  -4.705  -1.093  0.00  0.00    +0.002 A 
ATOM     15  C   UNL     1      -3.605  -5.402  -0.011  0.00  0.00    +0.000 A 
ATOM     16  C   UNL     1      -4.112  -4.718   1.079  0.00  0.00    +0.002 A 
ATOM     17  C   UNL     1      -4.109  -3.337   1.092  0.00  0.00    +0.026 A 
ENDBRANCH   5  12
BRANCH   4  18
ATOM     18  S   UNL     1      -6.388  -0.902   0.037  0.00  0.00    -0.086 S 
BRANCH  18  19
ATOM     19  C   UNL     1      -7.305   0.663   0.044  0.00  0.00    +0.079 C 
BRANCH  19  20
ATOM     20  C   UNL     1      -8.808   0.373   0.054  0.00  0.00    +0.028 C 
BRANCH  20  21
ATOM     21  C   UNL     1      -9.582   1.693   0.060  0.00  0.00    +0.106 C 
BRANCH  21  22
ATOM     22  N   UNL     1     -11.020   1.416   0.070  0.00  0.00    -0.195 NA
ATOM     23  H   UNL     1     -11.344   0.527  -0.146  0.00  0.00    +0.148 HD
BRANCH  22  24
ATOM     24  S   UNL     1     -12.093   2.619   0.448  0.00  0.00    +0.027 S 
ATOM     25  O   UNL     1     -13.370   2.000   0.384  0.00  0.00    -0.158 OA
ATOM     26  O   UNL     1     -11.612   3.162   1.670  0.00  0.00    -0.158 OA
ATOM     27  C   UNL     1     -11.920   3.835  -0.887  0.00  0.00    +0.214 C 
ENDBRANCH  22  24
ENDBRANCH  21  22
ENDBRANCH  20  21
ENDBRANCH  19  20
ENDBRANCH  18  19
ENDBRANCH   4  18
TORSDOF 8
