REMARK  Name = ZINC14373805
REMARK  10 active torsions:
REMARK  status: ('A' for Active; 'I' for Inactive)
REMARK    1  A    between atoms: C_1  and  C_2
REMARK    2  A    between atoms: C_5  and  O_14
REMARK    3  A    between atoms: C_8  and  C_13
REMARK    4  A    between atoms: O_14  and  C_15
REMARK    5  A    between atoms: C_15  and  C_16
REMARK    6  A    between atoms: N_18  and  C_19
REMARK    7  A    between atoms: C_21  and  N_27
REMARK    8  A    between atoms: C_24  and  O_25
REMARK    9  A    between atoms: O_25  and  C_26
REMARK   10  A    between atoms: C_28  and  C_30
REMARK                            x       y       z     vdW  Elec       q    Type
REMARK                         _______ _______ _______ _____ _____    ______ ____
ROOT
ATOM      1  C   UNL     1      -0.041  -0.038  -0.040  0.00  0.00    +0.255 C 
ATOM      2  O   UNL     1      -0.558  -0.611   0.896  0.00  0.00    -0.272 OA
ATOM      3  N   UNL     1       0.525  -0.749  -1.035  0.00  0.00    -0.280 N 
ATOM      4  H   UNL     1       0.867  -0.296  -1.821  0.00  0.00    +0.155 HD
ENDROOT
BRANCH   3   5
ATOM      5  C   UNL     1       0.620  -2.144  -0.934  0.00  0.00    +0.077 A 
ATOM      6  C   UNL     1       0.630  -2.751   0.313  0.00  0.00    +0.050 A 
ATOM      7  C   UNL     1       0.718  -4.132   0.409  0.00  0.00    +0.035 A 
ATOM      8  C   UNL     1       0.807  -4.905  -0.741  0.00  0.00    +0.027 A 
ATOM      9  C   UNL     1       0.802  -4.301  -1.984  0.00  0.00    +0.049 A 
ATOM     10  C   UNL     1       0.709  -2.922  -2.086  0.00  0.00    +0.141 A 
BRANCH   7  11
ATOM     11  N   UNL     1       0.723  -4.747   1.668  0.00  0.00    -0.286 N 
ATOM     12  C   UNL     1       1.467  -5.852   1.875  0.00  0.00    +0.214 C 
ATOM     13  O   UNL     1       2.063  -6.364   0.951  0.00  0.00    -0.276 OA
ATOM     14  C   UNL     1       1.557  -6.452   3.255  0.00  0.00    +0.109 C 
ATOM     15  H   UNL     1       0.192  -4.378   2.390  0.00  0.00    +0.155 HD
ENDBRANCH   7  11
BRANCH  10  16
ATOM     16  O   UNL     1       0.705  -2.329  -3.310  0.00  0.00    -0.493 OA
ATOM     17  C   UNL     1       0.799  -3.188  -4.448  0.00  0.00    +0.277 C 
ENDBRANCH  10  16
ENDBRANCH   3   5
BRANCH   1  18
ATOM     18  C   UNL     1      -0.030   1.468  -0.089  0.00  0.00    +0.324 C 
BRANCH  18  19
ATOM     19  O   UNL     1      -0.685   1.987   1.070  0.00  0.00    -0.482 OA
BRANCH  19  24
ATOM     20  C   UNL     1      -0.997   7.598   1.512  0.00  0.00    +0.044 C 
ATOM     21  C   UNL     1      -0.918   6.097   1.403  0.00  0.00    -0.046 A 
ATOM     22  C   UNL     1      -0.299   5.519   0.307  0.00  0.00    +0.007 A 
ATOM     23  C   UNL     1      -0.215   4.146   0.199  0.00  0.00    +0.046 A 
ATOM     24  C   UNL     1      -0.763   3.336   1.181  0.00  0.00    +0.132 A 
ATOM     25  C   UNL     1      -1.395   3.918   2.298  0.00  0.00    +0.063 A 
ATOM     26  C   UNL     1      -1.465   5.309   2.395  0.00  0.00    -0.027 A 
ATOM     27  C   UNL     1      -2.182   5.691   3.668  0.00  0.00    +0.024 C 
ATOM     28  C   UNL     1      -2.557   4.374   4.362  0.00  0.00    +0.087 C 
ATOM     29  C   UNL     1      -2.037   3.284   3.456  0.00  0.00    +0.168 C 
ATOM     30  O   UNL     1      -2.133   2.090   3.651  0.00  0.00    -0.292 OA
ATOM     31  C   UNL     1      -3.445   6.491   3.340  0.00  0.00    +0.013 C 
ENDBRANCH  19  24
ENDBRANCH  18  19
ENDBRANCH   1  18
TORSDOF 6
