REMARK  Name = ZINC08292869
REMARK  7 active torsions:
REMARK  status: ('A' for Active; 'I' for Inactive)
REMARK    1  A    between atoms: C_4  and  N_27
REMARK    2  A    between atoms: C_6  and  C_7
REMARK    3  A    between atoms: C_7  and  O_9
REMARK    4  A    between atoms: O_9  and  C_10
REMARK    5  A    between atoms: C_10  and  C_11
REMARK    6  A    between atoms: N_13  and  C_14
REMARK    7  A    between atoms: N_13  and  C_22
REMARK                            x       y       z     vdW  Elec       q    Type
REMARK                         _______ _______ _______ _____ _____    ______ ____
ROOT
ATOM      1  C   UNL     1      -4.838  -0.004   0.050  0.00  0.00    +0.254 C 
ATOM      2  O   UNL     1      -4.699   1.197   0.148  0.00  0.00    -0.272 OA
ATOM      3  N   UNL     1      -6.073  -0.534  -0.043  0.00  0.00    -0.291 N 
ENDROOT
BRANCH   3   4
ATOM      4  C   UNL     1      -7.242   0.344  -0.137  0.00  0.00    +0.099 C 
ATOM      5  C   UNL     1      -7.111   1.252  -1.371  0.00  0.00    +0.047 C 
ATOM      6  C   UNL     1      -8.161   2.388  -1.305  0.00  0.00    +0.168 C 
ATOM      7  S   UNL     1      -8.416   2.596   0.505  0.00  0.00    -0.029 S 
ATOM      8  O   UNL     1      -9.764   2.279   0.821  0.00  0.00    -0.174 OA
ATOM      9  O   UNL     1      -7.880   3.850   0.905  0.00  0.00    -0.174 OA
ATOM     10  C   UNL     1      -7.321   1.251   1.125  0.00  0.00    +0.188 C 
ENDBRANCH   3   4
BRANCH   3  11
ATOM     11  C   UNL     1      -6.247  -1.989  -0.049  0.00  0.00    +0.077 C 
ATOM     12  C   UNL     1      -6.882  -2.439  -1.381  0.00  0.00    +0.022 C 
ATOM     13  C   UNL     1      -7.836  -3.591  -0.977  0.00  0.00    +0.002 C 
ATOM     14  C   UNL     1      -8.415  -3.098   0.373  0.00  0.00    +0.002 C 
ATOM     15  C   UNL     1      -7.222  -2.408   1.066  0.00  0.00    +0.022 C 
ENDBRANCH   3  11
BRANCH   1  16
ATOM     16  C   UNL     1      -3.628  -0.903   0.033  0.00  0.00    +0.328 C 
BRANCH  16  17
ATOM     17  O   UNL     1      -2.442  -0.106   0.025  0.00  0.00    -0.452 OA
BRANCH  17  18
ATOM     18  C   UNL     1      -1.265  -0.762   0.009  0.00  0.00    +0.340 C 
ATOM     19  O   UNL     1      -1.246  -1.976   0.002  0.00  0.00    -0.245 OA
BRANCH  18  25
ATOM     20  C   UNL     1      -0.017   1.393   0.010  0.00  0.00    +0.016 A 
ATOM     21  C   UNL     1       1.168   2.099   0.003  0.00  0.00    +0.022 A 
ATOM     22  C   UNL     1       2.378   1.429  -0.013  0.00  0.00    +0.062 A 
ATOM     23  C   UNL     1       2.408   0.037  -0.022  0.00  0.00    +0.044 A 
ATOM     24  C   UNL     1       1.223  -0.681  -0.015  0.00  0.00    +0.039 A 
ATOM     25  C   UNL     1       0.002  -0.004   0.001  0.00  0.00    +0.061 A 
ATOM     26 CL   UNL     1       3.864   2.326  -0.022  0.00  0.00    -0.082 Cl
BRANCH  23  27
ATOM     27  N   UNL     1       3.633  -0.636  -0.039  0.00  0.00    -0.357 N 
ATOM     28  H   UNL     1       4.462  -0.133  -0.045  0.00  0.00    +0.142 HD
ATOM     29  H   UNL     1       3.653  -1.606  -0.046  0.00  0.00    +0.142 HD
ENDBRANCH  23  27
ENDBRANCH  18  25
ENDBRANCH  17  18
ENDBRANCH  16  17
ENDBRANCH   1  16
TORSDOF 7
