REMARK  Name = ZINC02181690
REMARK  6 active torsions:
REMARK  status: ('A' for Active; 'I' for Inactive)
REMARK    1  A    between atoms: C_4  and  C_7
REMARK    2  A    between atoms: N_9  and  C_10
REMARK    3  A    between atoms: C_10  and  C_12
REMARK    4  A    between atoms: C_10  and  C_24
REMARK    5  A    between atoms: N_26  and  N_27
REMARK    6  A    between atoms: C_28  and  C_29
REMARK                            x       y       z     vdW  Elec       q    Type
REMARK                         _______ _______ _______ _____ _____    ______ ____
ROOT
ATOM      1  C   UNL     1       4.863   8.079   0.001  0.00  0.00    +0.212 C 
ENDROOT
BRANCH   1   2
ATOM      2  C   UNL     1       5.671   7.722   1.222  0.00  0.00    +0.099 A 
ATOM      3  C   UNL     1       6.536   6.542   1.207  0.00  0.00    +0.013 A 
ATOM      4  C   UNL     1       6.652   5.727   0.080  0.00  0.00    +0.010 A 
ATOM      5  C   UNL     1       7.478   4.639   0.114  0.00  0.00    +0.001 A 
ATOM      6  C   UNL     1       8.211   4.334   1.254  0.00  0.00    +0.001 A 
ATOM      7  C   UNL     1       8.121   5.124   2.379  0.00  0.00    +0.014 A 
ATOM      8  C   UNL     1       7.285   6.239   2.368  0.00  0.00    +0.050 A 
ATOM      9  C   UNL     1       7.145   7.120   3.534  0.00  0.00    +0.272 A 
ATOM     10  O   UNL     1       7.766   6.896   4.558  0.00  0.00    -0.266 OA
ATOM     11  N   UNL     1       6.317   8.181   3.450  0.00  0.00    -0.242 N 
ATOM     12  H   UNL     1       6.221   8.767   4.218  0.00  0.00    +0.192 HD
ATOM     13  N   UNL     1       5.595   8.459   2.289  0.00  0.00    -0.173 NA
ENDBRANCH   1   2
BRANCH   1  16
ATOM     14  C   UNL     1       5.468  10.389  -0.486  0.00  0.00    +0.245 C 
ATOM     15  O   UNL     1       6.520   9.986  -0.943  0.00  0.00    -0.270 OA
ATOM     16  N   UNL     1       4.571   9.514   0.011  0.00  0.00    -0.295 N 
ATOM     17  H   UNL     1       3.731   9.835   0.375  0.00  0.00    +0.150 HD
BRANCH  14  21
ATOM     18  C   UNL     1       4.619  14.550  -0.456  0.00  0.00    +0.000 A 
ATOM     19  C   UNL     1       5.817  14.096  -0.977  0.00  0.00    +0.001 A 
ATOM     20  C   UNL     1       6.100  12.745  -0.989  0.00  0.00    +0.013 A 
ATOM     21  C   UNL     1       5.173  11.837  -0.475  0.00  0.00    +0.037 A 
ATOM     22  C   UNL     1       3.963  12.302   0.043  0.00  0.00    +0.013 A 
ATOM     23  C   UNL     1       3.696  13.655   0.054  0.00  0.00    +0.001 A 
ENDBRANCH  14  21
ENDBRANCH   1  16
BRANCH   1  24
ATOM     24  C   UNL     1       3.572   7.303   0.008  0.00  0.00    +0.259 C 
ATOM     25  O   UNL     1       2.511   7.891   0.021  0.00  0.00    -0.272 OA
ATOM     26  N   UNL     1       3.595   5.955   0.001  0.00  0.00    -0.205 N 
ATOM     27  H   UNL     1       4.444   5.485  -0.010  0.00  0.00    +0.177 HD
BRANCH  26  28
ATOM     28  N   UNL     1       2.394   5.234   0.008  0.00  0.00    -0.188 NA
ATOM     29  C   UNL     1       2.417   3.936   0.001  0.00  0.00    +0.139 C 
BRANCH  29  30
ATOM     30  C   UNL     1       1.153   3.176   0.008  0.00  0.00    +0.008 A 
ATOM     31  C   UNL     1       1.173   1.780   0.000  0.00  0.00    +0.010 A 
ATOM     32  C   UNL     1      -0.013   1.076   0.008  0.00  0.00    +0.001 A 
ATOM     33  C   UNL     1      -1.222   1.750   0.017  0.00  0.00    +0.001 A 
ATOM     34  C   UNL     1      -1.250   3.132   0.031  0.00  0.00    +0.016 A 
ATOM     35  C   UNL     1      -0.071   3.851   0.023  0.00  0.00    +0.027 A 
ATOM     36 BR   UNL     1      -0.113   5.741   0.033  0.00  0.00    -0.050 Br
ENDBRANCH  29  30
ENDBRANCH  26  28
ENDBRANCH   1  24
TORSDOF 6
