REMARK  Name = ZINC04978866
REMARK  12 active torsions:
REMARK  status: ('A' for Active; 'I' for Inactive)
REMARK    1  A    between atoms: C_1  and  C_2
REMARK    2  A    between atoms: C_2  and  O_3
REMARK    3  A    between atoms: O_3  and  C_4
REMARK    4  A    between atoms: C_4  and  C_6
REMARK    5  A    between atoms: C_10  and  N_11
REMARK    6  A    between atoms: C_12  and  C_13
REMARK    7  A    between atoms: C_16  and  O_20
REMARK    8  A    between atoms: C_18  and  O_19
REMARK    9  A    between atoms: C_21  and  C_26
REMARK   10  A    between atoms: C_21  and  C_27
REMARK   11  A    between atoms: C_22  and  C_24
REMARK   12  A    between atoms: C_22  and  C_25
REMARK                            x       y       z     vdW  Elec       q    Type
REMARK                         _______ _______ _______ _____ _____    ______ ____
ROOT
ATOM      1  C   UNL     1       1.302  -0.635  -0.020  0.00  0.00    +0.095 A 
ATOM      2  C   UNL     1       0.002  -0.004   0.002  0.00  0.00    -0.024 A 
ATOM      3  C   UNL     1      -0.016   1.353   0.009  0.00  0.00    -0.016 A 
ATOM      4  S   UNL     1       1.689   1.828  -0.004  0.00  0.00    -0.075 S 
ATOM      5  C   UNL     1       2.426   0.204  -0.026  0.00  0.00    +0.115 A 
ATOM      6  C   UNL     1      -1.227   2.228   0.018  0.00  0.00    -0.041 C 
ATOM      7  C   UNL     1      -2.326   0.128   0.805  0.00  0.00    -0.069 C 
ATOM      8  C   UNL     1      -1.333  -0.740   0.024  0.00  0.00    +0.024 C 
ATOM      9  C   UNL     1      -3.703  -0.560   0.743  0.00  0.00    -0.010 C 
ATOM     10  C   UNL     1      -1.897   0.188   2.274  0.00  0.00    -0.010 C 
ATOM     11  C   UNL     1      -1.068   3.304   1.101  0.00  0.00    -0.005 C 
ATOM     12  C   UNL     1      -1.323   2.937  -1.346  0.00  0.00    -0.005 C 
ATOM     13  N   UNL     1      -2.503   1.485   0.229  0.00  0.00    +0.389 N 
ATOM     14  H   UNL     1      -2.975   1.391  -0.678  0.00  0.00    -0.084 HD
ATOM     15  H   UNL     1      -3.093   2.032   0.867  0.00  0.00    -0.084 HD
ENDROOT
BRANCH   1  16
ATOM     16  C   UNL     1       1.454  -2.091  -0.040  0.00  0.00    +0.342 C 
ATOM     17  O   UNL     1       1.505  -2.683  -1.101  0.00  0.00    -0.245 OA
BRANCH  16  18
ATOM     18  O   UNL     1       1.537  -2.776   1.119  0.00  0.00    -0.461 OA
BRANCH  18  20
ATOM     19  C   UNL     1       1.764  -4.816   2.430  0.00  0.00    +0.048 C 
ATOM     20  C   UNL     1       1.687  -4.217   1.024  0.00  0.00    +0.229 C 
ENDBRANCH  18  20
ENDBRANCH  16  18
ENDBRANCH   1  16
BRANCH   5  21
ATOM     21  N   UNL     1       3.732  -0.136  -0.045  0.00  0.00    -0.247 NA
ATOM     22  C   UNL     1       4.651   0.797  -0.047  0.00  0.00    +0.123 C 
BRANCH  22  23
ATOM     23  C   UNL     1       6.070   0.428  -0.067  0.00  0.00    +0.035 A 
ATOM     24  C   UNL     1       7.056   1.423  -0.070  0.00  0.00    +0.016 A 
ATOM     25  C   UNL     1       8.377   1.077  -0.088  0.00  0.00    +0.046 A 
ATOM     26  C   UNL     1       8.754  -0.262  -0.105  0.00  0.00    +0.120 A 
ATOM     27  C   UNL     1       7.790  -1.261  -0.102  0.00  0.00    +0.091 A 
ATOM     28  C   UNL     1       6.448  -0.926  -0.078  0.00  0.00    +0.129 A 
BRANCH  28  29
ATOM     29  O   UNL     1       5.502  -1.899  -0.070  0.00  0.00    -0.506 OA
ATOM     30  H   UNL     1       5.216  -2.177  -0.952  0.00  0.00    +0.292 HD
ENDBRANCH  28  29
BRANCH  26  31
ATOM     31  O   UNL     1      10.070  -0.594  -0.123  0.00  0.00    -0.507 OA
ATOM     32  H   UNL     1      10.461  -0.697   0.755  0.00  0.00    +0.292 HD
ENDBRANCH  26  31
ENDBRANCH  22  23
ENDBRANCH   5  21
TORSDOF 7
