REMARK  Name = ZINC02956125
REMARK  8 active torsions:
REMARK  status: ('A' for Active; 'I' for Inactive)
REMARK    1  A    between atoms: C_1  and  C_2
REMARK    2  A    between atoms: C_2  and  N_3
REMARK    3  A    between atoms: N_3  and  C_4
REMARK    4  A    between atoms: N_3  and  C_6
REMARK    5  A    between atoms: C_4  and  C_5
REMARK    6  A    between atoms: C_11  and  C_17
REMARK    7  A    between atoms: N_22  and  C_23
REMARK    8  A    between atoms: C_23  and  C_24
REMARK                            x       y       z     vdW  Elec       q    Type
REMARK                         _______ _______ _______ _____ _____    ______ ____
ROOT
ATOM      1  C   UNL     1      -0.018   1.471   0.010  0.00  0.00    +0.141 A 
ATOM      2  N   UNL     1       0.988   2.338   0.005  0.00  0.00    -0.139 NA
ATOM      3  N   UNL     1       0.793   3.584   0.013  0.00  0.00    -0.126 NA
ATOM      4  C   UNL     1      -0.428   4.103   0.027  0.00  0.00    +0.182 A 
ATOM      5  S   UNL     1      -1.405   2.603   0.021  0.00  0.00    -0.031 S 
ATOM      6  N   UNL     1      -0.833   5.429   0.037  0.00  0.00    -0.318 N 
ATOM      7  H   UNL     1      -1.778   5.648   0.047  0.00  0.00    +0.148 HD
ENDROOT
BRANCH   1  13
ATOM      8  C   UNL     1       1.132  -4.878  -0.038  0.00  0.00    +0.033 A 
ATOM      9  C   UNL     1       2.350  -4.196  -0.045  0.00  0.00    +0.024 A 
ATOM     10  C   UNL     1       2.378  -2.834  -0.037  0.00  0.00    +0.013 A 
ATOM     11  C   UNL     1       1.176  -2.108  -0.021  0.00  0.00    +0.018 A 
ATOM     12  C   UNL     1       1.201  -0.691  -0.018  0.00  0.00    +0.029 A 
ATOM     13  C   UNL     1       0.002  -0.004   0.002  0.00  0.00    +0.094 A 
ATOM     14  C   UNL     1      -1.250  -0.767   0.009  0.00  0.00    +0.347 A 
ATOM     15  O   UNL     1      -2.317  -0.182   0.023  0.00  0.00    -0.244 OA
ATOM     16  O   UNL     1      -1.222  -2.110   0.001  0.00  0.00    -0.422 OA
ATOM     17  C   UNL     1      -0.055  -2.790  -0.014  0.00  0.00    +0.141 A 
ATOM     18  C   UNL     1      -0.065  -4.177  -0.022  0.00  0.00    +0.070 A 
BRANCH   8  19
ATOM     19  N   UNL     1       1.119  -6.269  -0.046  0.00  0.00    -0.330 N 
BRANCH  19  21
ATOM     20  C   UNL     1       2.833  -7.282   1.374  0.00  0.00    +0.024 C 
ATOM     21  C   UNL     1       2.380  -7.014  -0.063  0.00  0.00    +0.102 C 
ENDBRANCH  19  21
BRANCH  19  22
ATOM     22  C   UNL     1      -0.157  -6.989  -0.038  0.00  0.00    +0.102 C 
ATOM     23  C   UNL     1      -0.615  -7.231  -1.478  0.00  0.00    +0.024 C 
ENDBRANCH  19  22
ENDBRANCH   8  19
ENDBRANCH   1  13
BRANCH   6  24
ATOM     24  C   UNL     1       0.167   6.499   0.033  0.00  0.00    +0.139 C 
BRANCH  24  25
ATOM     25  C   UNL     1      -0.528   7.836   0.047  0.00  0.00    -0.027 A 
ATOM     26  C   UNL     1      -0.853   8.457  -1.145  0.00  0.00    +0.009 A 
ATOM     27  C   UNL     1      -1.496   9.681  -1.138  0.00  0.00    +0.050 A 
ATOM     28  C   UNL     1      -1.806  10.294   0.065  0.00  0.00    +0.166 A 
ATOM     29  C   UNL     1      -1.474   9.671   1.266  0.00  0.00    +0.167 A 
ATOM     30  C   UNL     1      -0.835   8.442   1.251  0.00  0.00    +0.054 A 
ATOM     31  O   UNL     1      -1.881  10.468   2.297  0.00  0.00    -0.453 OA
ATOM     32  C   UNL     1      -2.096  11.768   1.717  0.00  0.00    +0.466 C 
ATOM     33  O   UNL     1      -2.420  11.480   0.344  0.00  0.00    -0.453 OA
ENDBRANCH  24  25
ENDBRANCH   6  24
TORSDOF 6
