REMARK  Name = ZINC35977495
REMARK  11 active torsions:
REMARK  status: ('A' for Active; 'I' for Inactive)
REMARK    1  A    between atoms: C_1  and  C_2
REMARK    2  A    between atoms: N_10  and  C_11
REMARK    3  A    between atoms: C_11  and  C_12
REMARK    4  A    between atoms: C_15  and  C_18
REMARK    5  A    between atoms: N_20  and  C_21
REMARK    6  A    between atoms: C_23  and  O_29
REMARK    7  A    between atoms: C_25  and  O_27
REMARK    8  A    between atoms: O_27  and  C_28
REMARK    9  A    between atoms: O_29  and  C_30
REMARK   10  A    between atoms: C_31  and  O_32
REMARK   11  A    between atoms: C_33  and  O_34
REMARK                            x       y       z     vdW  Elec       q    Type
REMARK                         _______ _______ _______ _____ _____    ______ ____
ROOT
ATOM      1  C   UNL     1       2.221  -2.480   4.405  0.00  0.00    +0.010 C 
ATOM      2  C   UNL     1       2.766  -3.368   5.525  0.00  0.00    +0.006 C 
ATOM      3  C   UNL     1       3.196  -2.494   6.705  0.00  0.00    +0.013 C 
ATOM      4  C   UNL     1       4.286  -1.522   6.249  0.00  0.00    +0.075 C 
ATOM      5  C   UNL     1       3.741  -0.634   5.129  0.00  0.00    +0.013 C 
ATOM      6  C   UNL     1       3.310  -1.507   3.949  0.00  0.00    +0.006 C 
ENDROOT
BRANCH   4   7
ATOM      7  C   UNL     1       4.710  -0.661   7.411  0.00  0.00    +0.220 C 
ATOM      8  O   UNL     1       4.192  -0.811   8.498  0.00  0.00    -0.275 OA
ATOM      9  N   UNL     1       5.665   0.275   7.244  0.00  0.00    -0.285 N 
ATOM     10  H   UNL     1       6.028   0.444   6.360  0.00  0.00    +0.155 HD
BRANCH   9  11
ATOM     11  C   UNL     1       6.133   1.002   8.344  0.00  0.00    +0.040 A 
ATOM     12  C   UNL     1       6.524   2.324   8.187  0.00  0.00    +0.069 A 
ATOM     13  C   UNL     1       6.987   3.044   9.277  0.00  0.00    +0.125 A 
ATOM     14  C   UNL     1       7.061   2.442  10.525  0.00  0.00    +0.091 A 
ATOM     15  C   UNL     1       6.671   1.121  10.682  0.00  0.00    +0.125 A 
ATOM     16  C   UNL     1       6.202   0.402   9.594  0.00  0.00    +0.069 A 
BRANCH  15  17
ATOM     17  O   UNL     1       6.745   0.532  11.905  0.00  0.00    -0.495 OA
ATOM     18  C   UNL     1       7.233   1.333  12.983  0.00  0.00    +0.277 C 
ENDBRANCH  15  17
BRANCH  13  19
ATOM     19  O   UNL     1       7.370   4.339   9.124  0.00  0.00    -0.495 OA
ATOM     20  C   UNL     1       7.838   5.020  10.290  0.00  0.00    +0.277 C 
ENDBRANCH  13  19
ENDBRANCH   9  11
ENDBRANCH   4   7
BRANCH   1  21
ATOM     21  C   UNL     1       1.790  -3.353   3.225  0.00  0.00    +0.146 C 
BRANCH  21  31
ATOM     22  C   UNL     1      -1.176   2.417   1.851  0.00  0.00    +0.007 C 
ATOM     23  C   UNL     1      -0.767   0.991   1.478  0.00  0.00    -0.011 C 
ATOM     24  C   UNL     1      -2.007   0.198   1.058  0.00  0.00    +0.024 C 
ATOM     25  C   UNL     1      -1.589  -1.218   0.652  0.00  0.00    +0.117 C 
ATOM     26  N   UNL     1      -0.831  -1.823   1.756  0.00  0.00    -0.366 N 
ATOM     27  C   UNL     1       0.327  -1.099   2.298  0.00  0.00    +0.117 C 
ATOM     28  C   UNL     1      -0.112   0.316   2.685  0.00  0.00    +0.024 C 
ATOM     29  C   UNL     1      -1.181  -2.978   2.247  0.00  0.00    +0.113 C 
ATOM     30  C   UNL     1      -0.509  -4.019   3.075  0.00  0.00    +0.130 C 
ATOM     31  N   UNL     1       0.658  -4.193   3.626  0.00  0.00    -0.278 NA
ATOM     32  C   UNL     1      -1.782  -4.762   2.981  0.00  0.00    +0.188 C 
ATOM     33  C   UNL     1      -2.409  -3.797   2.218  0.00  0.00    +0.186 C 
BRANCH  32  34
ATOM     34  O   UNL     1      -2.189  -5.957   3.470  0.00  0.00    -0.502 OA
ATOM     35  H   UNL     1      -3.099  -6.187   3.239  0.00  0.00    +0.292 HD
ENDBRANCH  32  34
BRANCH  33  36
ATOM     36  O   UNL     1      -3.641  -3.658   1.671  0.00  0.00    -0.502 OA
ATOM     37  H   UNL     1      -4.234  -4.402   1.846  0.00  0.00    +0.292 HD
ENDBRANCH  33  36
ENDBRANCH  21  31
ENDBRANCH   1  21
TORSDOF 8
