REMARK  Name = ZINC38976519
REMARK  5 active torsions:
REMARK  status: ('A' for Active; 'I' for Inactive)
REMARK    1  A    between atoms: N_7  and  S_8
REMARK    2  A    between atoms: S_8  and  C_11
REMARK    3  A    between atoms: C_18  and  N_23
REMARK    4  A    between atoms: N_23  and  C_24
REMARK    5  A    between atoms: C_24  and  C_25
REMARK                            x       y       z     vdW  Elec       q    Type
REMARK                         _______ _______ _______ _____ _____    ______ ____
ROOT
ATOM      1  C   UNL     1      -0.016   1.347   0.009  0.00  0.00    +0.002 A 
ATOM      2  C   UNL     1       1.169   2.102   0.002  0.00  0.00    +0.002 A 
ATOM      3  C   UNL     1       2.395   1.536  -0.013  0.00  0.00    +0.030 A 
ATOM      4  C   UNL     1       2.534   0.125  -0.021  0.00  0.00    +0.089 A 
ATOM      5  N   UNL     1       3.732  -0.421  -0.035  0.00  0.00    -0.226 NA
ATOM      6  C   UNL     1       3.898  -1.753  -0.044  0.00  0.00    +0.188 C 
ATOM      7  N   UNL     1       5.092  -2.269  -0.057  0.00  0.00    -0.110 NA
ATOM      8  C   UNL     1       2.677  -2.645  -0.038  0.00  0.00    +0.220 C 
ATOM      9  N   UNL     1       1.355  -2.000  -0.022  0.00  0.00    -0.362 N 
ATOM     10  C   UNL     1       1.299  -0.697  -0.014  0.00  0.00    +0.063 A 
ATOM     11  C   UNL     1       0.002  -0.004   0.002  0.00  0.00    +0.027 A 
ATOM     12  H   UNL     1       0.544  -2.532  -0.018  0.00  0.00    +0.162 HD
ENDROOT
BRANCH   7  13
ATOM     13  S   UNL     1       6.421  -1.280  -0.064  0.00  0.00    +0.100 S 
ATOM     14  O   UNL     1       6.407  -0.589  -1.305  0.00  0.00    -0.146 OA
ATOM     15  O   UNL     1       6.429  -0.603   1.185  0.00  0.00    -0.146 OA
BRANCH  13  16
ATOM     16  C   UNL     1       7.843  -2.320  -0.082  0.00  0.00    +0.114 A 
ATOM     17  C   UNL     1       8.408  -2.739   1.109  0.00  0.00    +0.029 A 
ATOM     18  C   UNL     1       9.524  -3.555   1.095  0.00  0.00    +0.003 A 
ATOM     19  C   UNL     1      10.076  -3.951  -0.108  0.00  0.00    +0.020 A 
ATOM     20  C   UNL     1       9.511  -3.533  -1.300  0.00  0.00    +0.043 A 
ATOM     21  C   UNL     1       8.390  -2.721  -1.286  0.00  0.00    +0.049 A 
ATOM     22 CL   UNL     1      10.204  -4.031  -2.812  0.00  0.00    -0.083 Cl
ENDBRANCH  13  16
ENDBRANCH   7  13
BRANCH   8  23
ATOM     23  N   UNL     1       2.764  -3.516   1.142  0.00  0.00    -0.287 NA
ATOM     24  H   UNL     1       3.677  -3.456   1.569  0.00  0.00    +0.125 HD
BRANCH  23  25
ATOM     25  C   UNL     1       2.435  -4.905   0.796  0.00  0.00    +0.118 C 
BRANCH  25  26
ATOM     26  C   UNL     1       2.535  -5.767   2.029  0.00  0.00    -0.030 A 
ATOM     27  C   UNL     1       3.736  -6.370   2.354  0.00  0.00    +0.009 A 
ATOM     28  C   UNL     1       3.833  -7.160   3.484  0.00  0.00    +0.050 A 
ATOM     29  C   UNL     1       2.725  -7.351   4.293  0.00  0.00    +0.166 A 
ATOM     30  C   UNL     1       1.515  -6.743   3.966  0.00  0.00    +0.167 A 
ATOM     31  C   UNL     1       1.427  -5.948   2.836  0.00  0.00    +0.054 A 
ATOM     32  O   UNL     1       0.588  -7.082   4.910  0.00  0.00    -0.453 OA
ATOM     33  C   UNL     1       1.132  -8.228   5.590  0.00  0.00    +0.466 C 
ATOM     34  O   UNL     1       2.556  -8.069   5.442  0.00  0.00    -0.453 OA
ENDBRANCH  25  26
ENDBRANCH  23  25
ENDBRANCH   8  23
TORSDOF 5
