REMARK  Name = ZINC18209178
REMARK  7 active torsions:
REMARK  status: ('A' for Active; 'I' for Inactive)
REMARK    1  A    between atoms: C_1  and  C_2
REMARK    2  A    between atoms: C_7  and  C_9
REMARK    3  A    between atoms: C_9  and  C_11
REMARK    4  A    between atoms: C_9  and  C_17
REMARK    5  A    between atoms: C_17  and  C_19
REMARK    6  A    between atoms: C_17  and  C_21
REMARK    7  A    between atoms: C_26  and  C_29
REMARK                            x       y       z     vdW  Elec       q    Type
REMARK                         _______ _______ _______ _____ _____    ______ ____
ROOT
ATOM      1  C   UNL     1      -0.122   1.740   0.219  0.00  0.00    +0.063 C 
ATOM      2  C   UNL     1       0.190   0.265   0.245  0.00  0.00    +0.047 C 
ATOM      3  N   UNL     1       0.517  -0.457  -0.754  0.00  0.00    -0.179 NA
ATOM      4  N   UNL     1       0.744  -1.788  -0.417  0.00  0.00    -0.135 N 
ATOM      5  C   UNL     1       0.559  -1.992   0.904  0.00  0.00    +0.250 C 
ATOM      6  O   UNL     1       0.677  -3.035   1.514  0.00  0.00    -0.273 OA
ATOM      7  C   UNL     1       0.179  -0.635   1.463  0.00  0.00    +0.132 C 
ATOM      8  C   UNL     1       1.111  -2.777  -1.322  0.00  0.00    +0.188 A 
ATOM      9  N   UNL     1       1.321  -2.684  -2.622  0.00  0.00    -0.223 NA
ATOM     10  C   UNL     1       1.670  -3.740  -3.340  0.00  0.00    +0.080 A 
ATOM     11  C   UNL     1       1.816  -4.952  -2.724  0.00  0.00    +0.077 A 
ATOM     12  S   UNL     1       1.433  -4.512  -1.033  0.00  0.00    -0.058 S 
ENDROOT
BRANCH  10  13
ATOM     13  C   UNL     1       1.900  -3.610  -4.800  0.00  0.00    +0.001 A 
ATOM     14  C   UNL     1       2.261  -4.726  -5.553  0.00  0.00    +0.010 A 
ATOM     15  C   UNL     1       2.474  -4.599  -6.911  0.00  0.00    +0.001 A 
ATOM     16  C   UNL     1       2.329  -3.368  -7.524  0.00  0.00    +0.000 A 
ATOM     17  C   UNL     1       1.971  -2.257  -6.782  0.00  0.00    +0.001 A 
ATOM     18  C   UNL     1       1.750  -2.373  -5.424  0.00  0.00    +0.010 A 
ENDBRANCH  10  13
BRANCH   7  19
ATOM     19  C   UNL     1      -1.218  -0.683   2.084  0.00  0.00    +0.062 C 
BRANCH  19  20
ATOM     20  C   UNL     1      -1.571   0.675   2.634  0.00  0.00    -0.042 A 
ATOM     21  C   UNL     1      -0.784   1.249   3.615  0.00  0.00    +0.004 A 
ATOM     22  C   UNL     1      -1.108   2.495   4.119  0.00  0.00    +0.000 A 
ATOM     23  C   UNL     1      -2.218   3.167   3.642  0.00  0.00    +0.000 A 
ATOM     24  C   UNL     1      -3.005   2.593   2.661  0.00  0.00    +0.000 A 
ATOM     25  C   UNL     1      -2.679   1.349   2.153  0.00  0.00    +0.004 A 
ENDBRANCH  19  20
BRANCH  19  26
ATOM     26  C   UNL     1      -1.238  -1.712   3.216  0.00  0.00    +0.185 C 
BRANCH  26  27
ATOM     27  C   UNL     1      -2.577  -1.675   3.906  0.00  0.00    +0.228 C 
ATOM     28  O   UNL     1      -2.655  -1.304   5.059  0.00  0.00    -0.275 OA
ATOM     29  N   UNL     1      -3.688  -2.052   3.244  0.00  0.00    -0.328 N 
ATOM     30  H   UNL     1      -3.637  -2.278   2.302  0.00  0.00    +0.145 HD
ATOM     31  H   UNL     1      -4.538  -2.097   3.708  0.00  0.00    +0.145 HD
ENDBRANCH  26  27
BRANCH  26  32
ATOM     32  C   UNL     1      -0.177  -1.395   4.186  0.00  0.00    +0.076 C 
ATOM     33  N   UNL     1       0.642  -1.151   4.934  0.00  0.00    -0.196 NA
ENDBRANCH  26  32
ENDBRANCH  19  26
ENDBRANCH   7  19
TORSDOF 6
