REMARK  Name = ZINC05676790
REMARK  7 active torsions:
REMARK  status: ('A' for Active; 'I' for Inactive)
REMARK    1  A    between atoms: C_1  and  C_2
REMARK    2  A    between atoms: C_5  and  N_8
REMARK    3  A    between atoms: C_9  and  C_11
REMARK    4  A    between atoms: C_11  and  C_13
REMARK    5  A    between atoms: C_11  and  S_19
REMARK    6  A    between atoms: S_19  and  C_20
REMARK    7  A    between atoms: C_22  and  C_26
REMARK                            x       y       z     vdW  Elec       q    Type
REMARK                         _______ _______ _______ _____ _____    ______ ____
ROOT
ATOM      1  C   UNL     1       0.309  -6.349   1.121  0.00  0.00    +0.170 C 
ENDROOT
BRANCH   1   2
ATOM      2  C   UNL     1       1.755  -6.723   0.924  0.00  0.00    -0.025 A 
ATOM      3  C   UNL     1       2.705  -6.318   1.843  0.00  0.00    +0.005 A 
ATOM      4  C   UNL     1       4.032  -6.661   1.662  0.00  0.00    +0.000 A 
ATOM      5  C   UNL     1       4.409  -7.409   0.562  0.00  0.00    +0.000 A 
ATOM      6  C   UNL     1       3.459  -7.815  -0.356  0.00  0.00    +0.000 A 
ATOM      7  C   UNL     1       2.131  -7.476  -0.173  0.00  0.00    +0.005 A 
ENDBRANCH   1   2
BRANCH   1   9
ATOM      8  N   UNL     1       0.059  -4.170  -0.021  0.00  0.00    -0.284 N 
ATOM      9  C   UNL     1       0.175  -4.848   1.138  0.00  0.00    +0.235 C 
ATOM     10  O   UNL     1       0.173  -4.251   2.193  0.00  0.00    -0.274 OA
ATOM     11  H   UNL     1      -0.007  -4.651  -0.861  0.00  0.00    +0.155 HD
BRANCH   8  16
ATOM     12  C   UNL     1      -0.047   1.502   0.014  0.00  0.00    +0.044 C 
ATOM     13  C   UNL     1      -0.019  -0.004   0.005  0.00  0.00    -0.050 A 
ATOM     14  C   UNL     1      -0.605  -0.712   1.038  0.00  0.00    +0.005 A 
ATOM     15  C   UNL     1      -0.581  -2.093   1.033  0.00  0.00    +0.023 A 
ATOM     16  C   UNL     1       0.032  -2.771  -0.013  0.00  0.00    +0.033 A 
ATOM     17  C   UNL     1       0.620  -2.058  -1.049  0.00  0.00    +0.023 A 
ATOM     18  C   UNL     1       0.588  -0.677  -1.040  0.00  0.00    +0.005 A 
ENDBRANCH   8  16
ENDBRANCH   1   9
BRANCH   1  19
ATOM     19  S   UNL     1      -0.281  -7.026   2.698  0.00  0.00    -0.069 S 
BRANCH  19  20
ATOM     20  C   UNL     1      -0.201  -8.771   2.469  0.00  0.00    +0.186 A 
ATOM     21  N   UNL     1       0.203  -9.390   1.381  0.00  0.00    -0.201 NA
ATOM     22  C   UNL     1       0.130 -10.717   1.564  0.00  0.00    +0.185 A 
ATOM     23  N   UNL     1      -0.322 -10.955   2.775  0.00  0.00    -0.151 NA
ATOM     24  H   UNL     1      -0.869  -9.550   4.281  0.00  0.00    +0.191 HD
ATOM     25  N   UNL     1      -0.539  -9.708   3.383  0.00  0.00    -0.253 N 
BRANCH  22  26
ATOM     26  C   UNL     1       0.501 -11.747   0.563  0.00  0.00    +0.056 A 
ATOM     27  C   UNL     1       0.975 -11.366  -0.690  0.00  0.00    +0.014 A 
ATOM     28  C   UNL     1       1.319 -12.329  -1.617  0.00  0.00    +0.001 A 
ATOM     29  C   UNL     1       1.193 -13.671  -1.306  0.00  0.00    +0.003 A 
ATOM     30  C   UNL     1       0.722 -14.057  -0.065  0.00  0.00    +0.039 A 
ATOM     31  C   UNL     1       0.380 -13.102   0.875  0.00  0.00    +0.134 A 
ATOM     32  F   UNL     1      -0.074 -13.479   2.090  0.00  0.00    -0.205 F 
ENDBRANCH  22  26
ENDBRANCH  19  20
ENDBRANCH   1  19
TORSDOF 6
