REMARK  Name = ZINC67649174
REMARK  6 active torsions:
REMARK  status: ('A' for Active; 'I' for Inactive)
REMARK    1  A    between atoms: C_1  and  C_2
REMARK    2  A    between atoms: C_2  and  C_4
REMARK    3  A    between atoms: C_2  and  S_15
REMARK    4  A    between atoms: N_6  and  C_7
REMARK    5  A    between atoms: S_15  and  C_16
REMARK    6  A    between atoms: C_17  and  N_22
REMARK                            x       y       z     vdW  Elec       q    Type
REMARK                         _______ _______ _______ _____ _____    ______ ____
ROOT
ATOM      1  C   UNL     1      -0.020   1.532  -0.003  0.00  0.00    +0.029 C 
ATOM      2  C   UNL     1       0.003   0.002   0.000  0.00  0.00    +0.136 C 
ENDROOT
BRANCH   2   3
ATOM      3  C   UNL     1       0.707  -0.492  -1.237  0.00  0.00    +0.230 C 
ATOM      4  O   UNL     1       0.066  -0.791  -2.222  0.00  0.00    -0.274 OA
ATOM      5  N   UNL     1       2.051  -0.601  -1.250  0.00  0.00    -0.284 N 
ATOM      6  H   UNL     1       2.569  -0.298  -0.487  0.00  0.00    +0.155 HD
BRANCH   5   7
ATOM      7  C   UNL     1       2.698  -1.150  -2.363  0.00  0.00    +0.036 A 
ATOM      8  C   UNL     1       3.838  -1.925  -2.191  0.00  0.00    +0.026 A 
ATOM      9  C   UNL     1       4.476  -2.467  -3.290  0.00  0.00    +0.043 A 
ATOM     10  C   UNL     1       3.981  -2.238  -4.562  0.00  0.00    +0.159 A 
ATOM     11  C   UNL     1       2.844  -1.465  -4.737  0.00  0.00    +0.160 A 
ATOM     12  C   UNL     1       2.199  -0.925  -3.638  0.00  0.00    +0.064 A 
ATOM     13  F   UNL     1       2.362  -1.242  -5.979  0.00  0.00    -0.202 F 
ATOM     14  F   UNL     1       4.607  -2.769  -5.635  0.00  0.00    -0.202 F 
ENDBRANCH   5   7
ENDBRANCH   2   3
BRANCH   2  15
ATOM     15  S   UNL     1      -1.698  -0.627   0.019  0.00  0.00    -0.091 S 
BRANCH  15  16
ATOM     16  C   UNL     1      -2.332  -0.095   1.575  0.00  0.00    +0.128 A 
ATOM     17  C   UNL     1      -3.639  -0.415   1.933  0.00  0.00    +0.158 A 
ATOM     18  C   UNL     1      -4.123   0.009   3.157  0.00  0.00    +0.037 A 
ATOM     19  C   UNL     1      -3.283   0.743   3.985  0.00  0.00    +0.022 A 
ATOM     20  C   UNL     1      -1.998   1.024   3.566  0.00  0.00    +0.112 A 
ATOM     21  N   UNL     1      -1.560   0.602   2.395  0.00  0.00    -0.246 NA
BRANCH  17  22
ATOM     22  N   UNL     1      -4.497  -1.199   1.017  0.00  0.00    +0.059 N 
ATOM     23  O   UNL     1      -5.631  -1.472   1.337  0.00  0.00    -0.126 OA
ATOM     24  O   UNL     1      -4.066  -1.565  -0.051  0.00  0.00    -0.126 OA
ENDBRANCH  17  22
ENDBRANCH  15  16
ENDBRANCH   2  15
TORSDOF 5
