REMARK  Name = ZINC39664671
REMARK  8 active torsions:
REMARK  status: ('A' for Active; 'I' for Inactive)
REMARK    1  A    between atoms: C_1  and  N_2
REMARK    2  A    between atoms: N_2  and  C_3
REMARK    3  A    between atoms: N_2  and  C_4
REMARK    4  A    between atoms: C_4  and  C_5
REMARK    5  A    between atoms: C_5  and  C_7
REMARK    6  A    between atoms: C_5  and  N_13
REMARK    7  A    between atoms: C_14  and  C_16
REMARK    8  A    between atoms: C_27  and  C_29
REMARK                            x       y       z     vdW  Elec       q    Type
REMARK                         _______ _______ _______ _____ _____    ______ ____
ROOT
ATOM      1  C   UNL     1       0.978  -3.119  -2.320  0.00  0.00    +0.100 C 
ATOM      2  C   UNL     1       0.485  -4.303  -3.180  0.00  0.00    +0.121 C 
ATOM      3  N   UNL     1       1.715  -4.860  -3.791  0.00  0.00    -0.296 N 
ATOM      4  C   UNL     1       2.729  -4.785  -2.711  0.00  0.00    +0.115 C 
ATOM      5  C   UNL     1       2.451  -3.439  -2.013  0.00  0.00    -0.004 C 
ATOM      6  C   UNL     1       2.660  -3.573  -0.508  0.00  0.00    -0.010 C 
ATOM      7  C   UNL     1       4.143  -3.833  -0.225  0.00  0.00    -0.082 C 
ATOM      8  N   UNL     1       4.946  -2.725  -0.754  0.00  0.00    +0.379 N 
ATOM      9  C   UNL     1       4.811  -2.662  -2.215  0.00  0.00    -0.082 C 
ATOM     10  C   UNL     1       3.358  -2.352  -2.582  0.00  0.00    -0.010 C 
ATOM     11  C   UNL     1       1.876  -5.329  -5.044  0.00  0.00    +0.247 C 
ATOM     12  O   UNL     1       0.977  -5.220  -5.854  0.00  0.00    -0.270 OA
ATOM     13  H   UNL     1       4.627  -1.857  -0.351  0.00  0.00    -0.086 HD
ATOM     14  H   UNL     1       5.915  -2.869  -0.513  0.00  0.00    -0.086 HD
ENDROOT
BRANCH  11  15
ATOM     15  C   UNL     1       3.147  -5.975  -5.434  0.00  0.00    +0.037 A 
ATOM     16  C   UNL     1       3.999  -6.491  -4.456  0.00  0.00    +0.014 A 
ATOM     17  C   UNL     1       5.184  -7.094  -4.825  0.00  0.00    +0.016 A 
ATOM     18  C   UNL     1       5.528  -7.187  -6.163  0.00  0.00    +0.018 A 
ATOM     19  C   UNL     1       4.687  -6.677  -7.138  0.00  0.00    +0.016 A 
ATOM     20  C   UNL     1       3.497  -6.078  -6.781  0.00  0.00    +0.014 A 
ATOM     21 BR   UNL     1       7.154  -8.014  -6.662  0.00  0.00    -0.050 Br
ENDBRANCH  11  15
BRANCH   1  23
ATOM     22  N   UNL     1      -0.019  -4.136  -0.298  0.00  0.00    -0.310 N 
ATOM     23  C   UNL     1       0.183  -3.031  -1.042  0.00  0.00    +0.219 C 
ATOM     24  O   UNL     1      -0.275  -1.967  -0.685  0.00  0.00    -0.275 OA
ATOM     25  H   UNL     1       0.407  -4.972  -0.545  0.00  0.00    +0.149 HD
BRANCH  22  26
ATOM     26  C   UNL     1      -0.881  -4.075   0.885  0.00  0.00    +0.087 C 
BRANCH  26  27
ATOM     27  C   UNL     1      -0.315  -4.960   1.966  0.00  0.00    -0.029 A 
ATOM     28  C   UNL     1       0.232  -6.187   1.638  0.00  0.00    +0.005 A 
ATOM     29  C   UNL     1       0.751  -6.999   2.629  0.00  0.00    +0.000 A 
ATOM     30  C   UNL     1       0.723  -6.584   3.947  0.00  0.00    +0.000 A 
ATOM     31  C   UNL     1       0.177  -5.357   4.275  0.00  0.00    +0.000 A 
ATOM     32  C   UNL     1      -0.338  -4.543   3.283  0.00  0.00    +0.005 A 
ENDBRANCH  26  27
BRANCH  26  33
ATOM     33  C   UNL     1      -2.286  -4.553   0.518  0.00  0.00    -0.052 C 
BRANCH  33  35
ATOM     34  C   UNL     1      -4.102  -4.264  -1.024  0.00  0.00    -0.097 C 
ATOM     35  N   UNL     1      -2.830  -3.702  -0.548  0.00  0.00    +0.377 N 
ATOM     36  C   UNL     1      -3.059  -2.348  -0.025  0.00  0.00    -0.097 C 
ATOM     37  H   UNL     1      -2.174  -3.660  -1.314  0.00  0.00    -0.083 HD
ENDBRANCH  33  35
ENDBRANCH  26  33
ENDBRANCH  22  26
ENDBRANCH   1  23
TORSDOF 6
