REMARK  Name = ZINC28293941
REMARK  8 active torsions:
REMARK  status: ('A' for Active; 'I' for Inactive)
REMARK    1  A    between atoms: C_1  and  C_2
REMARK    2  A    between atoms: C_5  and  N_9
REMARK    3  A    between atoms: C_6  and  C_8
REMARK    4  A    between atoms: N_9  and  C_10
REMARK    5  A    between atoms: C_10  and  N_12
REMARK    6  A    between atoms: N_12  and  C_13
REMARK    7  A    between atoms: C_13  and  C_15
REMARK    8  A    between atoms: C_13  and  N_19
REMARK                            x       y       z     vdW  Elec       q    Type
REMARK                         _______ _______ _______ _____ _____    ______ ____
ROOT
ATOM      1  C   UNL     1       1.081  -2.781   3.392  0.00  0.00    +0.212 C 
ENDROOT
BRANCH   1   2
ATOM      2  N   UNL     1       1.748  -1.850   2.478  0.00  0.00    -0.277 N 
ATOM      3  C   UNL     1       1.097  -1.389   1.392  0.00  0.00    +0.304 C 
ATOM      4  O   UNL     1      -0.073  -1.671   1.219  0.00  0.00    -0.253 OA
ATOM      5  N   UNL     1       1.744  -0.616   0.497  0.00  0.00    -0.281 N 
ATOM      6  C   UNL     1       3.125  -0.171   0.738  0.00  0.00    +0.137 C 
ATOM      7  C   UNL     1       3.961  -0.493  -0.506  0.00  0.00    +0.179 C 
ATOM      8  O   UNL     1       3.313   0.046  -1.661  0.00  0.00    -0.377 OA
ATOM      9  C   UNL     1       2.023  -0.512  -1.922  0.00  0.00    +0.179 C 
ATOM     10  C   UNL     1       1.088  -0.191  -0.750  0.00  0.00    +0.137 C 
ATOM     11  H   UNL     1       2.780  -1.528   2.679  0.00  0.00    +0.152 HD
ENDBRANCH   1   2
BRANCH   1  12
ATOM     12  C   UNL     1       1.333  -2.346   4.837  0.00  0.00    +0.225 C 
ATOM     13 CL   UNL     1       0.679  -0.685   5.088  0.00  0.00    -0.080 Cl
ATOM     14 CL   UNL     1       0.512  -3.491   5.961  0.00  0.00    -0.080 Cl
ATOM     15 CL   UNL     1       3.106  -2.350   5.165  0.00  0.00    -0.080 Cl
ENDBRANCH   1  12
BRANCH   1  16
ATOM     16  N   UNL     1       1.612  -4.131   3.188  0.00  0.00    -0.305 N 
ATOM     17  H   UNL     1       2.609  -4.393   3.571  0.00  0.00    +0.150 HD
BRANCH  16  18
ATOM     18  C   UNL     1       0.879  -5.051   2.531  0.00  0.00    +0.136 C 
ATOM     19  S   UNL     1      -0.673  -4.644   1.936  0.00  0.00    -0.019 S 
BRANCH  18  20
ATOM     20  N   UNL     1       1.368  -6.293   2.344  0.00  0.00    -0.297 N 
ATOM     21  H   UNL     1       2.331  -6.579   2.792  0.00  0.00    +0.154 HD
BRANCH  20  26
ATOM     22  C   UNL     1      -1.543 -10.048  -0.757  0.00  0.00    +0.044 C 
ATOM     23  C   UNL     1      -0.769  -9.051   0.067  0.00  0.00    -0.050 A 
ATOM     24  C   UNL     1      -1.417  -8.305   1.035  0.00  0.00    +0.005 A 
ATOM     25  C   UNL     1      -0.712  -7.391   1.792  0.00  0.00    +0.024 A 
ATOM     26  C   UNL     1       0.650  -7.220   1.580  0.00  0.00    +0.036 A 
ATOM     27  C   UNL     1       1.297  -7.966   0.604  0.00  0.00    -0.029 A 
ATOM     28  C   UNL     1       0.586  -8.883  -0.146  0.00  0.00    +0.008 A 
ATOM     29  C   UNL     1       2.773  -7.779   0.366  0.00  0.00    +0.045 C 
ENDBRANCH  20  26
ENDBRANCH  18  20
ENDBRANCH  16  18
ENDBRANCH   1  16
TORSDOF 6
