REMARK  Name = ZINC20113714
REMARK  8 active torsions:
REMARK  status: ('A' for Active; 'I' for Inactive)
REMARK    1  A    between atoms: C_1  and  C_2
REMARK    2  A    between atoms: C_2  and  C_4
REMARK    3  A    between atoms: C_5  and  O_28
REMARK    4  A    between atoms: C_8  and  C_11
REMARK    5  A    between atoms: C_9  and  O_10
REMARK    6  A    between atoms: C_18  and  O_19
REMARK    7  A    between atoms: O_19  and  C_20
REMARK    8  A    between atoms: N_26  and  C_27
REMARK                            x       y       z     vdW  Elec       q    Type
REMARK                         _______ _______ _______ _____ _____    ______ ____
ROOT
ATOM      1  C   UNL     1      -0.204   0.117  -2.476  0.00  0.00    +0.125 C 
ATOM      2  C   UNL     1      -0.033  -0.655  -1.194  0.00  0.00    +0.023 A 
ATOM      3  C   UNL     1       0.022  -2.033  -1.176  0.00  0.00    -0.034 A 
ATOM      4  C   UNL     1       0.197  -2.704   0.025  0.00  0.00    +0.053 A 
ATOM      5  C   UNL     1       0.322  -2.001   1.211  0.00  0.00    +0.170 A 
ATOM      6  C   UNL     1       0.270  -0.611   1.198  0.00  0.00    +0.208 A 
ATOM      7  C   UNL     1       0.095   0.057  -0.006  0.00  0.00    +0.171 A 
ATOM      8  O   UNL     1       0.415  -0.156   2.477  0.00  0.00    -0.449 OA
ATOM      9  C   UNL     1       0.964  -1.262   3.218  0.00  0.00    +0.467 C 
ATOM     10  O   UNL     1       0.500  -2.419   2.499  0.00  0.00    -0.452 OA
ATOM     11  C   UNL     1      -0.113  -2.846  -2.438  0.00  0.00    +0.051 C 
ATOM     12  C   UNL     1       0.126  -1.957  -3.659  0.00  0.00    +0.089 C 
ATOM     13  N   UNL     1      -0.717  -0.757  -3.536  0.00  0.00    -0.294 NA
ATOM     14  C   UNL     1      -0.803  -0.040  -4.815  0.00  0.00    +0.105 C 
ENDROOT
BRANCH   1  19
ATOM     15  C   UNL     1      -3.432   2.024  -1.881  0.00  0.00    +0.100 A 
ATOM     16  C   UNL     1      -2.954   3.345  -1.823  0.00  0.00    +0.131 A 
ATOM     17  C   UNL     1      -1.600   3.593  -1.978  0.00  0.00    +0.046 A 
ATOM     18  C   UNL     1      -0.719   2.547  -2.183  0.00  0.00    +0.013 A 
ATOM     19  C   UNL     1      -1.177   1.244  -2.247  0.00  0.00    +0.017 A 
ATOM     20  C   UNL     1      -2.527   0.970  -2.095  0.00  0.00    +0.136 A 
BRANCH  15  22
ATOM     21  C   UNL     1      -5.744   1.614  -2.933  0.00  0.00    +0.092 C 
ATOM     22  C   UNL     1      -4.861   1.748  -1.719  0.00  0.00    +0.167 C 
ATOM     23  O   UNL     1      -5.334   1.628  -0.608  0.00  0.00    -0.292 OA
ENDBRANCH  15  22
BRANCH  20  24
ATOM     24  O   UNL     1      -2.972  -0.309  -2.152  0.00  0.00    -0.506 OA
ATOM     25  H   UNL     1      -2.262  -1.132  -2.320  0.00  0.00    +0.292 HD
ENDBRANCH  20  24
BRANCH  16  26
ATOM     26  O   UNL     1      -3.815   4.372  -1.617  0.00  0.00    -0.506 OA
ATOM     27  H   UNL     1      -3.438   5.405  -1.573  0.00  0.00    +0.292 HD
ENDBRANCH  16  26
ENDBRANCH   1  19
BRANCH   7  28
ATOM     28  O   UNL     1       0.041   1.416  -0.023  0.00  0.00    -0.491 OA
ATOM     29  C   UNL     1       1.288   2.114  -0.048  0.00  0.00    +0.277 C 
ENDBRANCH   7  28
TORSDOF 5
