REMARK  Name = ZINC66461830
REMARK  8 active torsions:
REMARK  status: ('A' for Active; 'I' for Inactive)
REMARK    1  A    between atoms: C_1  and  C_2
REMARK    2  A    between atoms: C_9  and  N_12
REMARK    3  A    between atoms: C_13  and  C_15
REMARK    4  A    between atoms: C_15  and  C_17
REMARK    5  A    between atoms: C_15  and  N_24
REMARK    6  A    between atoms: C_17  and  C_18
REMARK    7  A    between atoms: C_25  and  O_27
REMARK    8  A    between atoms: O_27  and  C_28
REMARK                            x       y       z     vdW  Elec       q    Type
REMARK                         _______ _______ _______ _____ _____    ______ ____
ROOT
ATOM      1  N   UNL     1       0.045  -1.961   3.623  0.00  0.00    -0.282 N 
ATOM      2  C   UNL     1      -0.042  -2.620   4.795  0.00  0.00    +0.238 C 
ATOM      3  O   UNL     1      -0.025  -3.833   4.811  0.00  0.00    -0.273 OA
ATOM      4  H   UNL     1       0.097  -0.992   3.614  0.00  0.00    +0.155 HD
ENDROOT
BRANCH   1  13
ATOM      5  C   UNL     1      -2.408   0.903   0.331  0.00  0.00    +0.065 C 
ATOM      6  C   UNL     1      -1.738  -0.444   0.237  0.00  0.00    +0.039 A 
ATOM      7  C   UNL     1      -1.745  -1.122  -0.980  0.00  0.00    +0.023 A 
ATOM      8  C   UNL     1      -1.142  -2.343  -1.083  0.00  0.00    +0.012 A 
ATOM      9  C   UNL     1      -0.526  -2.879   0.064  0.00  0.00    +0.002 A 
ATOM     10  C   UNL     1       0.113  -4.130   0.032  0.00  0.00    +0.010 A 
ATOM     11  C   UNL     1       0.700  -4.621   1.159  0.00  0.00    +0.003 A 
ATOM     12  C   UNL     1       0.677  -3.901   2.350  0.00  0.00    +0.025 A 
ATOM     13  C   UNL     1       0.060  -2.672   2.421  0.00  0.00    +0.060 A 
ATOM     14  C   UNL     1      -0.556  -2.136   1.269  0.00  0.00    +0.092 A 
ATOM     15  N   UNL     1      -1.158  -0.944   1.302  0.00  0.00    -0.250 NA
ENDBRANCH   1  13
BRANCH   2  16
ATOM     16  C   UNL     1      -0.161  -1.851   6.086  0.00  0.00    +0.167 C 
BRANCH  16  17
ATOM     17  N   UNL     1       0.233  -2.710   7.205  0.00  0.00    -0.270 N 
ATOM     18  C   UNL     1      -0.438  -3.854   7.445  0.00  0.00    +0.401 C 
ATOM     19  O   UNL     1      -1.369  -4.173   6.733  0.00  0.00    -0.226 OA
ATOM     20  H   UNL     1       0.977  -2.456   7.773  0.00  0.00    +0.153 HD
BRANCH  18  21
ATOM     21  O   UNL     1      -0.075  -4.644   8.473  0.00  0.00    -0.454 OA
ATOM     22  C   UNL     1      -0.830  -5.842   8.669  0.00  0.00    +0.282 C 
ENDBRANCH  18  21
ENDBRANCH  16  17
BRANCH  16  23
ATOM     23  C   UNL     1      -1.610  -1.397   6.277  0.00  0.00    +0.067 C 
BRANCH  23  24
ATOM     24  C   UNL     1      -1.705  -0.525   7.502  0.00  0.00    -0.045 A 
ATOM     25  C   UNL     1      -1.958  -1.093   8.737  0.00  0.00    +0.004 A 
ATOM     26  C   UNL     1      -2.045  -0.293   9.861  0.00  0.00    +0.000 A 
ATOM     27  C   UNL     1      -1.879   1.075   9.750  0.00  0.00    +0.000 A 
ATOM     28  C   UNL     1      -1.626   1.643   8.516  0.00  0.00    +0.000 A 
ATOM     29  C   UNL     1      -1.534   0.842   7.393  0.00  0.00    +0.004 A 
ENDBRANCH  23  24
ENDBRANCH  16  23
ENDBRANCH   2  16
TORSDOF 6
