REMARK  Name = ZINC39132455
REMARK  10 active torsions:
REMARK  status: ('A' for Active; 'I' for Inactive)
REMARK    1  A    between atoms: C_1  and  C_2
REMARK    2  A    between atoms: C_2  and  O_4
REMARK    3  A    between atoms: O_4  and  C_5
REMARK    4  A    between atoms: C_8  and  C_11
REMARK    5  A    between atoms: C_11  and  C_12
REMARK    6  A    between atoms: C_18  and  C_30
REMARK    7  A    between atoms: C_23  and  C_24
REMARK    8  A    between atoms: C_33  and  O_36
REMARK    9  A    between atoms: O_36  and  C_37
REMARK   10  A    between atoms: C_37  and  C_39
REMARK                            x       y       z     vdW  Elec       q    Type
REMARK                         _______ _______ _______ _____ _____    ______ ____
ROOT
ATOM      1  C   UNL     1      -1.378  -6.908   1.199  0.00  0.00    +0.198 C 
ATOM      2  C   UNL     1      -1.584  -8.393   0.968  0.00  0.00    +0.250 C 
ATOM      3  O   UNL     1      -0.818  -9.168   0.436  0.00  0.00    -0.273 OA
ATOM      4  N   UNL     1      -2.792  -8.667   1.476  0.00  0.00    -0.226 N 
ATOM      5  C   UNL     1      -3.465  -9.892   1.542  0.00  0.00    +0.110 C 
ATOM      6  C   UNL     1      -4.779  -9.895   1.840  0.00  0.00    +0.075 C 
ATOM      7  N   UNL     1      -5.474  -8.694   2.060  0.00  0.00    -0.210 NA
ATOM      8  C   UNL     1      -4.737  -7.608   2.590  0.00  0.00    +0.094 C 
ATOM      9  C   UNL     1      -3.374  -7.505   1.993  0.00  0.00    +0.151 C 
ATOM     10  N   UNL     1      -2.616  -6.471   1.871  0.00  0.00    -0.254 NA
ATOM     11  C   UNL     1      -5.214  -6.761   3.531  0.00  0.00    +0.036 C 
ENDROOT
BRANCH  11  12
ATOM     12  C   UNL     1      -6.505  -7.035   4.181  0.00  0.00    -0.023 A 
ATOM     13  C   UNL     1      -7.077  -6.087   5.037  0.00  0.00    +0.008 A 
ATOM     14  C   UNL     1      -8.287  -6.351   5.642  0.00  0.00    +0.001 A 
ATOM     15  C   UNL     1      -8.936  -7.551   5.405  0.00  0.00    +0.000 A 
ATOM     16  C   UNL     1      -8.377  -8.493   4.560  0.00  0.00    +0.001 A 
ATOM     17  C   UNL     1      -7.170  -8.242   3.942  0.00  0.00    +0.008 A 
ENDBRANCH  11  12
BRANCH   6  18
ATOM     18  C   UNL     1      -5.501 -11.182   1.938  0.00  0.00    -0.001 A 
ATOM     19  C   UNL     1      -4.821 -12.383   1.727  0.00  0.00    +0.013 A 
ATOM     20  C   UNL     1      -5.498 -13.581   1.819  0.00  0.00    +0.047 A 
ATOM     21  C   UNL     1      -6.853 -13.594   2.121  0.00  0.00    +0.132 A 
ATOM     22  C   UNL     1      -7.533 -12.401   2.331  0.00  0.00    +0.047 A 
ATOM     23  C   UNL     1      -6.862 -11.199   2.246  0.00  0.00    +0.013 A 
BRANCH  21  24
ATOM     24  O   UNL     1      -7.516 -14.776   2.211  0.00  0.00    -0.426 OA
BRANCH  24  25
ATOM     25  C   UNL     1      -7.300 -15.539   3.294  0.00  0.00    +0.309 C 
ATOM     26  O   UNL     1      -6.598 -15.132   4.190  0.00  0.00    -0.251 OA
ATOM     27  C   UNL     1      -7.933 -16.904   3.394  0.00  0.00    +0.136 C 
ENDBRANCH  24  25
ENDBRANCH  21  24
ENDBRANCH   6  18
BRANCH   1  28
ATOM     28  C   UNL     1      -1.205  -6.177  -0.134  0.00  0.00    +0.071 C 
BRANCH  28  32
ATOM     29  C   UNL     1      -0.415  -2.042   0.600  0.00  0.00    +0.132 A 
ATOM     30  C   UNL     1       0.634  -2.944   0.508  0.00  0.00    +0.046 A 
ATOM     31  C   UNL     1       0.376  -4.280   0.270  0.00  0.00    +0.007 A 
ATOM     32  C   UNL     1      -0.927  -4.719   0.125  0.00  0.00    -0.045 A 
ATOM     33  C   UNL     1      -1.975  -3.821   0.216  0.00  0.00    +0.007 A 
ATOM     34  C   UNL     1      -1.722  -2.485   0.459  0.00  0.00    +0.046 A 
BRANCH  29  35
ATOM     35  O   UNL     1      -0.164  -0.727   0.834  0.00  0.00    -0.426 OA
BRANCH  35  37
ATOM     36  C   UNL     1       0.523   1.494   0.001  0.00  0.00    +0.136 C 
ATOM     37  C   UNL     1       0.334   0.009  -0.172  0.00  0.00    +0.309 C 
ATOM     38  O   UNL     1       0.631  -0.520  -1.218  0.00  0.00    -0.251 OA
ENDBRANCH  35  37
ENDBRANCH  29  35
ENDBRANCH  28  32
ENDBRANCH   1  28
TORSDOF 8
