REMARK  Name = ZINC08856050
REMARK  5 active torsions:
REMARK  status: ('A' for Active; 'I' for Inactive)
REMARK    1  A    between atoms: C_3  and  C_10
REMARK    2  A    between atoms: C_5  and  N_7
REMARK    3  A    between atoms: C_17  and  N_34
REMARK    4  A    between atoms: C_18  and  C_32
REMARK    5  A    between atoms: C_19  and  C_21
REMARK                            x       y       z     vdW  Elec       q    Type
REMARK                         _______ _______ _______ _____ _____    ______ ____
ROOT
ATOM      1  C   UNL     1       3.925   2.402   0.111  0.00  0.00    +0.100 A 
ATOM      2  C   UNL     1       4.037   3.507  -0.738  0.00  0.00    +0.054 A 
ATOM      3  C   UNL     1       5.300   4.009  -0.615  0.00  0.00    +0.223 A 
ATOM      4  N   UNL     1       5.959   3.246   0.282  0.00  0.00    -0.246 N 
ATOM      5  H   UNL     1       6.877   3.369   0.570  0.00  0.00    +0.192 HD
ATOM      6  N   UNL     1       5.080   2.247   0.730  0.00  0.00    -0.171 NA
ATOM      7  O   UNL     1       5.730   5.089  -1.314  0.00  0.00    -0.423 OA
ATOM      8  C   UNL     1       4.973   5.506  -2.348  0.00  0.00    +0.200 C 
ATOM      9  C   UNL     1       3.705   5.091  -2.567  0.00  0.00    +0.098 C 
ATOM     10  C   UNL     1       3.007   4.111  -1.658  0.00  0.00    +0.107 C 
ENDROOT
BRANCH  10  11
ATOM     11  C   UNL     1       1.958   4.827  -0.847  0.00  0.00    +0.042 A 
ATOM     12  C   UNL     1       2.329   5.833   0.028  0.00  0.00    +0.168 A 
ATOM     13  C   UNL     1       1.365   6.493   0.774  0.00  0.00    +0.197 A 
ATOM     14  C   UNL     1       0.030   6.144   0.644  0.00  0.00    +0.199 A 
ATOM     15  C   UNL     1      -0.340   5.137  -0.233  0.00  0.00    +0.197 A 
ATOM     16  C   UNL     1       0.625   4.482  -0.982  0.00  0.00    +0.168 A 
ATOM     17  F   UNL     1       0.264   3.504  -1.841  0.00  0.00    -0.202 F 
ATOM     18  F   UNL     1      -1.641   4.796  -0.360  0.00  0.00    -0.199 F 
ATOM     19  F   UNL     1      -0.911   6.786   1.371  0.00  0.00    -0.199 F 
ATOM     20  F   UNL     1       1.726   7.475   1.629  0.00  0.00    -0.199 F 
ATOM     21  F   UNL     1       3.630   6.173   0.155  0.00  0.00    -0.202 F 
ENDBRANCH  10  11
BRANCH   1  24
ATOM     22  C   UNL     1       0.838   0.393  -0.645  0.00  0.00    +0.003 A 
ATOM     23  C   UNL     1       1.958   1.181  -0.816  0.00  0.00    +0.010 A 
ATOM     24  C   UNL     1       2.719   1.556   0.289  0.00  0.00    +0.005 A 
ATOM     25  C   UNL     1       2.342   1.134   1.563  0.00  0.00    +0.042 A 
ATOM     26  C   UNL     1       1.220   0.347   1.723  0.00  0.00    +0.127 A 
ATOM     27  C   UNL     1       0.469  -0.023   0.622  0.00  0.00    +0.033 A 
BRANCH  26  28
ATOM     28  N   UNL     1       0.820  -0.102   3.075  0.00  0.00    +0.056 N 
ATOM     29  O   UNL     1       1.475   0.220   4.038  0.00  0.00    -0.126 OA
ATOM     30  O   UNL     1      -0.164  -0.791   3.216  0.00  0.00    -0.126 OA
ENDBRANCH  26  28
ENDBRANCH   1  24
BRANCH   8  31
ATOM     31  N   UNL     1       5.521   6.404  -3.230  0.00  0.00    -0.328 N 
ATOM     32  H   UNL     1       6.428   6.720  -3.099  0.00  0.00    +0.145 HD
ATOM     33  H   UNL     1       5.000   6.722  -3.984  0.00  0.00    +0.145 HD
ENDBRANCH   8  31
BRANCH   9  34
ATOM     34  C   UNL     1       2.999   5.602  -3.703  0.00  0.00    +0.101 C 
ATOM     35  N   UNL     1       2.438   6.007  -4.605  0.00  0.00    -0.191 NA
ENDBRANCH   9  34
TORSDOF 5
