REMARK  Name = ZINC39696211
REMARK  7 active torsions:
REMARK  status: ('A' for Active; 'I' for Inactive)
REMARK    1  A    between atoms: C_1  and  C_2
REMARK    2  A    between atoms: C_2  and  C_3
REMARK    3  A    between atoms: C_6  and  C_9
REMARK    4  A    between atoms: C_9  and  C_11
REMARK    5  A    between atoms: C_9  and  N_12
REMARK    6  A    between atoms: C_13  and  C_15
REMARK    7  A    between atoms: C_26  and  C_28
REMARK                            x       y       z     vdW  Elec       q    Type
REMARK                         _______ _______ _______ _____ _____    ______ ____
ROOT
ATOM      1  C   UNL     1       5.888  -0.338  -6.233  0.00  0.00    +0.100 C 
ATOM      2  C   UNL     1       5.729   1.166  -5.918  0.00  0.00    +0.121 C 
ATOM      3  N   UNL     1       6.631   1.847  -6.876  0.00  0.00    -0.297 N 
ATOM      4  C   UNL     1       6.470   1.086  -8.138  0.00  0.00    +0.115 C 
ATOM      5  C   UNL     1       6.374  -0.387  -7.692  0.00  0.00    -0.004 C 
ATOM      6  C   UNL     1       5.368  -1.136  -8.559  0.00  0.00    -0.010 C 
ATOM      7  C   UNL     1       5.900  -1.222  -9.993  0.00  0.00    -0.082 C 
ATOM      8  N   UNL     1       7.193  -1.918  -9.995  0.00  0.00    +0.379 N 
ATOM      9  C   UNL     1       8.181  -1.142  -9.235  0.00  0.00    -0.082 C 
ATOM     10  C   UNL     1       7.744  -1.053  -7.770  0.00  0.00    -0.010 C 
ATOM     11  C   UNL     1       7.419   2.917  -6.652  0.00  0.00    +0.260 C 
ATOM     12  O   UNL     1       8.106   3.363  -7.546  0.00  0.00    -0.271 OA
ATOM     13  H   UNL     1       7.084  -2.828  -9.573  0.00  0.00    -0.086 HD
ATOM     14  H   UNL     1       7.513  -2.027 -10.946  0.00  0.00    -0.086 HD
ENDROOT
BRANCH  11  15
ATOM     15  C   UNL     1       7.447   3.559  -5.288  0.00  0.00    +0.296 C 
ATOM     16  C   UNL     1       6.077   4.178  -4.980  0.00  0.00    +0.283 C 
ATOM     17  O   UNL     1       6.143   4.790  -3.687  0.00  0.00    -0.484 OA
ATOM     18  C   UNL     1       7.231   5.567  -3.433  0.00  0.00    +0.162 A 
ATOM     19  C   UNL     1       7.195   6.464  -2.376  0.00  0.00    +0.049 A 
ATOM     20  C   UNL     1       8.293   7.257  -2.103  0.00  0.00    +0.004 A 
ATOM     21  C   UNL     1       9.430   7.159  -2.883  0.00  0.00    +0.004 A 
ATOM     22  C   UNL     1       9.472   6.268  -3.939  0.00  0.00    +0.049 A 
ATOM     23  C   UNL     1       8.373   5.470  -4.219  0.00  0.00    +0.163 A 
ATOM     24  O   UNL     1       8.427   4.603  -5.266  0.00  0.00    -0.473 OA
ENDBRANCH  11  15
BRANCH   1  26
ATOM     25  N   UNL     1       4.529  -2.348  -5.753  0.00  0.00    -0.308 N 
ATOM     26  C   UNL     1       4.564  -1.046  -6.098  0.00  0.00    +0.219 C 
ATOM     27  O   UNL     1       3.531  -0.444  -6.299  0.00  0.00    -0.275 OA
ATOM     28  H   UNL     1       5.355  -2.830  -5.592  0.00  0.00    +0.149 HD
BRANCH  25  29
ATOM     29  C   UNL     1       3.242  -3.036  -5.621  0.00  0.00    +0.100 C 
ATOM     30  C   UNL     1       2.789  -3.539  -6.993  0.00  0.00    +0.033 C 
BRANCH  29  34
ATOM     31  C   UNL     1       3.666  -6.353  -2.962  0.00  0.00    -0.048 A 
ATOM     32  C   UNL     1       2.529  -5.567  -2.911  0.00  0.00    +0.004 A 
ATOM     33  C   UNL     1       2.393  -4.494  -3.772  0.00  0.00    +0.006 A 
ATOM     34  C   UNL     1       3.392  -4.206  -4.682  0.00  0.00    -0.027 A 
ATOM     35  C   UNL     1       4.529  -4.991  -4.732  0.00  0.00    +0.006 A 
ATOM     36  C   UNL     1       4.667  -6.062  -3.869  0.00  0.00    +0.004 A 
BRANCH  31  38
ATOM     37  C   UNL     1       4.496  -7.059  -0.734  0.00  0.00    +0.009 C 
ATOM     38  C   UNL     1       3.815  -7.523  -2.024  0.00  0.00    +0.032 C 
ENDBRANCH  31  38
ENDBRANCH  29  34
ENDBRANCH  25  29
ENDBRANCH   1  26
TORSDOF 5
