REMARK  Name = ZINC12598902
REMARK  7 active torsions:
REMARK  status: ('A' for Active; 'I' for Inactive)
REMARK    1  A    between atoms: C_1  and  C_2
REMARK    2  A    between atoms: C_9  and  N_14
REMARK    3  A    between atoms: C_15  and  C_17
REMARK    4  A    between atoms: C_18  and  C_19
REMARK    5  A    between atoms: C_22  and  C_25
REMARK    6  A    between atoms: C_25  and  O_27
REMARK    7  A    between atoms: O_27  and  C_28
REMARK                            x       y       z     vdW  Elec       q    Type
REMARK                         _______ _______ _______ _____ _____    ______ ____
ROOT
ATOM      1  N   UNL     1      -6.326   7.416   0.075  0.00  0.00    -0.282 N 
ATOM      2  C   UNL     1      -6.316   6.077   0.234  0.00  0.00    +0.241 C 
ATOM      3  O   UNL     1      -7.361   5.475   0.392  0.00  0.00    -0.270 OA
ATOM      4  H   UNL     1      -5.490   7.905   0.026  0.00  0.00    +0.155 HD
ENDROOT
BRANCH   1  12
ATOM      5  C   UNL     1     -13.345  10.389  -1.250  0.00  0.00    +0.062 C 
ATOM      6  C   UNL     1     -11.932   9.842  -1.459  0.00  0.00    +0.256 C 
ATOM      7  C   UNL     1     -11.999   8.352  -1.679  0.00  0.00    +0.258 C 
ATOM      8  O   UNL     1     -12.986   7.853  -2.177  0.00  0.00    -0.271 OA
ATOM      9  N   UNL     1     -10.954   7.574  -1.320  0.00  0.00    -0.279 N 
ATOM     10  C   UNL     1      -9.838   8.171  -0.716  0.00  0.00    +0.077 A 
ATOM     11  C   UNL     1      -8.635   7.493  -0.629  0.00  0.00    +0.050 A 
ATOM     12  C   UNL     1      -7.544   8.100  -0.021  0.00  0.00    +0.036 A 
ATOM     13  C   UNL     1      -7.658   9.387   0.489  0.00  0.00    +0.027 A 
ATOM     14  C   UNL     1      -8.859  10.066   0.397  0.00  0.00    +0.049 A 
ATOM     15  C   UNL     1      -9.950   9.464  -0.205  0.00  0.00    +0.143 A 
ATOM     16  O   UNL     1     -11.137  10.122  -0.304  0.00  0.00    -0.478 OA
ATOM     17  H   UNL     1     -10.975   6.617  -1.478  0.00  0.00    +0.155 HD
ENDBRANCH   1  12
BRANCH   2  18
ATOM     18  C   UNL     1      -5.045   5.347   0.218  0.00  0.00    +0.068 C 
ATOM     19  C   UNL     1      -5.034   4.009   0.378  0.00  0.00    +0.013 C 
BRANCH  19  20
ATOM     20  C   UNL     1      -3.757   3.276   0.362  0.00  0.00    -0.025 A 
ATOM     21  C   UNL     1      -3.746   1.887   0.528  0.00  0.00    +0.009 A 
ATOM     22  C   UNL     1      -2.552   1.202   0.513  0.00  0.00    +0.015 A 
ATOM     23  C   UNL     1      -1.352   1.894   0.333  0.00  0.00    +0.059 A 
ATOM     24  C   UNL     1      -1.362   3.282   0.173  0.00  0.00    +0.015 A 
ATOM     25  C   UNL     1      -2.555   3.968   0.181  0.00  0.00    +0.009 A 
BRANCH  23  26
ATOM     26  C   UNL     1      -0.070   1.158   0.317  0.00  0.00    +0.339 C 
ATOM     27  O   UNL     1      -0.061  -0.048   0.461  0.00  0.00    -0.245 OA
BRANCH  26  28
ATOM     28  O   UNL     1       1.087   1.824   0.138  0.00  0.00    -0.464 OA
ATOM     29  C   UNL     1       2.306   1.036   0.128  0.00  0.00    +0.280 C 
ENDBRANCH  26  28
ENDBRANCH  23  26
ENDBRANCH  19  20
ENDBRANCH   2  18
TORSDOF 5
