REMARK  Name = ZINC14982181
REMARK  14 active torsions:
REMARK  status: ('A' for Active; 'I' for Inactive)
REMARK    1  A    between atoms: C_1  and  C_2
REMARK    2  A    between atoms: C_2  and  C_3
REMARK    3  A    between atoms: C_3  and  C_4
REMARK    4  A    between atoms: C_4  and  C_19
REMARK    5  A    between atoms: N_7  and  C_11
REMARK    6  A    between atoms: C_11  and  C_12
REMARK    7  A    between atoms: C_12  and  C_13
REMARK    8  A    between atoms: C_18  and  N_78
REMARK    9  A    between atoms: C_24  and  C_25
REMARK   10  A    between atoms: C_24  and  N_80
REMARK   11  A    between atoms: C_27  and  C_34
REMARK   12  A    between atoms: C_28  and  O_32
REMARK   13  A    between atoms: C_30  and  C_31
REMARK   14  A    between atoms: O_32  and  C_33
REMARK                            x       y       z     vdW  Elec       q    Type
REMARK                         _______ _______ _______ _____ _____    ______ ____
ROOT
ATOM      1  C   UNL     1       0.047   5.725  -1.459  0.00  0.00    +0.115 C 
ATOM      2  C   UNL     1      -0.637   6.095  -0.158  0.00  0.00    +0.247 C 
ATOM      3  O   UNL     1      -1.679   5.651   0.273  0.00  0.00    -0.273 OA
ATOM      4  N   UNL     1       0.154   7.021   0.418  0.00  0.00    -0.224 N 
ATOM      5  C   UNL     1       1.232   7.285  -0.330  0.00  0.00    +0.309 C 
ATOM      6  O   UNL     1       2.091   8.086  -0.018  0.00  0.00    -0.252 OA
ATOM      7  N   UNL     1       1.258   6.564  -1.465  0.00  0.00    -0.285 N 
ATOM      8  H   UNL     1       1.941   6.591  -2.153  0.00  0.00    +0.151 HD
ENDROOT
BRANCH   1   9
ATOM      9  C   UNL     1       0.421   4.241  -1.467  0.00  0.00    +0.018 C 
ATOM     10  C   UNL     1       1.257   3.917  -0.226  0.00  0.00    -0.013 C 
ATOM     11  C   UNL     1       1.576   2.420  -0.208  0.00  0.00    -0.078 C 
ATOM     12  C   UNL     1      -0.474   1.911  -1.396  0.00  0.00    -0.078 C 
ATOM     13  C   UNL     1      -0.854   3.392  -1.450  0.00  0.00    -0.013 C 
ATOM     14  N   UNL     1       0.309   1.660  -0.167  0.00  0.00    +0.382 N 
ATOM     15  H   UNL     1      -0.239   1.969   0.645  0.00  0.00    -0.081 HD
BRANCH  14  16
ATOM     16  C   UNL     1       0.591   0.216  -0.034  0.00  0.00    -0.043 C 
BRANCH  16  17
ATOM     17  C   UNL     1      -0.679  -0.489   0.367  0.00  0.00    -0.061 A 
ATOM     18  C   UNL     1      -1.359  -1.264  -0.555  0.00  0.00    +0.009 A 
ATOM     19  C   UNL     1      -2.524  -1.911  -0.190  0.00  0.00    -0.009 A 
ATOM     20  C   UNL     1      -3.011  -1.783   1.103  0.00  0.00    +0.123 A 
ATOM     21  C   UNL     1      -2.327  -1.006   2.026  0.00  0.00    +0.049 A 
ATOM     22  C   UNL     1      -1.160  -0.365   1.657  0.00  0.00    -0.046 A 
ATOM     23  C   UNL     1      -0.413   0.476   2.661  0.00  0.00    +0.044 C 
ATOM     24  C   UNL     1      -3.264  -2.756  -1.194  0.00  0.00    +0.047 C 
BRANCH  20  25
ATOM     25  O   UNL     1      -4.157  -2.418   1.465  0.00  0.00    -0.495 OA
ATOM     26  C   UNL     1      -4.599  -2.242   2.812  0.00  0.00    +0.277 C 
ENDBRANCH  20  25
ENDBRANCH  16  17
ENDBRANCH  14  16
ENDBRANCH   1   9
BRANCH   1  27
ATOM     27  C   UNL     1      -0.849   6.059  -2.653  0.00  0.00    +0.035 C 
BRANCH  27  29
ATOM     28  C   UNL     1      -2.002   7.901  -3.886  0.00  0.00    +0.004 C 
ATOM     29  C   UNL     1      -1.105   7.567  -2.692  0.00  0.00    -0.001 C 
ENDBRANCH  27  29
ENDBRANCH   1  27
BRANCH   4  30
ATOM     30  C   UNL     1      -0.130   7.661   1.706  0.00  0.00    +0.116 C 
BRANCH  30  31
ATOM     31  C   UNL     1       0.498   6.839   2.833  0.00  0.00    +0.004 C 
BRANCH  31  32
ATOM     32  C   UNL     1       0.299   7.564   4.165  0.00  0.00    -0.068 C 
ATOM     33  C   UNL     1       1.085   8.893   4.178  0.00  0.00    -0.017 C 
ATOM     34  C   UNL     1       1.619   9.029   5.618  0.00  0.00    -0.020 C 
ATOM     35  C   UNL     1       1.111   7.771   6.355  0.00  0.00    -0.079 C 
ATOM     36  C   UNL     1      -0.049   5.723   5.721  0.00  0.00    -0.096 C 
ATOM     37  N   UNL     1       0.884   6.809   5.278  0.00  0.00    +0.380 N 
ATOM     38  H   UNL     1       1.775   6.390   4.989  0.00  0.00    -0.082 HD
ENDBRANCH  31  32
ENDBRANCH  30  31
ENDBRANCH   4  30
TORSDOF 9
