REMARK  Name = ZINC03024074
REMARK  6 active torsions:
REMARK  status: ('A' for Active; 'I' for Inactive)
REMARK    1  A    between atoms: C_3  and  O_9
REMARK    2  A    between atoms: O_9  and  C_10
REMARK    3  A    between atoms: C_10  and  C_11
REMARK    4  A    between atoms: N_13  and  N_14
REMARK    5  A    between atoms: C_15  and  C_16
REMARK    6  A    between atoms: C_19  and  O_23
REMARK                            x       y       z     vdW  Elec       q    Type
REMARK                         _______ _______ _______ _____ _____    ______ ____
ROOT
ATOM      1  C   UNL     1       1.030   3.512   0.011  0.00  0.00    +0.270 C 
ATOM      2  O   UNL     1      -0.097   3.961   0.024  0.00  0.00    -0.270 OA
ATOM      3  N   UNL     1       2.088   4.348   0.005  0.00  0.00    -0.204 N 
ATOM      4  H   UNL     1       2.989   3.989  -0.005  0.00  0.00    +0.177 HD
ENDROOT
BRANCH   3   5
ATOM      5  N   UNL     1       1.885   5.734   0.015  0.00  0.00    -0.188 NA
ATOM      6  C   UNL     1       2.904   6.539   0.009  0.00  0.00    +0.138 C 
BRANCH   6   7
ATOM      7  C   UNL     1       2.691   7.997   0.019  0.00  0.00    -0.003 A 
ATOM      8  C   UNL     1       1.393   8.516   0.029  0.00  0.00    +0.028 A 
ATOM      9  C   UNL     1       1.199   9.881   0.043  0.00  0.00    +0.061 A 
ATOM     10  C   UNL     1       2.290  10.741   0.037  0.00  0.00    +0.145 A 
ATOM     11  C   UNL     1       3.582  10.229   0.023  0.00  0.00    +0.061 A 
ATOM     12  C   UNL     1       3.786   8.865   0.013  0.00  0.00    +0.028 A 
ATOM     13 BR   UNL     1       5.063  11.405   0.015  0.00  0.00    -0.046 Br
ATOM     14 BR   UNL     1      -0.556  10.584   0.064  0.00  0.00    -0.046 Br
BRANCH  10  15
ATOM     15  O   UNL     1       2.094  12.085   0.046  0.00  0.00    -0.505 OA
ATOM     16  H   UNL     1       2.029  12.479  -0.835  0.00  0.00    +0.292 HD
ENDBRANCH  10  15
ENDBRANCH   6   7
ENDBRANCH   3   5
BRANCH   1  17
ATOM     17  C   UNL     1       1.248   2.021   0.001  0.00  0.00    +0.326 C 
BRANCH  17  18
ATOM     18  O   UNL     1      -0.016   1.355   0.009  0.00  0.00    -0.481 OA
BRANCH  18  21
ATOM     19  C   UNL     1       1.228  -2.064  -0.020  0.00  0.00    +0.023 A 
ATOM     20  C   UNL     1       1.212  -0.682  -0.013  0.00  0.00    +0.048 A 
ATOM     21  C   UNL     1       0.002  -0.004   0.002  0.00  0.00    +0.140 A 
ATOM     22  C   UNL     1      -1.190  -0.716   0.015  0.00  0.00    +0.084 A 
ATOM     23  C   UNL     1      -1.169  -2.098   0.003  0.00  0.00    +0.043 A 
ATOM     24  C   UNL     1       0.040  -2.771  -0.012  0.00  0.00    +0.043 A 
ATOM     25 CL   UNL     1       0.064  -4.507  -0.021  0.00  0.00    -0.083 Cl
ATOM     26 CL   UNL     1      -2.706   0.130   0.042  0.00  0.00    -0.080 Cl
ENDBRANCH  18  21
ENDBRANCH  17  18
ENDBRANCH   1  17
TORSDOF 6
