REMARK  Name = ZINC12541334
REMARK  10 active torsions:
REMARK  status: ('A' for Active; 'I' for Inactive)
REMARK    1  A    between atoms: C_6  and  S_7
REMARK    2  A    between atoms: S_7  and  N_10
REMARK    3  A    between atoms: N_10  and  C_11
REMARK    4  A    between atoms: C_11  and  C_13
REMARK    5  A    between atoms: C_11  and  C_15
REMARK    6  A    between atoms: C_13  and  O_14
REMARK    7  A    between atoms: C_15  and  O_17
REMARK    8  A    between atoms: O_17  and  C_18
REMARK    9  A    between atoms: C_18  and  C_19
REMARK   10  A    between atoms: C_19  and  C_21
REMARK                            x       y       z     vdW  Elec       q    Type
REMARK                         _______ _______ _______ _____ _____    ______ ____
ROOT
ATOM      1  C   UNL     1       1.145   3.085   0.008  0.00  0.00    +0.210 C 
ENDROOT
BRANCH   1   2
ATOM      2  N   UNL     1       0.530   3.511   1.268  0.00  0.00    -0.174 NA
ATOM      3  H   UNL     1      -0.435   3.514   1.360  0.00  0.00    +0.149 HD
BRANCH   2   4
ATOM      4  S   UNL     1       1.484   3.987   2.535  0.00  0.00    +0.059 S 
ATOM      5  O   UNL     1       0.606   4.360   3.587  0.00  0.00    -0.153 OA
ATOM      6  O   UNL     1       2.480   2.985   2.692  0.00  0.00    -0.153 OA
BRANCH   4  12
ATOM      7  C   UNL     1       3.553   5.369   1.413  0.00  0.00    +0.029 A 
ATOM      8  C   UNL     1       4.208   6.520   1.015  0.00  0.00    +0.017 A 
ATOM      9  C   UNL     1       3.635   7.757   1.249  0.00  0.00    +0.018 A 
ATOM     10  C   UNL     1       2.405   7.842   1.875  0.00  0.00    +0.017 A 
ATOM     11  C   UNL     1       1.749   6.691   2.268  0.00  0.00    +0.029 A 
ATOM     12  C   UNL     1       2.321   5.454   2.034  0.00  0.00    +0.105 A 
ATOM     13 BR   UNL     1       4.534   9.332   0.711  0.00  0.00    -0.050 Br
ENDBRANCH   4  12
ENDBRANCH   2   4
ENDBRANCH   1   2
BRANCH   1  14
ATOM     14  C   UNL     1       0.276   3.516  -1.146  0.00  0.00    +0.329 C 
ATOM     15  O   UNL     1      -0.751   4.117  -0.936  0.00  0.00    -0.249 OA
BRANCH  14  16
ATOM     16  O   UNL     1       0.643   3.232  -2.405  0.00  0.00    -0.456 OA
BRANCH  16  17
ATOM     17  C   UNL     1      -0.242   3.678  -3.466  0.00  0.00    +0.306 C 
BRANCH  17  18
ATOM     18  C   UNL     1       0.329   3.273  -4.801  0.00  0.00    +0.177 C 
ATOM     19  O   UNL     1       1.374   2.671  -4.852  0.00  0.00    -0.293 OA
BRANCH  18  20
ATOM     20  C   UNL     1      -0.405   3.620  -6.071  0.00  0.00    +0.033 C 
ATOM     21  C   UNL     1      -1.792   2.974  -6.051  0.00  0.00    +0.018 C 
ATOM     22  C   UNL     1      -2.536   3.326  -7.340  0.00  0.00    -0.010 C 
ATOM     23  C   UNL     1      -1.748   2.804  -8.543  0.00  0.00    +0.007 C 
ATOM     24  C   UNL     1      -0.361   3.450  -8.563  0.00  0.00    -0.010 C 
ATOM     25  C   UNL     1       0.384   3.098  -7.274  0.00  0.00    +0.018 C 
ATOM     26  C   UNL     1      -0.507   4.969  -8.669  0.00  0.00    +0.007 C 
ATOM     27  C   UNL     1      -1.295   5.491  -7.466  0.00  0.00    -0.010 C 
ATOM     28  C   UNL     1      -2.682   4.845  -7.447  0.00  0.00    +0.007 C 
ATOM     29  C   UNL     1      -0.551   5.139  -6.177  0.00  0.00    +0.018 C 
ENDBRANCH  18  20
ENDBRANCH  17  18
ENDBRANCH  16  17
ENDBRANCH  14  16
ENDBRANCH   1  14
BRANCH   1  30
ATOM     30  C   UNL     1       1.286   1.562  -0.002  0.00  0.00    +0.187 C 
BRANCH  30  31
ATOM     31  O   UNL     1      -0.011   0.963   0.007  0.00  0.00    -0.393 OA
ATOM     32  H   UNL     1       0.002  -0.004   0.002  0.00  0.00    +0.209 HD
ENDBRANCH  30  31
ENDBRANCH   1  30
TORSDOF 10
