REMARK  Name = ZINC08023461
REMARK  7 active torsions:
REMARK  status: ('A' for Active; 'I' for Inactive)
REMARK    1  A    between atoms: C_1  and  C_2
REMARK    2  A    between atoms: C_2  and  O_3
REMARK    3  A    between atoms: O_3  and  C_4
REMARK    4  A    between atoms: C_7  and  N_10
REMARK    5  A    between atoms: C_11  and  C_13
REMARK    6  A    between atoms: C_13  and  S_14
REMARK    7  A    between atoms: S_14  and  C_15
REMARK                            x       y       z     vdW  Elec       q    Type
REMARK                         _______ _______ _______ _____ _____    ______ ____
ROOT
ATOM      1  C   UNL     1      -2.493   3.907   0.066  0.00  0.00    +0.103 C 
ATOM      2  N   UNL     1      -2.477   5.181  -0.213  0.00  0.00    -0.251 NA
ATOM      3  C   UNL     1      -1.246   5.879  -0.583  0.00  0.00    +0.126 C 
ATOM      4  C   UNL     1      -1.072   5.834  -2.104  0.00  0.00    +0.050 C 
ATOM      5  C   UNL     1       0.218   6.562  -2.489  0.00  0.00    +0.004 C 
ATOM      6  C   UNL     1       0.138   8.019  -2.030  0.00  0.00    +0.000 C 
ATOM      7  C   UNL     1      -0.040   8.066  -0.511  0.00  0.00    +0.004 C 
ATOM      8  C   UNL     1      -1.329   7.337  -0.125  0.00  0.00    +0.050 C 
ATOM      9  N   UNL     1      -0.086   5.239   0.052  0.00  0.00    -0.320 N 
ATOM     10  C   UNL     1      -0.019   3.848   0.043  0.00  0.00    +0.039 A 
ATOM     11  C   UNL     1      -1.232   3.138   0.044  0.00  0.00    +0.027 A 
ATOM     12  C   UNL     1      -1.219   1.748   0.021  0.00  0.00    +0.012 A 
ATOM     13  C   UNL     1      -0.010   1.079   0.012  0.00  0.00    +0.001 A 
ATOM     14  C   UNL     1       1.183   1.783   0.013  0.00  0.00    +0.002 A 
ATOM     15  C   UNL     1       1.183   3.166   0.028  0.00  0.00    +0.023 A 
ATOM     16  H   UNL     1       0.612   5.770   0.466  0.00  0.00    +0.148 HD
ENDROOT
BRANCH   1  17
ATOM     17  S   UNL     1      -4.011   3.108   0.467  0.00  0.00    -0.096 S 
BRANCH  17  18
ATOM     18  C   UNL     1      -5.149   4.509   0.333  0.00  0.00    +0.171 C 
BRANCH  18  20
ATOM     19  N   UNL     1      -7.572   4.928   0.605  0.00  0.00    -0.285 N 
ATOM     20  C   UNL     1      -6.550   4.049   0.643  0.00  0.00    +0.227 C 
ATOM     21  O   UNL     1      -6.759   2.889   0.926  0.00  0.00    -0.275 OA
ATOM     22  H   UNL     1      -7.396   5.869   0.445  0.00  0.00    +0.155 HD
BRANCH  19  26
ATOM     23  C   UNL     1     -11.484   3.605   1.179  0.00  0.00    +0.121 A 
ATOM     24  C   UNL     1     -10.441   3.008   1.873  0.00  0.00    +0.047 A 
ATOM     25  C   UNL     1      -9.145   3.446   1.683  0.00  0.00    +0.027 A 
ATOM     26  C   UNL     1      -8.886   4.483   0.798  0.00  0.00    +0.034 A 
ATOM     27  C   UNL     1      -9.931   5.083   0.107  0.00  0.00    +0.027 A 
ATOM     28  C   UNL     1     -11.225   4.641   0.294  0.00  0.00    +0.047 A 
BRANCH  23  29
ATOM     29  O   UNL     1     -12.760   3.173   1.367  0.00  0.00    -0.492 OA
BRANCH  29  31
ATOM     30  C   UNL     1     -15.142   3.216   0.961  0.00  0.00    +0.048 C 
ATOM     31  C   UNL     1     -13.784   3.833   0.620  0.00  0.00    +0.225 C 
ENDBRANCH  29  31
ENDBRANCH  23  29
ENDBRANCH  19  26
ENDBRANCH  18  20
ENDBRANCH  17  18
ENDBRANCH   1  17
TORSDOF 6
