REMARK  Name = ZINC29867081
REMARK  7 active torsions:
REMARK  status: ('A' for Active; 'I' for Inactive)
REMARK    1  A    between atoms: C_4  and  N_7
REMARK    2  A    between atoms: C_11  and  S_13
REMARK    3  A    between atoms: S_13  and  C_14
REMARK    4  A    between atoms: C_14  and  C_15
REMARK    5  A    between atoms: N_17  and  C_18
REMARK    6  A    between atoms: C_18  and  C_19
REMARK    7  A    between atoms: C_19  and  N_25
REMARK                            x       y       z     vdW  Elec       q    Type
REMARK                         _______ _______ _______ _____ _____    ______ ____
ROOT
ATOM      1  C   UNL     1       0.755  -1.906   1.269  0.00  0.00    +0.223 C 
ATOM      2  O   UNL     1       0.273  -2.651   0.443  0.00  0.00    -0.275 OA
ATOM      3  N   UNL     1       0.616  -0.572   1.136  0.00  0.00    -0.313 N 
ATOM      4  H   UNL     1       1.053   0.104   1.886  0.00  0.00    +0.149 HD
ENDROOT
BRANCH   1   5
ATOM      5  C   UNL     1       1.510  -2.472   2.444  0.00  0.00    +0.172 C 
BRANCH   5   6
ATOM      6  S   UNL     1       1.522  -4.283   2.340  0.00  0.00    -0.088 S 
BRANCH   6  11
ATOM      7  N   UNL     1       4.363  -6.774   6.737  0.00  0.00    -0.319 N 
ATOM      8  C   UNL     1       3.741  -5.966   5.793  0.00  0.00    +0.183 A 
ATOM      9  N   UNL     1       3.655  -4.651   5.744  0.00  0.00    -0.125 NA
ATOM     10  N   UNL     1       2.989  -4.047   4.703  0.00  0.00    -0.133 NA
ATOM     11  C   UNL     1       2.429  -4.786   3.765  0.00  0.00    +0.160 A 
ATOM     12  S   UNL     1       2.844  -6.432   4.319  0.00  0.00    -0.025 S 
ATOM     13  H   UNL     1       4.341  -7.868   6.626  0.00  0.00    +0.148 HD
BRANCH   7  17
ATOM     14  C   UNL     1       7.236  -6.158   9.831  0.00  0.00    +0.000 C 
ATOM     15  C   UNL     1       5.809  -6.536  10.233  0.00  0.00    +0.002 C 
ATOM     16  C   UNL     1       5.093  -7.169   9.038  0.00  0.00    +0.022 C 
ATOM     17  C   UNL     1       5.049  -6.168   7.881  0.00  0.00    +0.072 C 
ATOM     18  C   UNL     1       6.476  -5.790   7.479  0.00  0.00    +0.022 C 
ATOM     19  C   UNL     1       7.192  -5.158   8.674  0.00  0.00    +0.002 C 
ENDBRANCH   7  17
ENDBRANCH   6  11
ENDBRANCH   5   6
ENDBRANCH   1   5
BRANCH   3  20
ATOM     20  C   UNL     1      -0.118  -0.022  -0.006  0.00  0.00    +0.126 C 
BRANCH  20  21
ATOM     21  C   UNL     1       0.025   1.501  -0.019  0.00  0.00    +0.038 C 
ATOM     22  C   UNL     1      -0.345   2.059   1.357  0.00  0.00    +0.024 C 
ATOM     23  C   UNL     1      -1.791   1.686   1.687  0.00  0.00    +0.002 C 
ATOM     24  C   UNL     1      -2.725   2.277   0.629  0.00  0.00    +0.000 C 
ATOM     25  C   UNL     1      -2.355   1.718  -0.747  0.00  0.00    +0.002 C 
ATOM     26  C   UNL     1      -0.909   2.092  -1.077  0.00  0.00    +0.024 C 
BRANCH  21  27
ATOM     27  N   UNL     1       1.414   1.859  -0.336  0.00  0.00    -0.291 NA
ATOM     28  C   UNL     1       1.747   1.501  -1.722  0.00  0.00    +0.113 C 
ATOM     29  C   UNL     1       3.180   1.945  -2.028  0.00  0.00    +0.175 C 
ATOM     30  O   UNL     1       4.071   1.345  -1.084  0.00  0.00    -0.377 OA
ATOM     31  C   UNL     1       3.776   1.673   0.276  0.00  0.00    +0.175 C 
ATOM     32  C   UNL     1       2.349   1.226   0.605  0.00  0.00    +0.113 C 
ENDBRANCH  21  27
ENDBRANCH  20  21
ENDBRANCH   3  20
TORSDOF 7
