REMARK  Name = ZINC03358480
REMARK  12 active torsions:
REMARK  status: ('A' for Active; 'I' for Inactive)
REMARK    1  A    between atoms: C_1  and  C_2
REMARK    2  A    between atoms: C_4  and  C_32
REMARK    3  A    between atoms: C_12  and  C_14
REMARK    4  A    between atoms: C_14  and  C_16
REMARK    5  A    between atoms: C_14  and  N_19
REMARK    6  A    between atoms: C_16  and  C_17
REMARK    7  A    between atoms: C_16  and  C_18
REMARK    8  A    between atoms: C_20  and  C_22
REMARK    9  A    between atoms: C_24  and  O_30
REMARK   10  A    between atoms: C_26  and  O_28
REMARK   11  A    between atoms: O_28  and  C_29
REMARK   12  A    between atoms: O_30  and  C_31
REMARK                            x       y       z     vdW  Elec       q    Type
REMARK                         _______ _______ _______ _____ _____    ______ ____
ROOT
ATOM      1  C   UNL     1      -1.695   4.306   9.301  0.00  0.00    +0.162 C 
ENDROOT
BRANCH   1  13
ATOM      2  C   UNL     1       0.571   0.798   0.212  0.00  0.00    +0.044 C 
ATOM      3  C   UNL     1      -0.207   1.383   1.363  0.00  0.00    -0.049 A 
ATOM      4  C   UNL     1      -1.532   1.759   1.194  0.00  0.00    +0.009 A 
ATOM      5  C   UNL     1      -2.263   2.287   2.225  0.00  0.00    -0.024 A 
ATOM      6  C   UNL     1      -1.681   2.479   3.500  0.00  0.00    +0.083 A 
ATOM      7  C   UNL     1      -0.329   2.090   3.633  0.00  0.00    +0.041 A 
ATOM      8  C   UNL     1       0.394   1.556   2.596  0.00  0.00    +0.020 A 
ATOM      9  S   UNL     1       0.012   2.482   5.332  0.00  0.00    -0.052 S 
ATOM     10  C   UNL     1      -1.607   3.116   5.745  0.00  0.00    +0.166 A 
ATOM     11  N   UNL     1      -2.256   2.988   4.611  0.00  0.00    -0.224 NA
ATOM     12  N   UNL     1      -2.062   3.616   6.954  0.00  0.00    -0.263 N 
ATOM     13  C   UNL     1      -1.235   3.667   8.017  0.00  0.00    +0.239 C 
ATOM     14  O   UNL     1      -0.119   3.197   7.939  0.00  0.00    -0.273 OA
ATOM     15  C   UNL     1      -3.702   2.674   1.997  0.00  0.00    +0.046 C 
ATOM     16  H   UNL     1      -2.977   3.929   7.036  0.00  0.00    +0.157 HD
ENDBRANCH   1  13
BRANCH   1  17
ATOM     17  N   UNL     1      -0.532   4.624  10.133  0.00  0.00    -0.300 N 
ATOM     18  C   UNL     1      -0.608   5.611  11.049  0.00  0.00    +0.245 C 
ATOM     19  O   UNL     1      -1.641   6.236  11.184  0.00  0.00    -0.270 OA
ATOM     20  H   UNL     1       0.292   4.125  10.025  0.00  0.00    +0.150 HD
BRANCH  18  21
ATOM     21  C   UNL     1       0.566   5.932  11.888  0.00  0.00    +0.044 A 
ATOM     22  C   UNL     1       1.751   5.211  11.738  0.00  0.00    +0.059 A 
ATOM     23  C   UNL     1       2.851   5.519  12.523  0.00  0.00    +0.124 A 
ATOM     24  C   UNL     1       2.771   6.534  13.465  0.00  0.00    +0.091 A 
ATOM     25  C   UNL     1       1.592   7.250  13.621  0.00  0.00    +0.124 A 
ATOM     26  C   UNL     1       0.490   6.952  12.836  0.00  0.00    +0.059 A 
BRANCH  25  27
ATOM     27  O   UNL     1       1.519   8.244  14.544  0.00  0.00    -0.495 OA
ATOM     28  C   UNL     1       2.693   8.497  15.319  0.00  0.00    +0.277 C 
ENDBRANCH  25  27
BRANCH  23  29
ATOM     29  O   UNL     1       4.008   4.822  12.373  0.00  0.00    -0.495 OA
ATOM     30  C   UNL     1       5.099   5.188  13.220  0.00  0.00    +0.277 C 
ENDBRANCH  23  29
ENDBRANCH  18  21
ENDBRANCH   1  17
BRANCH   1  31
ATOM     31  C   UNL     1      -2.611   3.338  10.053  0.00  0.00    +0.012 C 
ATOM     32  C   UNL     1      -1.807   2.113  10.493  0.00  0.00    +0.009 C 
ATOM     33  C   UNL     1      -3.190   4.037  11.285  0.00  0.00    +0.009 C 
ENDBRANCH   1  31
TORSDOF 6
