REMARK  Name = ZINC44169016
REMARK  6 active torsions:
REMARK  status: ('A' for Active; 'I' for Inactive)
REMARK    1  A    between atoms: C_1  and  C_2
REMARK    2  A    between atoms: C_2  and  C_35
REMARK    3  A    between atoms: C_7  and  C_12
REMARK    4  A    between atoms: C_12  and  N_13
REMARK    5  A    between atoms: C_14  and  C_16
REMARK    6  A    between atoms: C_21  and  C_24
REMARK                            x       y       z     vdW  Elec       q    Type
REMARK                         _______ _______ _______ _____ _____    ______ ____
ROOT
ATOM      1  C   UNL     1       0.596  -6.428   3.682  0.00  0.00    +0.027 C 
ATOM      2  C   UNL     1      -0.931  -6.562   3.628  0.00  0.00    +0.062 C 
ATOM      3  S   UNL     1      -1.349  -8.334   3.641  0.00  0.00    -0.163 S 
ATOM      4  C   UNL     1      -0.374  -8.963   5.043  0.00  0.00    +0.058 C 
ATOM      5  C   UNL     1       1.069  -8.470   4.885  0.00  0.00    -0.030 C 
ATOM      6  N   UNL     1       1.101  -7.006   4.929  0.00  0.00    +0.392 N 
ATOM      7  H   UNL     1       2.051  -6.701   5.074  0.00  0.00    -0.084 HD
ATOM      8  H   UNL     1       0.531  -6.685   5.697  0.00  0.00    -0.084 HD
ENDROOT
BRANCH   5   9
ATOM      9  C   UNL     1       1.912  -9.021   6.006  0.00  0.00    -0.057 A 
ATOM     10  C   UNL     1       1.875  -8.427   7.253  0.00  0.00    +0.006 A 
ATOM     11  C   UNL     1       2.646  -8.928   8.287  0.00  0.00    +0.049 A 
ATOM     12  C   UNL     1       3.456 -10.029   8.068  0.00  0.00    +0.162 A 
ATOM     13  C   UNL     1       3.493 -10.626   6.816  0.00  0.00    +0.162 A 
ATOM     14  C   UNL     1       2.717 -10.125   5.784  0.00  0.00    +0.051 A 
ATOM     15  O   UNL     1       4.295 -11.711   6.610  0.00  0.00    -0.488 OA
ATOM     16  C   UNL     1       5.702 -11.466   6.652  0.00  0.00    +0.232 C 
ATOM     17  C   UNL     1       6.213 -11.499   8.083  0.00  0.00    +0.082 C 
ATOM     18  C   UNL     1       5.633 -10.379   8.931  0.00  0.00    +0.232 C 
ATOM     19  O   UNL     1       4.220 -10.534   9.079  0.00  0.00    -0.488 OA
ENDBRANCH   5   9
BRANCH   1  21
ATOM     20  N   UNL     1       0.615  -4.229   2.550  0.00  0.00    -0.316 N 
ATOM     21  C   UNL     1       0.973  -4.971   3.617  0.00  0.00    +0.200 C 
ATOM     22  O   UNL     1       1.599  -4.465   4.524  0.00  0.00    -0.278 OA
ATOM     23  H   UNL     1       0.114  -4.633   1.824  0.00  0.00    +0.149 HD
BRANCH  20  24
ATOM     24  C   UNL     1       0.982  -2.812   2.486  0.00  0.00    +0.108 C 
BRANCH  24  30
ATOM     25  C   UNL     1      -0.036   1.522   0.104  0.00  0.00    +0.011 C 
ATOM     26  C   UNL     1       0.002  -0.004   0.002  0.00  0.00    -0.029 C 
ATOM     27  C   UNL     1       1.124  -0.539  -0.908  0.00  0.00    -0.005 C 
ATOM     28  C   UNL     1       0.892  -2.018  -1.267  0.00  0.00    +0.004 C 
ATOM     29  C   UNL     1       1.166  -2.861  -0.013  0.00  0.00    +0.005 C 
ATOM     30  C   UNL     1       0.458  -2.207   1.182  0.00  0.00    +0.010 C 
ATOM     31  C   UNL     1       0.767  -0.686   1.152  0.00  0.00    -0.000 C 
ATOM     32  C   UNL     1       2.038  -0.396   0.327  0.00  0.00    +0.008 C 
ATOM     33  C   UNL     1      -1.371  -0.619  -0.278  0.00  0.00    +0.011 C 
ENDBRANCH  24  30
ENDBRANCH  20  24
ENDBRANCH   1  21
TORSDOF 4
