REMARK  Name = ZINC39690245
REMARK  6 active torsions:
REMARK  status: ('A' for Active; 'I' for Inactive)
REMARK    1  A    between atoms: C_1  and  C_2
REMARK    2  A    between atoms: C_7  and  C_8
REMARK    3  A    between atoms: C_12  and  C_21
REMARK    4  A    between atoms: N_23  and  C_24
REMARK    5  A    between atoms: C_24  and  C_25
REMARK    6  A    between atoms: C_28  and  N_31
REMARK                            x       y       z     vdW  Elec       q    Type
REMARK                         _______ _______ _______ _____ _____    ______ ____
ROOT
ATOM      1  C   UNL     1       0.117   0.200   2.410  0.00  0.00    +0.247 C 
ATOM      2  O   UNL     1      -0.025   1.407   2.355  0.00  0.00    -0.270 OA
ATOM      3  N   UNL     1       0.321  -0.401   3.599  0.00  0.00    -0.296 N 
ATOM      4  C   UNL     1       0.601  -1.833   3.856  0.00  0.00    +0.121 C 
ATOM      5  C   UNL     1       1.656  -1.828   4.985  0.00  0.00    +0.100 C 
ATOM      6  C   UNL     1       1.462  -0.479   5.697  0.00  0.00    -0.004 C 
ATOM      7  C   UNL     1       0.322   0.222   4.944  0.00  0.00    +0.115 C 
ATOM      8  C   UNL     1       1.075  -0.702   7.155  0.00  0.00    -0.010 C 
ATOM      9  C   UNL     1       0.945   0.653   7.857  0.00  0.00    -0.082 C 
ATOM     10  N   UNL     1       2.221   1.375   7.773  0.00  0.00    +0.379 N 
ATOM     11  C   UNL     1       2.539   1.666   6.370  0.00  0.00    -0.082 C 
ATOM     12  C   UNL     1       2.737   0.354   5.606  0.00  0.00    -0.010 C 
ATOM     13  H   UNL     1       2.151   2.240   8.288  0.00  0.00    -0.086 HD
ATOM     14  H   UNL     1       2.954   0.807   8.172  0.00  0.00    -0.086 HD
ENDROOT
BRANCH   1  21
ATOM     15  C   UNL     1      -2.146   0.460   0.627  0.00  0.00    +0.044 C 
ATOM     16  C   UNL     1      -1.021  -0.490   0.304  0.00  0.00    -0.038 A 
ATOM     17  C   UNL     1      -1.062  -1.241  -0.852  0.00  0.00    +0.007 A 
ATOM     18  C   UNL     1      -0.031  -2.113  -1.151  0.00  0.00    +0.038 A 
ATOM     19  C   UNL     1       1.049  -2.239  -0.291  0.00  0.00    +0.124 A 
ATOM     20  C   UNL     1       1.101  -1.493   0.870  0.00  0.00    +0.051 A 
ATOM     21  C   UNL     1       0.066  -0.607   1.172  0.00  0.00    +0.043 A 
ATOM     22  F   UNL     1       2.052  -3.094  -0.589  0.00  0.00    -0.205 F 
ENDBRANCH   1  21
BRANCH   5  23
ATOM     23  C   UNL     1       1.409  -2.968   5.939  0.00  0.00    +0.218 C 
ATOM     24  O   UNL     1       0.274  -3.325   6.176  0.00  0.00    -0.275 OA
ATOM     25  N   UNL     1       2.448  -3.590   6.529  0.00  0.00    -0.311 N 
ATOM     26  H   UNL     1       3.356  -3.305   6.340  0.00  0.00    +0.149 HD
BRANCH  25  27
ATOM     27  C   UNL     1       2.208  -4.698   7.457  0.00  0.00    +0.139 C 
BRANCH  27  28
ATOM     28  C   UNL     1       3.526  -5.215   7.974  0.00  0.00    -0.030 A 
ATOM     29  C   UNL     1       4.185  -6.224   7.295  0.00  0.00    +0.007 A 
ATOM     30  C   UNL     1       5.393  -6.700   7.767  0.00  0.00    +0.026 A 
ATOM     31  C   UNL     1       5.945  -6.165   8.923  0.00  0.00    +0.046 A 
ATOM     32  C   UNL     1       5.280  -5.152   9.602  0.00  0.00    +0.026 A 
ATOM     33  C   UNL     1       4.075  -4.677   9.123  0.00  0.00    +0.007 A 
BRANCH  31  34
ATOM     34  N   UNL     1       7.171  -6.646   9.404  0.00  0.00    -0.323 N 
ATOM     35  C   UNL     1       7.921  -7.630   8.828  0.00  0.00    +0.091 A 
ATOM     36  C   UNL     1       9.026  -7.812   9.579  0.00  0.00    +0.019 A 
ATOM     37  C   UNL     1       8.956  -6.910  10.659  0.00  0.00    +0.019 A 
ATOM     38  C   UNL     1       7.815  -6.205  10.525  0.00  0.00    +0.091 A 
ENDBRANCH  31  34
ENDBRANCH  27  28
ENDBRANCH  25  27
ENDBRANCH   5  23
TORSDOF 5
