REMARK  Name = ZINC63883463
REMARK  7 active torsions:
REMARK  status: ('A' for Active; 'I' for Inactive)
REMARK    1  A    between atoms: C_1  and  C_2
REMARK    2  A    between atoms: C_4  and  S_9
REMARK    3  A    between atoms: C_5  and  C_8
REMARK    4  A    between atoms: S_9  and  C_10
REMARK    5  A    between atoms: C_15  and  N_16
REMARK    6  A    between atoms: C_17  and  C_19
REMARK    7  A    between atoms: C_19  and  C_20
REMARK                            x       y       z     vdW  Elec       q    Type
REMARK                         _______ _______ _______ _____ _____    ______ ____
ROOT
ATOM      1  C   UNL     1      -3.994  -1.519  -0.496  0.00  0.00    +0.034 A 
ATOM      2  C   UNL     1      -3.832  -2.157   0.726  0.00  0.00    +0.017 A 
ATOM      3  C   UNL     1      -4.876  -2.879   1.272  0.00  0.00    +0.001 A 
ATOM      4  C   UNL     1      -6.084  -2.969   0.604  0.00  0.00    +0.002 A 
ATOM      5  C   UNL     1      -6.254  -2.337  -0.614  0.00  0.00    +0.024 A 
ATOM      6  C   UNL     1      -5.214  -1.605  -1.167  0.00  0.00    +0.047 A 
ENDROOT
BRANCH   6   7
ATOM      7  N   UNL     1      -5.386  -0.960  -2.398  0.00  0.00    -0.284 N 
ATOM      8  C   UNL     1      -6.627  -0.703  -2.856  0.00  0.00    +0.219 C 
ATOM      9  O   UNL     1      -7.592  -0.940  -2.160  0.00  0.00    -0.275 OA
ATOM     10  H   UNL     1      -4.612  -0.697  -2.920  0.00  0.00    +0.155 HD
BRANCH   8  11
ATOM     11  C   UNL     1      -6.816  -0.123  -4.234  0.00  0.00    +0.128 C 
BRANCH  11  12
ATOM     12  C   UNL     1      -8.309   0.070  -4.506  0.00  0.00    +0.169 C 
ATOM     13  C   UNL     1      -8.527   0.687  -5.873  0.00  0.00    +0.241 C 
ATOM     14  O   UNL     1      -8.139   1.768  -6.259  0.00  0.00    -0.273 OA
ATOM     15  N   UNL     1      -9.242  -0.217  -6.571  0.00  0.00    -0.239 N 
ATOM     16  C   UNL     1      -9.504  -1.309  -5.843  0.00  0.00    +0.307 C 
ATOM     17  O   UNL     1     -10.134  -2.262  -6.256  0.00  0.00    -0.252 OA
ATOM     18  N   UNL     1      -8.992  -1.233  -4.597  0.00  0.00    -0.287 N 
ATOM     19  H   UNL     1      -9.532  -0.092  -7.488  0.00  0.00    +0.159 HD
ATOM     20  H   UNL     1      -9.057  -1.903  -3.899  0.00  0.00    +0.151 HD
ENDBRANCH  11  12
ENDBRANCH   8  11
ENDBRANCH   6   7
BRANCH   1  21
ATOM     21  S   UNL     1      -2.664  -0.597  -1.194  0.00  0.00    -0.088 S 
BRANCH  21  24
ATOM     22  C   UNL     1       0.071  -2.725  -1.148  0.00  0.00    +0.040 C 
ATOM     23  C   UNL     1      -0.587  -2.221   0.138  0.00  0.00    +0.163 C 
ATOM     24  C   UNL     1      -1.312  -0.908  -0.108  0.00  0.00    +0.039 C 
ATOM     25  C   UNL     1      -0.672  -0.035   0.707  0.00  0.00    +0.072 C 
ATOM     26  N   UNL     1       0.305  -0.647   1.378  0.00  0.00    -0.158 NA
ATOM     27  N   UNL     1       0.431  -1.853   1.136  0.00  0.00    -0.179 NA
ATOM     28  C   UNL     1      -1.017   1.427   0.836  0.00  0.00    +0.068 C 
ENDBRANCH  21  24
ENDBRANCH   1  21
TORSDOF 5
