REMARK  Name = ZINC64428615
REMARK  8 active torsions:
REMARK  status: ('A' for Active; 'I' for Inactive)
REMARK    1  A    between atoms: C_7  and  C_10
REMARK    2  A    between atoms: C_10  and  C_11
REMARK    3  A    between atoms: C_11  and  C_13
REMARK    4  A    between atoms: C_11  and  N_32
REMARK    5  A    between atoms: C_17  and  S_20
REMARK    6  A    between atoms: S_20  and  C_21
REMARK    7  A    between atoms: C_21  and  C_22
REMARK    8  A    between atoms: N_24  and  C_25
REMARK                            x       y       z     vdW  Elec       q    Type
REMARK                         _______ _______ _______ _____ _____    ______ ____
ROOT
ATOM      1  C   UNL     1      -0.420  -4.918  -1.433  0.00  0.00    +0.246 C 
ATOM      2  N   UNL     1      -1.746  -4.643  -0.866  0.00  0.00    -0.159 NA
ATOM      3  N   UNL     1      -2.624  -5.169  -1.562  0.00  0.00    -0.146 NA
ATOM      4  C   UNL     1      -2.013  -5.874  -2.696  0.00  0.00    +0.319 C 
ATOM      5  O   UNL     1      -0.668  -5.356  -2.785  0.00  0.00    -0.320 OA
ENDROOT
BRANCH   1   6
ATOM      6  C   UNL     1       0.431  -3.646  -1.435  0.00  0.00    -0.017 C 
BRANCH   6   7
ATOM      7  N   UNL     1      -0.264  -2.594  -2.190  0.00  0.00    +0.383 N 
ATOM      8  H   UNL     1      -1.155  -2.402  -1.757  0.00  0.00    -0.089 HD
ATOM      9  H   UNL     1       0.297  -1.755  -2.191  0.00  0.00    -0.089 HD
ATOM     10  H   UNL     1      -0.411  -2.902  -3.139  0.00  0.00    -0.089 HD
ENDBRANCH   6   7
BRANCH   6  11
ATOM     11  C   UNL     1       0.654  -3.179   0.004  0.00  0.00    +0.021 C 
BRANCH  11  18
ATOM     12  C   UNL     1      -0.067   1.353   0.037  0.00  0.00    +0.001 A 
ATOM     13  C   UNL     1       1.113   2.109   0.039  0.00  0.00    +0.002 A 
ATOM     14  C   UNL     1       2.340   1.547   0.032  0.00  0.00    +0.026 A 
ATOM     15  C   UNL     1       2.482   0.132   0.022  0.00  0.00    +0.043 A 
ATOM     16  N   UNL     1       3.542  -0.639   0.013  0.00  0.00    -0.380 N 
ATOM     17  C   UNL     1       3.103  -2.039   0.005  0.00  0.00    +0.144 C 
ATOM     18  C   UNL     1       1.591  -1.999   0.010  0.00  0.00    -0.043 C 
ATOM     19  C   UNL     1       1.251  -0.690   0.020  0.00  0.00    -0.001 A 
ATOM     20  C   UNL     1      -0.044   0.001   0.029  0.00  0.00    +0.010 A 
ATOM     21  H   UNL     1       4.464  -0.335   0.012  0.00  0.00    +0.160 HD
ENDBRANCH  11  18
ENDBRANCH   6  11
ENDBRANCH   1   6
BRANCH   4  22
ATOM     22  S   UNL     1      -2.928  -5.521  -4.223  0.00  0.00    -0.095 S 
BRANCH  22  23
ATOM     23  C   UNL     1      -2.842  -3.716  -4.379  0.00  0.00    +0.169 C 
BRANCH  23  24
ATOM     24  C   UNL     1      -3.574  -3.284  -5.624  0.00  0.00    +0.227 C 
ATOM     25  O   UNL     1      -4.102  -4.113  -6.335  0.00  0.00    -0.275 OA
ATOM     26  N   UNL     1      -3.642  -1.978  -5.946  0.00  0.00    -0.285 N 
ATOM     27  H   UNL     1      -3.279  -1.310  -5.344  0.00  0.00    +0.155 HD
BRANCH  26  28
ATOM     28  C   UNL     1      -4.237  -1.584  -7.150  0.00  0.00    +0.035 A 
ATOM     29  C   UNL     1      -3.733  -0.497  -7.852  0.00  0.00    +0.023 A 
ATOM     30  C   UNL     1      -4.321  -0.111  -9.041  0.00  0.00    +0.003 A 
ATOM     31  C   UNL     1      -5.412  -0.805  -9.532  0.00  0.00    +0.020 A 
ATOM     32  C   UNL     1      -5.916  -1.889  -8.835  0.00  0.00    +0.043 A 
ATOM     33  C   UNL     1      -5.328  -2.283  -7.648  0.00  0.00    +0.043 A 
ATOM     34 CL   UNL     1      -7.286  -2.757  -9.455  0.00  0.00    -0.083 Cl
ENDBRANCH  26  28
ENDBRANCH  23  24
ENDBRANCH  22  23
ENDBRANCH   4  22
TORSDOF 8
