REMARK  Name = ZINC38603970
REMARK  9 active torsions:
REMARK  status: ('A' for Active; 'I' for Inactive)
REMARK    1  A    between atoms: C_1  and  C_2
REMARK    2  A    between atoms: C_6  and  N_8
REMARK    3  A    between atoms: N_11  and  C_16
REMARK    4  A    between atoms: C_13  and  C_15
REMARK    5  A    between atoms: C_16  and  C_17
REMARK    6  A    between atoms: N_19  and  C_20
REMARK    7  A    between atoms: C_28  and  C_30
REMARK    8  A    between atoms: C_30  and  O_32
REMARK    9  A    between atoms: O_32  and  C_33
REMARK                            x       y       z     vdW  Elec       q    Type
REMARK                         _______ _______ _______ _____ _____    ______ ____
ROOT
ATOM      1  C   UNL     1       1.888  -5.298   7.551  0.00  0.00    +0.200 C 
ATOM      2  O   UNL     1       1.346  -4.249   7.277  0.00  0.00    -0.278 OA
ATOM      3  N   UNL     1       2.304  -5.532   8.811  0.00  0.00    -0.288 N 
ATOM      4  H   UNL     1       2.802  -6.339   9.016  0.00  0.00    +0.155 HD
ENDROOT
BRANCH   3   5
ATOM      5  C   UNL     1       2.026  -4.635   9.799  0.00  0.00    +0.053 C 
ATOM      6  C   UNL     1       2.460  -4.677  11.112  0.00  0.00    +0.019 A 
ATOM      7  C   UNL     1       3.274  -5.593  11.820  0.00  0.00    +0.026 A 
ATOM      8  C   UNL     1       3.541  -5.380  13.133  0.00  0.00    +0.019 A 
ATOM      9  C   UNL     1       3.030  -4.271  13.814  0.00  0.00    +0.017 A 
ATOM     10  C   UNL     1       2.245  -3.354  13.200  0.00  0.00    +0.027 A 
ATOM     11  C   UNL     1       1.921  -3.507  11.827  0.00  0.00    +0.045 A 
ATOM     12  N   UNL     1       1.190  -2.769  11.016  0.00  0.00    -0.367 N 
ATOM     13  C   UNL     1       1.185  -3.383   9.684  0.00  0.00    +0.234 C 
ATOM     14 BR   UNL     1       4.630  -6.614  14.065  0.00  0.00    -0.050 Br
ATOM     15  H   UNL     1       0.732  -1.950  11.259  0.00  0.00    +0.161 HD
BRANCH  13  16
ATOM     16  C   UNL     1      -0.224  -3.739   9.285  0.00  0.00    +0.335 C 
ATOM     17  O   UNL     1      -1.008  -4.128  10.119  0.00  0.00    -0.248 OA
BRANCH  16  18
ATOM     18  O   UNL     1      -0.608  -3.625   8.004  0.00  0.00    -0.466 OA
ATOM     19  C   UNL     1      -1.958  -3.980   7.698  0.00  0.00    +0.280 C 
ENDBRANCH  16  18
ENDBRANCH  13  16
ENDBRANCH   3   5
BRANCH   1  20
ATOM     20  C   UNL     1       2.095  -6.341   6.483  0.00  0.00    +0.019 C 
BRANCH  20  24
ATOM     21  N   UNL     1       1.601  -5.170   2.497  0.00  0.00    -0.331 N 
ATOM     22  C   UNL     1       1.706  -4.099   3.499  0.00  0.00    +0.087 C 
ATOM     23  C   UNL     1       2.335  -4.682   4.769  0.00  0.00    -0.059 C 
ATOM     24  N   UNL     1       1.558  -5.848   5.207  0.00  0.00    +0.388 N 
ATOM     25  C   UNL     1       1.643  -6.913   4.200  0.00  0.00    -0.056 C 
ATOM     26  C   UNL     1       0.975  -6.438   2.900  0.00  0.00    +0.054 C 
ATOM     27  C   UNL     1       1.179  -7.485   1.803  0.00  0.00    +0.026 C 
ATOM     28  H   UNL     1       0.594  -5.581   5.332  0.00  0.00    -0.081 HD
BRANCH  21  34
ATOM     29  C   UNL     1       5.280  -5.487  -0.746  0.00  0.00    +0.044 C 
ATOM     30  C   UNL     1       3.857  -5.131  -0.404  0.00  0.00    -0.049 A 
ATOM     31  C   UNL     1       3.019  -4.621  -1.379  0.00  0.00    +0.003 A 
ATOM     32  C   UNL     1       1.712  -4.292  -1.070  0.00  0.00    +0.002 A 
ATOM     33  C   UNL     1       1.238  -4.473   0.214  0.00  0.00    +0.023 A 
ATOM     34  C   UNL     1       2.076  -4.986   1.196  0.00  0.00    +0.030 A 
ATOM     35  C   UNL     1       3.388  -5.320   0.881  0.00  0.00    +0.026 A 
ENDBRANCH  21  34
ENDBRANCH  20  24
ENDBRANCH   1  20
TORSDOF 6
