REMARK  Name = ZINC16953610
REMARK  6 active torsions:
REMARK  status: ('A' for Active; 'I' for Inactive)
REMARK    1  A    between atoms: C_1  and  O_2
REMARK    2  A    between atoms: O_2  and  C_3
REMARK    3  A    between atoms: C_6  and  C_9
REMARK    4  A    between atoms: C_16  and  S_27
REMARK    5  A    between atoms: S_27  and  C_28
REMARK    6  A    between atoms: C_28  and  C_29
REMARK                            x       y       z     vdW  Elec       q    Type
REMARK                         _______ _______ _______ _____ _____    ______ ____
ROOT
ATOM      1  C   UNL     1       0.002  -0.004   0.002  0.00  0.00    +0.092 C 
ATOM      2  C   UNL     1      -0.692  -0.497  -1.232  0.00  0.00    +0.069 A 
ATOM      3  C   UNL     1      -0.045  -0.457  -2.473  0.00  0.00    +0.258 A 
ATOM      4  O   UNL     1       1.092  -0.022  -2.566  0.00  0.00    -0.267 OA
ATOM      5  N   UNL     1      -0.701  -0.906  -3.563  0.00  0.00    -0.302 N 
ATOM      6  H   UNL     1      -0.268  -0.887  -4.431  0.00  0.00    +0.171 HD
ATOM      7  C   UNL     1      -1.970  -1.387  -3.447  0.00  0.00    +0.171 A 
ATOM      8  N   UNL     1      -2.584  -1.428  -2.282  0.00  0.00    -0.208 NA
ATOM      9  C   UNL     1      -1.981  -0.998  -1.168  0.00  0.00    +0.135 A 
ATOM     10  N   UNL     1      -2.633  -1.054   0.048  0.00  0.00    -0.302 N 
ATOM     11  C   UNL     1      -1.928  -1.003   1.219  0.00  0.00    +0.017 C 
ATOM     12  C   UNL     1      -0.672  -0.513   1.251  0.00  0.00    +0.024 C 
ATOM     13  C   UNL     1       0.055  -0.460   2.455  0.00  0.00    +0.162 C 
ATOM     14  O   UNL     1       1.191  -0.031   2.447  0.00  0.00    -0.292 OA
ATOM     15  C   UNL     1      -0.549  -0.924   3.752  0.00  0.00    +0.080 C 
ATOM     16  C   UNL     1      -2.069  -0.744   3.686  0.00  0.00    +0.014 C 
ATOM     17  C   UNL     1      -2.595  -1.515   2.473  0.00  0.00    +0.051 C 
ATOM     18  H   UNL     1      -3.600  -1.129   0.071  0.00  0.00    +0.153 HD
ENDROOT
BRANCH   1  22
ATOM     19  C   UNL     1      -0.056   4.269   0.025  0.00  0.00    +0.120 A 
ATOM     20  C   UNL     1       1.154   3.591   0.010  0.00  0.00    +0.046 A 
ATOM     21  C   UNL     1       1.170   2.209   0.003  0.00  0.00    +0.008 A 
ATOM     22  C   UNL     1      -0.018   1.503   0.010  0.00  0.00    -0.035 A 
ATOM     23  C   UNL     1      -1.226   2.177   0.020  0.00  0.00    +0.008 A 
ATOM     24  C   UNL     1      -1.247   3.558   0.033  0.00  0.00    +0.046 A 
BRANCH  19  26
ATOM     25  C   UNL     1      -1.356   6.259   0.049  0.00  0.00    +0.277 C 
ATOM     26  O   UNL     1      -0.074   5.628   0.033  0.00  0.00    -0.495 OA
ENDBRANCH  19  26
ENDBRANCH   1  22
BRANCH   7  27
ATOM     27  S   UNL     1      -2.808  -1.966  -4.884  0.00  0.00    -0.083 S 
BRANCH  27  28
ATOM     28  C   UNL     1      -4.386  -2.463  -4.150  0.00  0.00    +0.115 C 
BRANCH  28  29
ATOM     29  C   UNL     1      -5.292  -3.006  -5.225  0.00  0.00    -0.002 A 
ATOM     30  C   UNL     1      -6.146  -2.157  -5.904  0.00  0.00    +0.007 A 
ATOM     31  C   UNL     1      -6.973  -2.654  -6.894  0.00  0.00    +0.000 A 
ATOM     32  C   UNL     1      -6.955  -4.003  -7.198  0.00  0.00    +0.003 A 
ATOM     33  C   UNL     1      -6.107  -4.854  -6.516  0.00  0.00    +0.038 A 
ATOM     34  C   UNL     1      -5.274  -4.356  -5.528  0.00  0.00    +0.127 A 
ATOM     35  F   UNL     1      -4.444  -5.188  -4.861  0.00  0.00    -0.205 F 
ENDBRANCH  28  29
ENDBRANCH  27  28
ENDBRANCH   7  27
TORSDOF 5
