REMARK  Name = ZINC08964647
REMARK  10 active torsions:
REMARK  status: ('A' for Active; 'I' for Inactive)
REMARK    1  A    between atoms: C_1  and  C_2
REMARK    2  A    between atoms: C_2  and  C_3
REMARK    3  A    between atoms: C_2  and  C_4
REMARK    4  A    between atoms: C_7  and  N_10
REMARK    5  A    between atoms: C_13  and  C_14
REMARK    6  A    between atoms: N_15  and  C_16
REMARK    7  A    between atoms: C_16  and  C_17
REMARK    8  A    between atoms: C_24  and  O_25
REMARK    9  A    between atoms: O_25  and  C_26
REMARK   10  A    between atoms: C_32  and  N_67
REMARK                            x       y       z     vdW  Elec       q    Type
REMARK                         _______ _______ _______ _____ _____    ______ ____
ROOT
ATOM      1  C   UNL     1      -2.133  -2.661  -1.609  0.00  0.00    +0.099 C 
ATOM      2  N   UNL     1      -1.584  -2.117  -0.504  0.00  0.00    -0.296 NA
ENDROOT
BRANCH   1   6
ATOM      3  N   UNL     1      -0.615  -6.027  -1.600  0.00  0.00    -0.221 N 
ATOM      4  C   UNL     1      -0.839  -4.753  -1.214  0.00  0.00    +0.243 C 
ATOM      5  O   UNL     1      -0.230  -4.268  -0.279  0.00  0.00    -0.274 OA
ATOM      6  C   UNL     1      -1.845  -3.969  -1.951  0.00  0.00    +0.202 C 
ATOM      7  C   UNL     1      -2.528  -4.638  -3.074  0.00  0.00    +0.236 C 
ATOM      8  O   UNL     1      -3.367  -4.053  -3.733  0.00  0.00    -0.274 OA
ATOM      9  N   UNL     1      -2.197  -5.916  -3.350  0.00  0.00    -0.266 N 
ATOM     10  C   UNL     1      -1.274  -6.572  -2.632  0.00  0.00    +0.150 C 
ATOM     11  S   UNL     1      -0.919  -8.192  -3.056  0.00  0.00    -0.018 S 
ATOM     12  H   UNL     1      -2.636  -6.371  -4.086  0.00  0.00    +0.157 HD
BRANCH   3  16
ATOM     13  C   UNL     1       2.203  -8.310   0.452  0.00  0.00    -0.045 A 
ATOM     14  C   UNL     1       2.615  -7.254  -0.340  0.00  0.00    +0.006 A 
ATOM     15  C   UNL     1       1.683  -6.495  -1.021  0.00  0.00    +0.024 A 
ATOM     16  C   UNL     1       0.332  -6.794  -0.911  0.00  0.00    +0.043 A 
ATOM     17  C   UNL     1      -0.079  -7.852  -0.111  0.00  0.00    +0.024 A 
ATOM     18  C   UNL     1       0.858  -8.611   0.564  0.00  0.00    +0.006 A 
BRANCH  13  20
ATOM     19  C   UNL     1       2.949  -9.055   2.696  0.00  0.00    +0.012 C 
ATOM     20  C   UNL     1       3.222  -9.136   1.193  0.00  0.00    +0.013 C 
ATOM     21  C   UNL     1       3.128 -10.594   0.736  0.00  0.00    +0.012 C 
ENDBRANCH  13  20
ENDBRANCH   3  16
ENDBRANCH   1   6
BRANCH   2  22
ATOM     22  C   UNL     1      -1.888  -0.731  -0.141  0.00  0.00    +0.130 C 
BRANCH  22  23
ATOM     23  C   UNL     1      -1.047  -0.324   1.070  0.00  0.00    -0.012 C 
ATOM     24  C   UNL     1       0.414  -0.428   0.718  0.00  0.00    -0.011 A 
ATOM     25  C   UNL     1       1.338  -0.961   1.593  0.00  0.00    -0.040 A 
ATOM     26  C   UNL     1       2.674  -1.033   1.230  0.00  0.00    +0.053 A 
ATOM     27  C   UNL     1       3.092  -0.577  -0.009  0.00  0.00    +0.170 A 
ATOM     28  C   UNL     1       2.164  -0.040  -0.895  0.00  0.00    +0.208 A 
ATOM     29  C   UNL     1       0.828   0.037  -0.526  0.00  0.00    +0.167 A 
ATOM     30  O   UNL     1       2.814   0.334  -2.036  0.00  0.00    -0.449 OA
ATOM     31  C   UNL     1       4.080  -0.352  -1.999  0.00  0.00    +0.467 C 
ATOM     32  O   UNL     1       4.326  -0.539  -0.593  0.00  0.00    -0.452 OA
ATOM     33  C   UNL     1       0.934  -1.477   2.950  0.00  0.00    +0.017 C 
ATOM     34  C   UNL     1      -0.450  -0.945   3.321  0.00  0.00    -0.074 C 
ATOM     35  C   UNL     1      -2.766  -1.040   2.614  0.00  0.00    -0.095 C 
ATOM     36  N   UNL     1      -1.359  -1.225   2.192  0.00  0.00    +0.384 N 
ATOM     37  H   UNL     1      -1.226  -2.197   1.888  0.00  0.00    -0.081 HD
BRANCH  29  38
ATOM     38  O   UNL     1      -0.082   0.565  -1.388  0.00  0.00    -0.491 OA
ATOM     39  C   UNL     1      -0.316   1.972  -1.302  0.00  0.00    +0.277 C 
ENDBRANCH  29  38
ENDBRANCH  22  23
ENDBRANCH   2  22
TORSDOF 6
