REMARK  Name = ZINC39533891
REMARK  10 active torsions:
REMARK  status: ('A' for Active; 'I' for Inactive)
REMARK    1  A    between atoms: C_4  and  C_7
REMARK    2  A    between atoms: C_7  and  N_8
REMARK    3  A    between atoms: N_8  and  C_9
REMARK    4  A    between atoms: C_9  and  C_10
REMARK    5  A    between atoms: C_10  and  C_12
REMARK    6  A    between atoms: C_10  and  N_24
REMARK    7  A    between atoms: C_15  and  C_18
REMARK    8  A    between atoms: C_28  and  S_31
REMARK    9  A    between atoms: S_31  and  O_34
REMARK   10  A    between atoms: O_34  and  C_35
REMARK                            x       y       z     vdW  Elec       q    Type
REMARK                         _______ _______ _______ _____ _____    ______ ____
ROOT
ATOM      1  C   UNL     1       5.862  -1.907   2.814  0.00  0.00    +0.100 C 
ENDROOT
BRANCH   1   2
ATOM      2  N   UNL     1       5.992  -0.454   2.980  0.00  0.00    -0.296 NA
ATOM      3  C   UNL     1       6.725   0.141   1.853  0.00  0.00    +0.066 C 
ATOM      4  C   UNL     1       6.787   1.659   2.034  0.00  0.00    -0.064 C 
ATOM      5  N   UNL     1       7.462   1.975   3.300  0.00  0.00    +0.398 N 
ATOM      6  C   UNL     1       6.705   1.395   4.417  0.00  0.00    +0.130 C 
ATOM      7  C   UNL     1       6.642  -0.125   4.256  0.00  0.00    +0.095 C 
ATOM      8  H   UNL     1       8.394   1.589   3.289  0.00  0.00    -0.083 HD
ATOM      9  H   UNL     1       7.513   2.976   3.413  0.00  0.00    -0.083 HD
BRANCH   6  10
ATOM     10  S   UNL     1       7.527   1.804   5.981  0.00  0.00    +0.109 S 
ATOM     11  O   UNL     1       6.717   1.406   7.079  0.00  0.00    -0.138 OA
ATOM     12  O   UNL     1       8.899   1.438   5.923  0.00  0.00    -0.138 OA
BRANCH  10  13
ATOM     13  O   UNL     1       7.533   3.325   6.035  0.00  0.00    -0.347 OA
BRANCH  13  14
ATOM     14  C   UNL     1       6.325   3.872   6.331  0.00  0.00    +0.156 A 
ATOM     15  C   UNL     1       5.436   4.189   5.314  0.00  0.00    +0.048 A 
ATOM     16  C   UNL     1       4.209   4.744   5.618  0.00  0.00    +0.004 A 
ATOM     17  C   UNL     1       3.865   4.986   6.935  0.00  0.00    +0.000 A 
ATOM     18  C   UNL     1       4.749   4.672   7.951  0.00  0.00    +0.004 A 
ATOM     19  C   UNL     1       5.975   4.111   7.653  0.00  0.00    +0.048 A 
ENDBRANCH  13  14
ENDBRANCH  10  13
ENDBRANCH   6  10
ENDBRANCH   1   2
BRANCH   1  20
ATOM     20  C   UNL     1       7.231  -2.525   2.698  0.00  0.00    -0.029 A 
ATOM     21  C   UNL     1       7.732  -3.290   3.736  0.00  0.00    +0.006 A 
ATOM     22  C   UNL     1       8.986  -3.858   3.635  0.00  0.00    +0.009 A 
ATOM     23  C   UNL     1       9.748  -3.659   2.485  0.00  0.00    -0.018 A 
ATOM     24  C   UNL     1       9.238  -2.887   1.443  0.00  0.00    +0.009 A 
ATOM     25  C   UNL     1       7.981  -2.329   1.552  0.00  0.00    +0.006 A 
BRANCH  23  26
ATOM     26  C   UNL     1      11.097  -4.267   2.371  0.00  0.00    -0.018 A 
ATOM     27  C   UNL     1      11.604  -5.043   3.411  0.00  0.00    +0.008 A 
ATOM     28  C   UNL     1      12.859  -5.606   3.299  0.00  0.00    +0.001 A 
ATOM     29  C   UNL     1      13.613  -5.401   2.158  0.00  0.00    +0.000 A 
ATOM     30  C   UNL     1      13.115  -4.630   1.123  0.00  0.00    +0.001 A 
ATOM     31  C   UNL     1      11.858  -4.068   1.221  0.00  0.00    +0.008 A 
ENDBRANCH  23  26
ENDBRANCH   1  20
BRANCH   1  32
ATOM     32  C   UNL     1       5.059  -2.206   1.546  0.00  0.00    +0.104 C 
BRANCH  32  33
ATOM     33  N   UNL     1       3.769  -1.505   1.607  0.00  0.00    -0.310 NA
ATOM     34  H   UNL     1       3.902  -0.514   1.742  0.00  0.00    +0.122 HD
BRANCH  33  35
ATOM     35  C   UNL     1       2.969  -1.769   0.404  0.00  0.00    +0.116 C 
BRANCH  35  39
ATOM     36  C   UNL     1      -0.752   0.310   0.680  0.00  0.00    +0.000 A 
ATOM     37  C   UNL     1       0.342   0.925   0.101  0.00  0.00    +0.000 A 
ATOM     38  C   UNL     1       1.546   0.252   0.011  0.00  0.00    +0.005 A 
ATOM     39  C   UNL     1       1.656  -1.036   0.502  0.00  0.00    -0.034 A 
ATOM     40  C   UNL     1       0.563  -1.650   1.082  0.00  0.00    +0.005 A 
ATOM     41  C   UNL     1      -0.642  -0.978   1.170  0.00  0.00    +0.000 A 
ENDBRANCH  35  39
ENDBRANCH  33  35
ENDBRANCH  32  33
ENDBRANCH   1  32
TORSDOF 10
