REMARK  Name = ZINC39722247
REMARK  7 active torsions:
REMARK  status: ('A' for Active; 'I' for Inactive)
REMARK    1  A    between atoms: C_1  and  C_2
REMARK    2  A    between atoms: C_2  and  C_3
REMARK    3  A    between atoms: C_3  and  N_4
REMARK    4  A    between atoms: C_5  and  S_16
REMARK    5  A    between atoms: S_16  and  C_17
REMARK    6  A    between atoms: C_17  and  C_18
REMARK    7  A    between atoms: C_26  and  C_30
REMARK                            x       y       z     vdW  Elec       q    Type
REMARK                         _______ _______ _______ _____ _____    ______ ____
ROOT
ATOM      1  S   UNL     1       0.120  -3.080   3.591  0.00  0.00    -0.111 S 
ENDROOT
BRANCH   1   3
ATOM      2  N   UNL     1       0.762  -1.976   1.234  0.00  0.00    -0.270 N 
ATOM      3  C   UNL     1      -0.329  -2.713   1.872  0.00  0.00    +0.222 C 
ATOM      4  N   UNL     1      -0.579  -3.971   1.160  0.00  0.00    -0.317 N 
ATOM      5  C   UNL     1       0.508  -4.739   0.755  0.00  0.00    +0.041 A 
ATOM      6  C   UNL     1       0.421  -6.115   0.631  0.00  0.00    +0.024 A 
ATOM      7  C   UNL     1       1.525  -6.835   0.216  0.00  0.00    +0.002 A 
ATOM      8  C   UNL     1       2.716  -6.191  -0.078  0.00  0.00    +0.001 A 
ATOM      9  C   UNL     1       2.821  -4.821   0.045  0.00  0.00    +0.015 A 
ATOM     10  C   UNL     1       1.717  -4.083   0.467  0.00  0.00    +0.058 A 
ATOM     11  C   UNL     1       1.782  -2.621   0.633  0.00  0.00    +0.250 C 
ATOM     12  O   UNL     1       2.750  -2.002   0.235  0.00  0.00    -0.270 OA
ATOM     13  H   UNL     1      -1.485  -4.262   0.974  0.00  0.00    +0.149 HD
BRANCH   2  14
ATOM     14  C   UNL     1       0.742  -0.511   1.242  0.00  0.00    +0.110 C 
BRANCH  14  16
ATOM     15  C   UNL     1      -0.019   1.526   0.010  0.00  0.00    +0.005 C 
ATOM     16  C   UNL     1       0.002  -0.004   0.002  0.00  0.00    +0.016 C 
ENDBRANCH  14  16
ENDBRANCH   2  14
ENDBRANCH   1   3
BRANCH   1  17
ATOM     17  C   UNL     1       1.628  -4.077   3.447  0.00  0.00    +0.146 C 
BRANCH  17  18
ATOM     18  C   UNL     1       2.114  -4.454   4.823  0.00  0.00    +0.120 A 
ATOM     19  N   UNL     1       3.243  -5.202   4.926  0.00  0.00    -0.310 N 
ATOM     20  H   UNL     1       3.712  -5.477   4.122  0.00  0.00    +0.170 HD
ATOM     21  C   UNL     1       3.721  -5.567   6.138  0.00  0.00    +0.259 A 
ATOM     22  O   UNL     1       4.731  -6.236   6.244  0.00  0.00    -0.267 OA
ATOM     23  C   UNL     1       2.969  -5.122   7.325  0.00  0.00    +0.065 A 
ATOM     24  C   UNL     1       3.379  -5.445   8.617  0.00  0.00    +0.016 A 
ATOM     25  C   UNL     1       2.653  -5.011   9.689  0.00  0.00    +0.016 A 
ATOM     26  C   UNL     1       1.497  -4.242   9.503  0.00  0.00    +0.065 A 
ATOM     27  C   UNL     1       1.071  -3.909   8.222  0.00  0.00    +0.043 A 
ATOM     28  C   UNL     1       1.807  -4.348   7.119  0.00  0.00    +0.079 A 
ATOM     29  N   UNL     1       1.434  -4.043   5.850  0.00  0.00    -0.233 NA
BRANCH  26  30
ATOM     30  C   UNL     1       0.725  -3.782  10.676  0.00  0.00    +0.387 C 
ATOM     31  O   UNL     1       1.095  -4.072  11.804  0.00  0.00    -0.241 OA
ATOM     32  O   UNL     1      -0.285  -3.111  10.518  0.00  0.00    -0.241 OA
ENDBRANCH  26  30
ENDBRANCH  17  18
ENDBRANCH   1  17
TORSDOF 6
