REMARK  Name = ZINC09368285
REMARK  7 active torsions:
REMARK  status: ('A' for Active; 'I' for Inactive)
REMARK    1  A    between atoms: C_1  and  C_2
REMARK    2  A    between atoms: C_5  and  C_29
REMARK    3  A    between atoms: C_6  and  N_8
REMARK    4  A    between atoms: C_9  and  C_11
REMARK    5  A    between atoms: C_11  and  S_12
REMARK    6  A    between atoms: S_12  and  C_13
REMARK    7  A    between atoms: C_19  and  C_21
REMARK                            x       y       z     vdW  Elec       q    Type
REMARK                         _______ _______ _______ _____ _____    ______ ____
ROOT
ATOM      1  C   UNL     1       5.656   7.682  -0.041  0.00  0.00    +0.160 A 
ATOM      2  N   UNL     1       5.820   6.367  -0.057  0.00  0.00    -0.133 NA
ATOM      3  N   UNL     1       4.840   5.573  -0.062  0.00  0.00    -0.125 NA
ATOM      4  C   UNL     1       3.589   6.003  -0.052  0.00  0.00    +0.189 A 
ATOM      5  S   UNL     1       3.867   7.772  -0.040  0.00  0.00    -0.024 S 
ATOM      6  N   UNL     1       2.396   5.286  -0.055  0.00  0.00    -0.259 N 
ATOM      7  C   UNL     1       2.420   3.938  -0.071  0.00  0.00    +0.251 C 
ATOM      8  O   UNL     1       3.484   3.350  -0.082  0.00  0.00    -0.270 OA
ATOM      9  H   UNL     1       1.547   5.755  -0.046  0.00  0.00    +0.157 HD
ENDROOT
BRANCH   7  10
ATOM     10  C   UNL     1       1.155   3.177  -0.074  0.00  0.00    +0.056 A 
ATOM     11  C   UNL     1      -0.069   3.850  -0.061  0.00  0.00    +0.029 A 
ATOM     12  C   UNL     1      -1.247   3.132  -0.063  0.00  0.00    +0.019 A 
ATOM     13  C   UNL     1      -1.219   1.748  -0.085  0.00  0.00    +0.017 A 
ATOM     14  C   UNL     1      -0.012   1.074  -0.093  0.00  0.00    +0.022 A 
ATOM     15  C   UNL     1       1.176   1.780  -0.090  0.00  0.00    +0.053 A 
ATOM     16 CL   UNL     1       2.692   0.933  -0.107  0.00  0.00    -0.083 Cl
ATOM     17 BR   UNL     1      -2.905   4.041  -0.045  0.00  0.00    -0.050 Br
ENDBRANCH   7  10
BRANCH   1  18
ATOM     18  S   UNL     1       6.855   8.973  -0.031  0.00  0.00    -0.088 S 
BRANCH  18  19
ATOM     19  C   UNL     1       8.443   8.097  -0.047  0.00  0.00    +0.172 C 
BRANCH  19  21
ATOM     20  N   UNL     1      10.848   8.674  -0.051  0.00  0.00    -0.285 N 
ATOM     21  C   UNL     1       9.569   9.099  -0.040  0.00  0.00    +0.227 C 
ATOM     22  O   UNL     1       9.324  10.286  -0.025  0.00  0.00    -0.275 OA
ATOM     23  H   UNL     1      11.046   7.727   0.018  0.00  0.00    +0.155 HD
BRANCH  20  29
ATOM     24  C   UNL     1      12.454  13.088  -1.505  0.00  0.00    +0.044 C 
ATOM     25  C   UNL     1      12.698  11.747  -0.861  0.00  0.00    -0.049 A 
ATOM     26  C   UNL     1      13.955  11.431  -0.379  0.00  0.00    +0.004 A 
ATOM     27  C   UNL     1      14.183  10.202   0.212  0.00  0.00    +0.005 A 
ATOM     28  C   UNL     1      13.155   9.286   0.322  0.00  0.00    -0.029 A 
ATOM     29  C   UNL     1      11.892   9.600  -0.161  0.00  0.00    +0.037 A 
ATOM     30  C   UNL     1      11.668  10.834  -0.758  0.00  0.00    +0.027 A 
ATOM     31  C   UNL     1      13.404   7.946   0.967  0.00  0.00    +0.045 C 
ENDBRANCH  20  29
ENDBRANCH  19  21
ENDBRANCH  18  19
ENDBRANCH   1  18
TORSDOF 5
