REMARK  Name = ZINC05699045
REMARK  7 active torsions:
REMARK  status: ('A' for Active; 'I' for Inactive)
REMARK    1  A    between atoms: C_10  and  N_11
REMARK    2  A    between atoms: N_11  and  C_12
REMARK    3  A    between atoms: C_12  and  C_13
REMARK    4  A    between atoms: C_13  and  N_14
REMARK    5  A    between atoms: N_14  and  C_15
REMARK    6  A    between atoms: C_18  and  N_23
REMARK    7  A    between atoms: C_20  and  C_21
REMARK                            x       y       z     vdW  Elec       q    Type
REMARK                         _______ _______ _______ _____ _____    ______ ____
ROOT
ATOM      1  C   UNL     1      -0.013   1.086   0.008  0.00  0.00    +0.120 C 
ENDROOT
BRANCH   1   2
ATOM      2  N   UNL     1      -0.698   1.558   1.213  0.00  0.00    -0.341 N 
ATOM      3  H   UNL     1      -1.495   2.106   1.135  0.00  0.00    +0.146 HD
BRANCH   2   4
ATOM      4  C   UNL     1      -0.207   1.222   2.470  0.00  0.00    +0.045 A 
ATOM      5  C   UNL     1       0.934   0.439   2.586  0.00  0.00    +0.026 A 
ATOM      6  C   UNL     1       1.421   0.107   3.834  0.00  0.00    +0.034 A 
ATOM      7  C   UNL     1       0.778   0.551   4.979  0.00  0.00    +0.128 A 
ATOM      8  C   UNL     1      -0.356   1.329   4.883  0.00  0.00    +0.053 A 
ATOM      9  C   UNL     1      -0.858   1.678   3.627  0.00  0.00    +0.075 A 
BRANCH   7  10
ATOM     10  N   UNL     1       1.312   0.188   6.311  0.00  0.00    +0.056 N 
ATOM     11  O   UNL     1       2.313  -0.499   6.399  0.00  0.00    -0.126 OA
ATOM     12  O   UNL     1       0.749   0.577   7.319  0.00  0.00    -0.126 OA
ENDBRANCH   7  10
BRANCH   9  13
ATOM     13  C   UNL     1      -2.032   2.491   3.521  0.00  0.00    +0.101 C 
ATOM     14  N   UNL     1      -2.963   3.136   3.436  0.00  0.00    -0.191 NA
ENDBRANCH   9  13
ENDBRANCH   2   4
ENDBRANCH   1   2
BRANCH   1  15
ATOM     15  C   UNL     1      -0.753   1.593  -1.232  0.00  0.00    +0.120 C 
BRANCH  15  16
ATOM     16  N   UNL     1      -0.067   1.120  -2.437  0.00  0.00    -0.342 N 
ATOM     17  H   UNL     1       0.730   0.573  -2.358  0.00  0.00    +0.146 HD
BRANCH  16  27
ATOM     18  C   UNL     1       1.348   0.141  -7.180  0.00  0.00    +0.001 A 
ATOM     19  C   UNL     1       1.858  -0.206  -5.931  0.00  0.00    +0.001 A 
ATOM     20  C   UNL     1       1.252   0.212  -4.786  0.00  0.00    +0.010 A 
ATOM     21  C   UNL     1       0.099   1.010  -4.861  0.00  0.00    +0.003 A 
ATOM     22  C   UNL     1      -0.423   1.360  -6.131  0.00  0.00    -0.016 A 
ATOM     23  C   UNL     1       0.230   0.910  -7.292  0.00  0.00    +0.008 A 
ATOM     24  C   UNL     1      -1.579   2.155  -6.208  0.00  0.00    +0.008 A 
ATOM     25  C   UNL     1      -2.192   2.577  -5.067  0.00  0.00    +0.002 A 
ATOM     26  C   UNL     1      -1.692   2.235  -3.814  0.00  0.00    +0.023 A 
ATOM     27  C   UNL     1      -0.559   1.457  -3.696  0.00  0.00    +0.035 A 
ENDBRANCH  16  27
ENDBRANCH  15  16
ENDBRANCH   1  15
TORSDOF 7
