REMARK  Name = ZINC23936516
REMARK  8 active torsions:
REMARK  status: ('A' for Active; 'I' for Inactive)
REMARK    1  A    between atoms: C_4  and  N_7
REMARK    2  A    between atoms: C_8  and  C_29
REMARK    3  A    between atoms: C_11  and  S_12
REMARK    4  A    between atoms: S_12  and  C_13
REMARK    5  A    between atoms: C_13  and  C_14
REMARK    6  A    between atoms: N_16  and  C_17
REMARK    7  A    between atoms: C_17  and  C_18
REMARK    8  A    between atoms: C_29  and  N_30
REMARK                            x       y       z     vdW  Elec       q    Type
REMARK                         _______ _______ _______ _____ _____    ______ ____
ROOT
ATOM      1  N   UNL     1       5.350  -0.909   1.276  0.00  0.00    -0.276 N 
ATOM      2  C   UNL     1       4.435  -0.185   1.993  0.00  0.00    +0.122 A 
ATOM      3  N   UNL     1       5.045   0.876   2.441  0.00  0.00    -0.135 NA
ATOM      4  N   UNL     1       6.271   0.876   2.057  0.00  0.00    -0.122 NA
ATOM      5  C   UNL     1       6.515  -0.194   1.336  0.00  0.00    +0.197 A 
ENDROOT
BRANCH   1   9
ATOM      6  C   UNL     1       4.719  -4.534  -0.684  0.00  0.00    +0.000 A 
ATOM      7  C   UNL     1       5.025  -3.400  -1.413  0.00  0.00    +0.002 A 
ATOM      8  C   UNL     1       5.235  -2.198  -0.766  0.00  0.00    +0.026 A 
ATOM      9  C   UNL     1       5.138  -2.129   0.617  0.00  0.00    +0.050 A 
ATOM     10  C   UNL     1       4.835  -3.270   1.347  0.00  0.00    +0.026 A 
ATOM     11  C   UNL     1       4.621  -4.469   0.694  0.00  0.00    +0.002 A 
ENDBRANCH   1   9
BRANCH   5  12
ATOM     12  S   UNL     1       8.052  -0.629   0.592  0.00  0.00    -0.076 S 
BRANCH  12  13
ATOM     13  C   UNL     1       9.065   0.774   1.121  0.00  0.00    +0.173 C 
BRANCH  13  14
ATOM     14  C   UNL     1      10.465   0.612   0.585  0.00  0.00    +0.223 C 
ATOM     15  O   UNL     1      10.749  -0.356  -0.087  0.00  0.00    -0.275 OA
ATOM     16  N   UNL     1      11.401   1.544   0.854  0.00  0.00    -0.311 N 
ATOM     17  H   UNL     1      11.143   2.423   1.464  0.00  0.00    +0.149 HD
BRANCH  16  18
ATOM     18  C   UNL     1      12.761   1.387   0.333  0.00  0.00    +0.152 C 
BRANCH  18  19
ATOM     19  C   UNL     1      13.618   2.574   0.780  0.00  0.00    +0.228 C 
ATOM     20  C   UNL     1      15.041   2.422   0.225  0.00  0.00    +0.275 C 
ATOM     21  O   UNL     1      15.810   3.552   0.650  0.00  0.00    -0.485 OA
ATOM     22  C   UNL     1      15.230   4.775   0.510  0.00  0.00    +0.162 A 
ATOM     23  C   UNL     1      16.020   5.914   0.558  0.00  0.00    +0.049 A 
ATOM     24  C   UNL     1      15.445   7.163   0.422  0.00  0.00    +0.004 A 
ATOM     25  C   UNL     1      14.080   7.281   0.236  0.00  0.00    +0.004 A 
ATOM     26  C   UNL     1      13.287   6.151   0.185  0.00  0.00    +0.049 A 
ATOM     27  C   UNL     1      13.858   4.894   0.321  0.00  0.00    +0.163 A 
ATOM     28  O   UNL     1      13.064   3.790   0.267  0.00  0.00    -0.480 OA
ENDBRANCH  18  19
ENDBRANCH  16  18
ENDBRANCH  13  14
ENDBRANCH  12  13
ENDBRANCH   5  12
BRANCH   2  29
ATOM     29  C   UNL     1       2.991  -0.550   2.226  0.00  0.00    -0.001 C 
BRANCH  29  30
ATOM     30  N   UNL     1       2.163   0.021   1.155  0.00  0.00    +0.384 N 
ATOM     31  C   UNL     1       0.793  -0.505   1.212  0.00  0.00    -0.078 C 
ATOM     32  C   UNL     1       0.002  -0.004   0.002  0.00  0.00    -0.019 C 
ATOM     33  C   UNL     1      -0.019   1.527   0.010  0.00  0.00    -0.004 C 
ATOM     34  C   UNL     1       1.421   2.049  -0.001  0.00  0.00    -0.019 C 
ATOM     35  C   UNL     1       2.171   1.488   1.210  0.00  0.00    -0.078 C 
ATOM     36  H   UNL     1       2.598  -0.281   0.191  0.00  0.00    -0.081 HD
ENDBRANCH  29  30
ENDBRANCH   2  29
TORSDOF 8
