REMARK  Name = ZINC22912935
REMARK  9 active torsions:
REMARK  status: ('A' for Active; 'I' for Inactive)
REMARK    1  A    between atoms: C_1  and  C_2
REMARK    2  A    between atoms: C_2  and  C_27
REMARK    3  A    between atoms: N_5  and  C_9
REMARK    4  A    between atoms: C_9  and  N_10
REMARK    5  A    between atoms: N_13  and  C_16
REMARK    6  A    between atoms: C_16  and  C_17
REMARK    7  A    between atoms: N_19  and  C_20
REMARK    8  A    between atoms: C_27  and  C_28
REMARK    9  A    between atoms: C_28  and  C_29
REMARK                            x       y       z     vdW  Elec       q    Type
REMARK                         _______ _______ _______ _____ _____    ______ ____
ROOT
ATOM      1  N   UNL     1       0.220   2.570   5.441  0.00  0.00    -0.290 NA
ATOM      2  C   UNL     1      -0.383   3.893   5.651  0.00  0.00    +0.067 C 
ATOM      3  C   UNL     1      -1.375   3.820   6.815  0.00  0.00    -0.063 C 
ATOM      4  N   UNL     1      -0.674   3.365   8.024  0.00  0.00    +0.387 N 
ATOM      5  C   UNL     1      -0.071   2.042   7.813  0.00  0.00    -0.063 C 
ATOM      6  C   UNL     1       0.921   2.115   6.650  0.00  0.00    +0.067 C 
ATOM      7  H   UNL     1       0.137   4.079   8.235  0.00  0.00    -0.081 HD
ENDROOT
BRANCH   1   8
ATOM      8  C   UNL     1       1.123   2.581   4.282  0.00  0.00    +0.204 C 
BRANCH   8  13
ATOM      9  C   UNL     1      -2.188   1.014   1.336  0.00  0.00    +0.041 C 
ATOM     10  C   UNL     1      -0.781   1.609   1.244  0.00  0.00    +0.110 C 
ATOM     11  C   UNL     1       0.027   1.261   2.479  0.00  0.00    +0.247 C 
ATOM     12  O   UNL     1       0.328   0.153   2.868  0.00  0.00    -0.273 OA
ATOM     13  N   UNL     1       0.339   2.444   3.051  0.00  0.00    -0.211 N 
ATOM     14  C   UNL     1      -0.157   3.475   2.358  0.00  0.00    +0.310 C 
ATOM     15  O   UNL     1      -0.008   4.638   2.677  0.00  0.00    -0.252 OA
ATOM     16  N   UNL     1      -0.838   3.081   1.267  0.00  0.00    -0.285 N 
ATOM     17  H   UNL     1      -1.374   3.623   0.474  0.00  0.00    +0.151 HD
BRANCH  10  18
ATOM     18  C   UNL     1      -0.072   1.117  -0.019  0.00  0.00    +0.039 C 
BRANCH  18  19
ATOM     19  C   UNL     1      -0.814   1.634  -1.254  0.00  0.00    +0.037 C 
BRANCH  19  20
ATOM     20  C   UNL     1      -0.116   1.149  -2.498  0.00  0.00    -0.047 A 
ATOM     21  C   UNL     1       0.884   1.913  -3.072  0.00  0.00    +0.003 A 
ATOM     22  C   UNL     1       1.528   1.466  -4.210  0.00  0.00    +0.000 A 
ATOM     23  C   UNL     1       1.165   0.261  -4.782  0.00  0.00    +0.000 A 
ATOM     24  C   UNL     1       0.161  -0.500  -4.212  0.00  0.00    +0.000 A 
ATOM     25  C   UNL     1      -0.479  -0.056  -3.070  0.00  0.00    +0.003 A 
ENDBRANCH  19  20
ENDBRANCH  18  19
ENDBRANCH  10  18
ENDBRANCH   8  13
ENDBRANCH   1   8
BRANCH   4  26
ATOM     26  C   UNL     1      -1.577   3.354   9.183  0.00  0.00    +0.019 C 
BRANCH  26  27
ATOM     27  C   UNL     1      -1.982   4.767   9.517  0.00  0.00    +0.201 C 
ATOM     28  O   UNL     1      -1.561   5.692   8.855  0.00  0.00    -0.278 OA
ATOM     29  N   UNL     1      -2.813   5.002  10.552  0.00  0.00    -0.286 N 
ATOM     30  H   UNL     1      -3.254   4.160  11.106  0.00  0.00    +0.155 HD
BRANCH  29  31
ATOM     31  C   UNL     1      -3.116   6.318  10.921  0.00  0.00    +0.052 A 
ATOM     32  C   UNL     1      -3.219   7.307   9.951  0.00  0.00    +0.025 A 
ATOM     33  C   UNL     1      -3.523   8.603  10.318  0.00  0.00    +0.002 A 
ATOM     34  C   UNL     1      -3.714   8.920  11.650  0.00  0.00    +0.002 A 
ATOM     35  C   UNL     1      -3.606   7.940  12.620  0.00  0.00    +0.022 A 
ATOM     36  C   UNL     1      -3.308   6.639  12.259  0.00  0.00    +0.062 A 
ATOM     37 CL   UNL     1      -3.172   5.409  13.476  0.00  0.00    -0.082 Cl
ENDBRANCH  29  31
ENDBRANCH  26  27
ENDBRANCH   4  26
TORSDOF 8
