REMARK  Name = ZINC21084705
REMARK  9 active torsions:
REMARK  status: ('A' for Active; 'I' for Inactive)
REMARK    1  A    between atoms: C_1  and  C_2
REMARK    2  A    between atoms: C_2  and  C_3
REMARK    3  A    between atoms: C_3  and  C_5
REMARK    4  A    between atoms: C_3  and  S_6
REMARK    5  A    between atoms: S_6  and  C_7
REMARK    6  A    between atoms: C_13  and  C_15
REMARK    7  A    between atoms: C_15  and  S_16
REMARK    8  A    between atoms: S_16  and  C_17
REMARK    9  A    between atoms: N_22  and  N_23
REMARK                            x       y       z     vdW  Elec       q    Type
REMARK                         _______ _______ _______ _____ _____    ______ ____
ROOT
ATOM      1  C   UNL     1       5.690   3.717  -0.033  0.00  0.00    +0.173 C 
ENDROOT
BRANCH   1   8
ATOM      2  C   UNL     1      11.894   5.284  -0.084  0.00  0.00    +0.160 A 
ATOM      3  N   UNL     1      11.361   4.070  -0.085  0.00  0.00    -0.133 NA
ATOM      4  N   UNL     1      10.113   3.890  -0.068  0.00  0.00    -0.125 NA
ATOM      5  C   UNL     1       9.259   4.900  -0.061  0.00  0.00    +0.189 A 
ATOM      6  S   UNL     1      10.404   6.276  -0.066  0.00  0.00    -0.024 S 
ATOM      7  N   UNL     1       7.866   4.894  -0.048  0.00  0.00    -0.263 N 
ATOM      8  C   UNL     1       7.197   3.724  -0.048  0.00  0.00    +0.229 C 
ATOM      9  O   UNL     1       7.808   2.676  -0.058  0.00  0.00    -0.275 OA
ATOM     10  H   UNL     1       7.312   5.844  -0.038  0.00  0.00    +0.157 HD
BRANCH   2  11
ATOM     11  S   UNL     1      13.585   5.779  -0.098  0.00  0.00    -0.094 S 
BRANCH  11  12
ATOM     12  C   UNL     1      14.500   4.213  -0.114  0.00  0.00    +0.050 C 
ATOM     13  C   UNL     1      14.219   3.471  -1.423  0.00  0.00    +0.019 C 
BRANCH  12  15
ATOM     14  C   UNL     1      16.298   5.127   1.361  0.00  0.00    +0.005 C 
ATOM     15  C   UNL     1      15.999   4.498  -0.001  0.00  0.00    +0.011 C 
ENDBRANCH  12  15
ENDBRANCH  11  12
ENDBRANCH   2  11
ENDBRANCH   1   8
BRANCH   1  16
ATOM     16  S   UNL     1       5.093   2.004  -0.036  0.00  0.00    -0.075 S 
BRANCH  16  17
ATOM     17  C   UNL     1       3.338   2.165  -0.019  0.00  0.00    +0.211 A 
ATOM     18  N   UNL     1       2.438   1.137  -0.015  0.00  0.00    -0.186 NA
ATOM     19  C   UNL     1       1.182   1.676  -0.000  0.00  0.00    +0.232 A 
ATOM     20  N   UNL     1       1.301   2.982  -0.000  0.00  0.00    -0.245 N 
ATOM     21  N   UNL     1       2.667   3.292  -0.006  0.00  0.00    -0.144 NA
ATOM     22  N   UNL     1      -0.011   0.966   0.007  0.00  0.00    -0.205 N 
ATOM     23  H   UNL     1       0.004  -0.134   0.006  0.00  0.00    +0.177 HD
ATOM     24  H   UNL     1       0.402   3.616   0.004  0.00  0.00    +0.192 HD
BRANCH  22  25
ATOM     25  N   UNL     1      -1.234   1.650   0.017  0.00  0.00    -0.189 NA
ATOM     26  C   UNL     1      -2.334   0.995   0.018  0.00  0.00    +0.037 C 
ATOM     27  C   UNL     1      -2.481  -0.513   0.004  0.00  0.00    +0.052 C 
ATOM     28  C   UNL     1      -3.994  -0.815   0.006  0.00  0.00    +0.006 C 
ATOM     29  C   UNL     1      -4.625   0.474  -0.579  0.00  0.00    +0.006 C 
ATOM     30  C   UNL     1      -3.733   1.585   0.028  0.00  0.00    +0.052 C 
ENDBRANCH  22  25
ENDBRANCH  16  17
ENDBRANCH   1  16
TORSDOF 7
