REMARK  Name = ZINC08636222
REMARK  8 active torsions:
REMARK  status: ('A' for Active; 'I' for Inactive)
REMARK    1  A    between atoms: C_10  and  C_11
REMARK    2  A    between atoms: C_10  and  N_68
REMARK    3  A    between atoms: C_19  and  C_21
REMARK    4  A    between atoms: C_21  and  N_22
REMARK    5  A    between atoms: N_22  and  C_23
REMARK    6  A    between atoms: C_23  and  N_25
REMARK    7  A    between atoms: N_25  and  C_26
REMARK    8  A    between atoms: C_29  and  N_32
REMARK                            x       y       z     vdW  Elec       q    Type
REMARK                         _______ _______ _______ _____ _____    ______ ____
ROOT
ATOM      1  C   UNL     1      -3.908  -6.199   2.087  0.00  0.00    -0.041 C 
ATOM      2  C   UNL     1      -3.915  -4.669   2.016  0.00  0.00    -0.076 C 
ATOM      3  C   UNL     1      -5.933  -4.685   0.678  0.00  0.00    -0.078 C 
ATOM      4  C   UNL     1      -5.984  -6.215   0.710  0.00  0.00    -0.015 C 
ATOM      5  C   UNL     1      -4.552  -6.757   0.811  0.00  0.00    -0.015 C 
ATOM      6  C   UNL     1      -3.753  -6.257  -0.399  0.00  0.00    -0.010 C 
ATOM      7  C   UNL     1      -3.764  -4.726  -0.401  0.00  0.00    -0.051 C 
ATOM      8  N   UNL     1      -4.533  -4.214   0.753  0.00  0.00    +0.383 N 
ATOM      9  H   UNL     1      -4.526  -3.187   0.730  0.00  0.00    -0.081 HD
ENDROOT
BRANCH   1  10
ATOM     10  C   UNL     1      -2.466  -6.700   2.194  0.00  0.00    -0.076 C 
BRANCH  10  20
ATOM     11  C   UNL     1      -1.077  -5.519   8.357  0.00  0.00    +0.000 A 
ATOM     12  C   UNL     1      -2.445  -5.674   8.231  0.00  0.00    +0.000 A 
ATOM     13  C   UNL     1      -2.990  -5.997   7.005  0.00  0.00    +0.002 A 
ATOM     14  C   UNL     1      -2.172  -6.167   5.897  0.00  0.00    -0.061 A 
ATOM     15  C   UNL     1      -0.809  -6.008   6.023  0.00  0.00    -0.048 A 
ATOM     16  C   UNL     1      -0.263  -5.685   7.256  0.00  0.00    +0.004 A 
ATOM     17  C   UNL     1       0.119  -6.176   4.847  0.00  0.00    +0.017 C 
ATOM     18  C   UNL     1      -0.596  -6.921   3.720  0.00  0.00    -0.074 C 
ATOM     19  C   UNL     1      -2.812  -6.528   4.582  0.00  0.00    -0.043 C 
ATOM     20  N   UNL     1      -1.885  -6.241   3.474  0.00  0.00    +0.383 N 
ATOM     21  H   UNL     1      -1.726  -5.228   3.425  0.00  0.00    -0.081 HD
ENDBRANCH  10  20
ENDBRANCH   1  10
BRANCH   7  22
ATOM     22  C   UNL     1      -2.328  -4.205  -0.311  0.00  0.00    +0.088 C 
BRANCH  22  23
ATOM     23  N   UNL     1      -2.344  -2.745  -0.193  0.00  0.00    -0.328 N 
ATOM     24  H   UNL     1      -3.189  -2.269  -0.182  0.00  0.00    +0.148 HD
BRANCH  23  25
ATOM     25  C   UNL     1      -1.185  -2.064  -0.099  0.00  0.00    +0.134 C 
ATOM     26  S   UNL     1       0.306  -2.904  -0.118  0.00  0.00    -0.019 S 
BRANCH  25  27
ATOM     27  N   UNL     1      -1.200  -0.721   0.010  0.00  0.00    -0.297 N 
ATOM     28  H   UNL     1      -2.044  -0.251   0.102  0.00  0.00    +0.154 HD
BRANCH  27  29
ATOM     29  C   UNL     1       0.001  -0.003  -0.009  0.00  0.00    +0.033 A 
ATOM     30  C   UNL     1       0.194   1.054   0.871  0.00  0.00    +0.025 A 
ATOM     31  C   UNL     1       1.379   1.760   0.852  0.00  0.00    +0.029 A 
ATOM     32  C   UNL     1       2.379   1.416  -0.047  0.00  0.00    +0.065 A 
ATOM     33  C   UNL     1       2.187   0.359  -0.928  0.00  0.00    +0.029 A 
ATOM     34  C   UNL     1       1.002  -0.348  -0.909  0.00  0.00    +0.025 A 
BRANCH  32  35
ATOM     35  N   UNL     1       3.583   2.135  -0.067  0.00  0.00    -0.240 N 
ATOM     36  C   UNL     1       3.899   3.180   0.731  0.00  0.00    +0.114 A 
ATOM     37  C   UNL     1       5.145   3.590   0.398  0.00  0.00    +0.041 A 
ATOM     38  C   UNL     1       5.607   2.769  -0.637  0.00  0.00    +0.135 A 
ATOM     39  N   UNL     1       4.674   1.894  -0.913  0.00  0.00    -0.175 NA
ENDBRANCH  32  35
ENDBRANCH  27  29
ENDBRANCH  25  27
ENDBRANCH  23  25
ENDBRANCH  22  23
ENDBRANCH   7  22
TORSDOF 8
