REMARK  Name = ZINC12777085
REMARK  7 active torsions:
REMARK  status: ('A' for Active; 'I' for Inactive)
REMARK    1  A    between atoms: C_1  and  C_2
REMARK    2  A    between atoms: C_2  and  C_4
REMARK    3  A    between atoms: C_2  and  N_14
REMARK    4  A    between atoms: C_15  and  C_17
REMARK    5  A    between atoms: C_17  and  N_18
REMARK    6  A    between atoms: C_21  and  C_25
REMARK    7  A    between atoms: C_21  and  C_26
REMARK                            x       y       z     vdW  Elec       q    Type
REMARK                         _______ _______ _______ _____ _____    ______ ____
ROOT
ATOM      1  C   UNL     1      -5.089   7.523  -1.751  0.00  0.00    +0.213 C 
ENDROOT
BRANCH   1   2
ATOM      2  N   UNL     1      -4.876   8.820  -2.398  0.00  0.00    -0.215 N 
ATOM      3  C   UNL     1      -4.528   8.973  -3.691  0.00  0.00    +0.251 C 
ATOM      4  O   UNL     1      -4.338   8.097  -4.507  0.00  0.00    -0.272 OA
ATOM      5  C   UNL     1      -4.423  10.469  -3.912  0.00  0.00    +0.135 C 
ATOM      6  N   UNL     1      -4.755  11.038  -2.595  0.00  0.00    -0.281 N 
ATOM      7  C   UNL     1      -5.009   9.999  -1.780  0.00  0.00    +0.310 C 
ATOM      8  O   UNL     1      -5.321  10.117  -0.611  0.00  0.00    -0.252 OA
ATOM      9  C   UNL     1      -3.000  10.854  -4.321  0.00  0.00    +0.047 C 
ATOM     10  H   UNL     1      -4.789  11.979  -2.362  0.00  0.00    +0.152 HD
BRANCH   5  11
ATOM     11  C   UNL     1      -5.416  10.922  -4.952  0.00  0.00    -0.015 A 
ATOM     12  C   UNL     1      -5.793  10.064  -5.967  0.00  0.00    +0.007 A 
ATOM     13  C   UNL     1      -6.707  10.477  -6.918  0.00  0.00    +0.015 A 
ATOM     14  C   UNL     1      -7.237  11.754  -6.859  0.00  0.00    +0.018 A 
ATOM     15  C   UNL     1      -6.855  12.614  -5.845  0.00  0.00    +0.015 A 
ATOM     16  C   UNL     1      -5.944  12.198  -4.892  0.00  0.00    +0.007 A 
ATOM     17 BR   UNL     1      -8.481  12.323  -8.164  0.00  0.00    -0.050 Br
ENDBRANCH   5  11
ENDBRANCH   1   2
BRANCH   1  19
ATOM     18  N   UNL     1      -3.744   5.854  -0.516  0.00  0.00    -0.307 N 
ATOM     19  C   UNL     1      -3.789   7.035  -1.165  0.00  0.00    +0.231 C 
ATOM     20  O   UNL     1      -2.784   7.705  -1.276  0.00  0.00    -0.274 OA
ATOM     21  H   UNL     1      -4.548   5.318  -0.427  0.00  0.00    +0.149 HD
BRANCH  18  23
ATOM     22  C   UNL     1      -2.317   5.940   1.468  0.00  0.00    +0.033 C 
ATOM     23  C   UNL     1      -2.480   5.380   0.054  0.00  0.00    +0.101 C 
BRANCH  23  24
ATOM     24  C   UNL     1      -2.488   3.873   0.108  0.00  0.00    -0.020 A 
ATOM     25  C   UNL     1      -3.666   3.198   0.205  0.00  0.00    +0.006 A 
ATOM     26  C   UNL     1      -3.693   1.806   0.257  0.00  0.00    +0.001 A 
ATOM     27  C   UNL     1      -2.543   1.081   0.202  0.00  0.00    +0.008 A 
ATOM     28  C   UNL     1      -1.308   1.742   0.090  0.00  0.00    -0.018 A 
ATOM     29  C   UNL     1      -1.280   3.158   0.043  0.00  0.00    -0.013 A 
ATOM     30  C   UNL     1      -0.046   3.820  -0.074  0.00  0.00    +0.009 A 
ATOM     31  C   UNL     1       1.104   3.094  -0.135  0.00  0.00    +0.001 A 
ATOM     32  C   UNL     1       1.077   1.701  -0.083  0.00  0.00    +0.001 A 
ATOM     33  C   UNL     1      -0.100   1.027   0.030  0.00  0.00    +0.008 A 
ENDBRANCH  23  24
ENDBRANCH  18  23
ENDBRANCH   1  19
TORSDOF 5
