REMARK  Name = ZINC05741675
REMARK  8 active torsions:
REMARK  status: ('A' for Active; 'I' for Inactive)
REMARK    1  A    between atoms: C_1  and  N_2
REMARK    2  A    between atoms: N_2  and  C_3
REMARK    3  A    between atoms: N_2  and  C_4
REMARK    4  A    between atoms: C_7  and  C_10
REMARK    5  A    between atoms: N_12  and  N_17
REMARK    6  A    between atoms: N_17  and  S_18
REMARK    7  A    between atoms: S_18  and  C_21
REMARK    8  A    between atoms: C_25  and  C_27
REMARK                            x       y       z     vdW  Elec       q    Type
REMARK                         _______ _______ _______ _____ _____    ______ ____
ROOT
ATOM      1  C   UNL     1      -1.067   4.479  -3.176  0.00  0.00    +0.183 C 
ATOM      2  N   UNL     1      -1.165   5.720  -2.386  0.00  0.00    -0.200 N 
ATOM      3  C   UNL     1      -2.258   6.466  -2.485  0.00  0.00    +0.242 C 
ATOM      4  O   UNL     1      -2.377   7.494  -1.852  0.00  0.00    -0.273 OA
ATOM      5  C   UNL     1      -3.356   5.987  -3.422  0.00  0.00    +0.168 C 
ATOM      6  S   UNL     1      -2.439   4.707  -4.385  0.00  0.00    -0.123 S 
ENDROOT
BRANCH   1  10
ATOM      7  C   UNL     1       2.708   4.219  -5.165  0.00  0.00    +0.029 A 
ATOM      8  C   UNL     1       2.045   3.062  -4.776  0.00  0.00    +0.023 A 
ATOM      9  C   UNL     1       0.825   3.150  -4.133  0.00  0.00    +0.008 A 
ATOM     10  C   UNL     1       0.264   4.387  -3.877  0.00  0.00    -0.016 A 
ATOM     11  C   UNL     1       0.918   5.541  -4.268  0.00  0.00    +0.008 A 
ATOM     12  C   UNL     1       2.141   5.461  -4.906  0.00  0.00    +0.023 A 
BRANCH   7  14
ATOM     13  C   UNL     1       4.537   2.824  -6.087  0.00  0.00    +0.129 C 
ATOM     14  N   UNL     1       3.941   4.135  -5.815  0.00  0.00    -0.336 N 
ATOM     15  C   UNL     1       4.638   5.356  -6.224  0.00  0.00    +0.129 C 
ENDBRANCH   7  14
ENDBRANCH   1  10
BRANCH   2  16
ATOM     16  N   UNL     1      -0.115   6.110  -1.545  0.00  0.00    -0.104 NA
ATOM     17  H   UNL     1       0.597   6.672  -1.888  0.00  0.00    +0.172 HD
BRANCH  16  18
ATOM     18  S   UNL     1      -0.090   5.612   0.034  0.00  0.00    +0.074 S 
ATOM     19  O   UNL     1      -1.338   5.988   0.599  0.00  0.00    -0.152 OA
ATOM     20  O   UNL     1       1.152   6.041   0.576  0.00  0.00    -0.152 OA
BRANCH  18  21
ATOM     21  C   UNL     1      -0.052   3.850   0.023  0.00  0.00    +0.108 A 
ATOM     22  C   UNL     1      -1.236   3.134   0.031  0.00  0.00    +0.028 A 
ATOM     23  C   UNL     1      -1.216   1.751   0.017  0.00  0.00    +0.003 A 
ATOM     24  C   UNL     1      -0.013   1.076   0.008  0.00  0.00    +0.015 A 
ATOM     25  C   UNL     1       1.186   1.792   0.000  0.00  0.00    +0.065 A 
ATOM     26  C   UNL     1       1.158   3.188   0.008  0.00  0.00    +0.043 A 
BRANCH  25  27
ATOM     27  C   UNL     1       2.478   1.076  -0.015  0.00  0.00    +0.387 C 
ATOM     28  O   UNL     1       3.519   1.702  -0.022  0.00  0.00    -0.241 OA
ATOM     29  O   UNL     1       2.502  -0.271  -0.022  0.00  0.00    -0.241 OA
ENDBRANCH  25  27
ENDBRANCH  18  21
ENDBRANCH  16  18
ENDBRANCH   2  16
TORSDOF 6
