REMARK  Name = ZINC09497900
REMARK  3 active torsions:
REMARK  status: ('A' for Active; 'I' for Inactive)
REMARK    1  A    between atoms: C_6  and  C_7
REMARK    2  A    between atoms: C_13  and  C_15
REMARK    3  A    between atoms: C_15  and  N_16
REMARK                            x       y       z     vdW  Elec       q    Type
REMARK                         _______ _______ _______ _____ _____    ______ ____
ROOT
ATOM      1  C   UNL     1      -1.175   1.681   0.017  0.00  0.00    -0.041 C 
ATOM      2  C   UNL     1      -0.013   1.076   0.008  0.00  0.00    -0.004 C 
ATOM      3  C   UNL     1       1.302   1.806  -0.001  0.00  0.00    +0.135 C 
ATOM      4  N   UNL     1       1.059   3.233  -0.257  0.00  0.00    -0.296 N 
ATOM      5  C   UNL     1      -0.065   3.866   0.454  0.00  0.00    +0.113 C 
ATOM      6  C   UNL     1      -1.355   3.170   0.013  0.00  0.00    +0.054 C 
ATOM      7  C   UNL     1       1.833   3.934  -1.109  0.00  0.00    +0.234 C 
ATOM      8  O   UNL     1       1.611   5.110  -1.302  0.00  0.00    -0.274 OA
ENDROOT
BRANCH   1  14
ATOM      9  C   UNL     1      -3.272   0.858  -1.045  0.00  0.00    +0.011 A 
ATOM     10  C   UNL     1      -4.402   0.067  -1.023  0.00  0.00    +0.039 A 
ATOM     11  C   UNL     1      -4.668  -0.736   0.075  0.00  0.00    +0.123 A 
ATOM     12  C   UNL     1      -3.799  -0.752   1.154  0.00  0.00    +0.039 A 
ATOM     13  C   UNL     1      -2.663   0.030   1.140  0.00  0.00    +0.011 A 
ATOM     14  C   UNL     1      -2.391   0.840   0.037  0.00  0.00    -0.022 A 
ATOM     15  F   UNL     1      -5.779  -1.505   0.093  0.00  0.00    -0.205 F 
ENDBRANCH   1  14
BRANCH   7  16
ATOM     16  C   UNL     1       2.975   3.256  -1.821  0.00  0.00    +0.213 C 
BRANCH  16  17
ATOM     17  N   UNL     1       3.658   4.224  -2.682  0.00  0.00    -0.215 N 
ATOM     18  C   UNL     1       4.695   4.994  -2.287  0.00  0.00    +0.247 C 
ATOM     19  O   UNL     1       5.220   5.016  -1.195  0.00  0.00    -0.273 OA
ATOM     20  C   UNL     1       5.060   5.819  -3.494  0.00  0.00    +0.113 C 
ATOM     21  C   UNL     1       6.508   5.554  -3.926  0.00  0.00    +0.035 C 
ATOM     22  C   UNL     1       7.004   6.931  -4.440  0.00  0.00    +0.003 C 
ATOM     23  C   UNL     1       6.330   7.927  -3.463  0.00  0.00    +0.003 C 
ATOM     24  C   UNL     1       4.934   7.316  -3.203  0.00  0.00    +0.035 C 
ATOM     25  N   UNL     1       4.114   5.395  -4.529  0.00  0.00    -0.285 N 
ATOM     26  C   UNL     1       3.334   4.452  -3.962  0.00  0.00    +0.310 C 
ATOM     27  O   UNL     1       2.437   3.877  -4.545  0.00  0.00    -0.252 OA
ATOM     28  H   UNL     1       4.062   5.723  -5.440  0.00  0.00    +0.151 HD
ENDBRANCH  16  17
ENDBRANCH   7  16
TORSDOF 3
