REMARK  Name = ZINC08163476
REMARK  7 active torsions:
REMARK  status: ('A' for Active; 'I' for Inactive)
REMARK    1  A    between atoms: C_1  and  O_2
REMARK    2  A    between atoms: O_2  and  C_3
REMARK    3  A    between atoms: C_3  and  C_5
REMARK    4  A    between atoms: C_8  and  C_11
REMARK    5  A    between atoms: N_12  and  N_13
REMARK    6  A    between atoms: C_14  and  C_16
REMARK    7  A    between atoms: C_21  and  O_22
REMARK                            x       y       z     vdW  Elec       q    Type
REMARK                         _______ _______ _______ _____ _____    ______ ____
ROOT
ATOM      1  N   UNL     1       1.462  -8.277  -2.418  0.00  0.00    -0.203 N 
ATOM      2  C   UNL     1       2.065  -8.875  -3.464  0.00  0.00    +0.267 C 
ATOM      3  O   UNL     1       2.561  -8.201  -4.347  0.00  0.00    -0.268 OA
ATOM      4  H   UNL     1       1.066  -8.815  -1.714  0.00  0.00    +0.178 HD
ENDROOT
BRANCH   2   5
ATOM      5  C   UNL     1       2.123 -10.347  -3.539  0.00  0.00    +0.081 A 
ATOM      6  C   UNL     1       1.549 -11.125  -2.531  0.00  0.00    +0.036 A 
ATOM      7  C   UNL     1       1.608 -12.501  -2.607  0.00  0.00    +0.042 A 
ATOM      8  C   UNL     1       2.234 -13.115  -3.681  0.00  0.00    +0.023 A 
ATOM      9  C   UNL     1       2.804 -12.357  -4.684  0.00  0.00    +0.047 A 
ATOM     10  C   UNL     1       2.750 -10.973  -4.626  0.00  0.00    +0.129 A 
ATOM     11 CL   UNL     1       0.894 -13.467  -1.353  0.00  0.00    -0.084 Cl
BRANCH  10  12
ATOM     12  O   UNL     1       3.305 -10.227  -5.614  0.00  0.00    -0.506 OA
ATOM     13  H   UNL     1       4.234 -10.003  -5.463  0.00  0.00    +0.292 HD
ENDBRANCH  10  12
ENDBRANCH   2   5
BRANCH   1  15
ATOM     14  C   UNL     1       0.825  -6.303  -1.338  0.00  0.00    +0.138 C 
ATOM     15  N   UNL     1       1.406  -6.879  -2.347  0.00  0.00    -0.187 NA
BRANCH  14  19
ATOM     16  C   UNL     1       0.659  -2.074  -1.122  0.00  0.00    +0.059 A 
ATOM     17  C   UNL     1       0.087  -2.849  -0.108  0.00  0.00    +0.015 A 
ATOM     18  C   UNL     1       0.141  -4.212  -0.177  0.00  0.00    +0.010 A 
ATOM     19  C   UNL     1       0.767  -4.833  -1.264  0.00  0.00    -0.005 A 
ATOM     20  C   UNL     1       1.338  -4.058  -2.278  0.00  0.00    +0.010 A 
ATOM     21  C   UNL     1       1.280  -2.695  -2.211  0.00  0.00    +0.015 A 
BRANCH  16  22
ATOM     22  C   UNL     1       0.601  -0.602  -1.047  0.00  0.00    +0.339 C 
ATOM     23  O   UNL     1       1.093   0.071  -1.930  0.00  0.00    -0.245 OA
BRANCH  22  25
ATOM     24  C   UNL     1      -0.017   1.425   0.010  0.00  0.00    +0.280 C 
ATOM     25  O   UNL     1       0.002  -0.004   0.002  0.00  0.00    -0.464 OA
ENDBRANCH  22  25
ENDBRANCH  16  22
ENDBRANCH  14  19
ENDBRANCH   1  15
TORSDOF 6
