REMARK  Name = ZINC58159094
REMARK  4 active torsions:
REMARK  status: ('A' for Active; 'I' for Inactive)
REMARK    1  A    between atoms: C_3  and  C_6
REMARK    2  A    between atoms: C_8  and  N_12
REMARK    3  A    between atoms: C_13  and  C_15
REMARK    4  A    between atoms: C_18  and  N_22
REMARK                            x       y       z     vdW  Elec       q    Type
REMARK                         _______ _______ _______ _____ _____    ______ ____
ROOT
ATOM      1  N   UNL     1       7.315   1.474  -0.068  0.00  0.00    -0.267 N 
ATOM      2  C   UNL     1       7.639   0.166  -0.084  0.00  0.00    +0.251 C 
ATOM      3  O   UNL     1       6.763  -0.677  -0.082  0.00  0.00    -0.270 OA
ATOM      4  H   UNL     1       8.014   2.147  -0.070  0.00  0.00    +0.157 HD
ENDROOT
BRANCH   2   5
ATOM      5  C   UNL     1       9.058  -0.244  -0.104  0.00  0.00    +0.055 A 
ATOM      6  C   UNL     1      10.067   0.722  -0.101  0.00  0.00    +0.017 A 
ATOM      7  C   UNL     1      11.390   0.333  -0.119  0.00  0.00    +0.033 A 
ATOM      8  C   UNL     1      11.720  -1.012  -0.141  0.00  0.00    +0.128 A 
ATOM      9  C   UNL     1      10.727  -1.974  -0.144  0.00  0.00    +0.053 A 
ATOM     10  C   UNL     1       9.397  -1.599  -0.120  0.00  0.00    +0.055 A 
ATOM     11 CL   UNL     1       8.152  -2.808  -0.118  0.00  0.00    -0.083 Cl
BRANCH   8  12
ATOM     12  N   UNL     1      13.142  -1.421  -0.161  0.00  0.00    +0.056 N 
ATOM     13  O   UNL     1      14.012  -0.582  -0.159  0.00  0.00    -0.126 OA
ATOM     14  O   UNL     1      13.433  -2.594  -0.180  0.00  0.00    -0.126 OA
ENDBRANCH   8  12
ENDBRANCH   2   5
BRANCH   1  17
ATOM     15  C   UNL     1       3.740   1.825  -0.024  0.00  0.00    +0.101 A 
ATOM     16  C   UNL     1       4.902   1.028  -0.045  0.00  0.00    +0.074 A 
ATOM     17  C   UNL     1       5.976   1.861  -0.049  0.00  0.00    +0.121 A 
ATOM     18  N   UNL     1       5.511   3.138  -0.032  0.00  0.00    -0.263 N 
ATOM     19  H   UNL     1       6.053   3.942  -0.030  0.00  0.00    +0.190 HD
ATOM     20  N   UNL     1       4.111   3.090  -0.021  0.00  0.00    -0.172 NA
BRANCH  15  23
ATOM     21  C   UNL     1      -0.016   1.353   0.009  0.00  0.00    +0.008 A 
ATOM     22  C   UNL     1       1.178   2.041   0.002  0.00  0.00    +0.018 A 
ATOM     23  C   UNL     1       2.347   1.329  -0.013  0.00  0.00    +0.039 A 
ATOM     24  S   UNL     1       1.752  -0.354  -0.017  0.00  0.00    -0.095 S 
ATOM     25  C   UNL     1       0.002  -0.004   0.002  0.00  0.00    +0.046 A 
ENDBRANCH  15  23
ENDBRANCH   1  17
TORSDOF 4
