REMARK  Name = ZINC21005578
REMARK  7 active torsions:
REMARK  status: ('A' for Active; 'I' for Inactive)
REMARK    1  A    between atoms: C_1  and  C_2
REMARK    2  A    between atoms: C_2  and  O_3
REMARK    3  A    between atoms: O_3  and  C_4
REMARK    4  A    between atoms: C_4  and  C_6
REMARK    5  A    between atoms: C_7  and  C_30
REMARK    6  A    between atoms: C_18  and  C_20
REMARK    7  A    between atoms: C_22  and  N_27
REMARK                            x       y       z     vdW  Elec       q    Type
REMARK                         _______ _______ _______ _____ _____    ______ ____
ROOT
ATOM      1  C   UNL     1       2.050  -2.541   2.171  0.00  0.00    +0.085 C 
ATOM      2  C   UNL     1       1.476  -3.696   2.588  0.00  0.00    +0.053 C 
ATOM      3  N   UNL     1       1.528  -4.105   3.906  0.00  0.00    -0.284 N 
ATOM      4  C   UNL     1       2.414  -3.450   4.747  0.00  0.00    +0.202 A 
ATOM      5  N   UNL     1       2.808  -3.801   5.941  0.00  0.00    -0.214 NA
ATOM      6  C   UNL     1       3.682  -2.889   6.411  0.00  0.00    +0.091 A 
ATOM      7  C   UNL     1       4.384  -2.804   7.618  0.00  0.00    +0.030 A 
ATOM      8  C   UNL     1       5.218  -1.713   7.784  0.00  0.00    +0.002 A 
ATOM      9  C   UNL     1       5.359  -0.742   6.807  0.00  0.00    +0.002 A 
ATOM     10  C   UNL     1       4.674  -0.806   5.604  0.00  0.00    +0.028 A 
ATOM     11  C   UNL     1       3.830  -1.893   5.413  0.00  0.00    +0.071 A 
ATOM     12  N   UNL     1       3.019  -2.268   4.380  0.00  0.00    -0.300 N 
ATOM     13  C   UNL     1       2.781  -1.608   3.097  0.00  0.00    +0.161 C 
ATOM     14  H   UNL     1       0.964  -4.824   4.232  0.00  0.00    +0.155 HD
ENDROOT
BRANCH  13  15
ATOM     15  C   UNL     1       1.949  -0.372   3.323  0.00  0.00    +0.001 A 
ATOM     16  C   UNL     1       0.692  -0.479   3.887  0.00  0.00    +0.040 A 
ATOM     17  C   UNL     1      -0.072   0.655   4.093  0.00  0.00    +0.127 A 
ATOM     18  C   UNL     1       0.421   1.896   3.736  0.00  0.00    +0.034 A 
ATOM     19  C   UNL     1       1.678   2.004   3.172  0.00  0.00    +0.022 A 
ATOM     20  C   UNL     1       2.446   0.870   2.970  0.00  0.00    +0.047 A 
ATOM     21 CL   UNL     1       4.028   1.006   2.269  0.00  0.00    -0.083 Cl
BRANCH  17  22
ATOM     22  N   UNL     1      -1.419   0.540   4.697  0.00  0.00    +0.056 N 
ATOM     23  O   UNL     1      -1.850  -0.545   5.009  0.00  0.00    -0.126 OA
ATOM     24  O   UNL     1      -2.087   1.531   4.878  0.00  0.00    -0.126 OA
ENDBRANCH  17  22
ENDBRANCH  13  15
BRANCH   2  25
ATOM     25  C   UNL     1       0.774  -4.543   1.603  0.00  0.00    -0.003 A 
ATOM     26  C   UNL     1       1.283  -5.800   1.268  0.00  0.00    +0.010 A 
ATOM     27  C   UNL     1       0.622  -6.585   0.347  0.00  0.00    +0.001 A 
ATOM     28  C   UNL     1      -0.544  -6.131  -0.245  0.00  0.00    +0.000 A 
ATOM     29  C   UNL     1      -1.054  -4.887   0.082  0.00  0.00    +0.001 A 
ATOM     30  C   UNL     1      -0.406  -4.094   1.006  0.00  0.00    +0.010 A 
ENDBRANCH   2  25
BRANCH   1  31
ATOM     31  C   UNL     1       1.964  -2.202   0.808  0.00  0.00    +0.339 C 
ATOM     32  O   UNL     1       1.491  -2.994   0.013  0.00  0.00    -0.245 OA
BRANCH  31  33
ATOM     33  O   UNL     1       2.404  -0.999   0.382  0.00  0.00    -0.462 OA
BRANCH  33  35
ATOM     34  C   UNL     1       2.833   0.678  -1.305  0.00  0.00    +0.048 C 
ATOM     35  C   UNL     1       2.286  -0.721  -1.014  0.00  0.00    +0.229 C 
ENDBRANCH  33  35
ENDBRANCH  31  33
ENDBRANCH   1  31
TORSDOF 6
