REMARK  Name = ZINC34830414
REMARK  9 active torsions:
REMARK  status: ('A' for Active; 'I' for Inactive)
REMARK    1  A    between atoms: C_1  and  C_2
REMARK    2  A    between atoms: C_2  and  C_3
REMARK    3  A    between atoms: C_3  and  C_5
REMARK    4  A    between atoms: C_3  and  C_11
REMARK    5  A    between atoms: C_20  and  C_22
REMARK    6  A    between atoms: C_22  and  C_24
REMARK    7  A    between atoms: C_22  and  N_25
REMARK    8  A    between atoms: C_33  and  C_35
REMARK    9  A    between atoms: C_40  and  C_41
REMARK                            x       y       z     vdW  Elec       q    Type
REMARK                         _______ _______ _______ _____ _____    ______ ____
ROOT
ATOM      1  C   UNL     1       1.127  -4.666  -3.163  0.00  0.00    +0.223 C 
ATOM      2  O   UNL     1       1.768  -5.684  -3.319  0.00  0.00    -0.275 OA
ATOM      3  N   UNL     1      -0.181  -4.736  -2.844  0.00  0.00    -0.299 N 
ATOM      4  C   UNL     1      -0.815  -5.979  -2.580  0.00  0.00    +0.109 C 
ATOM      5  C   UNL     1      -1.303  -6.745  -3.853  0.00  0.00    +0.038 C 
ATOM      6  C   UNL     1      -1.849  -5.678  -4.856  0.00  0.00    +0.109 C 
ATOM      7  N   UNL     1      -2.558  -4.605  -4.251  0.00  0.00    -0.301 N 
ATOM      8  C   UNL     1      -1.795  -3.359  -3.980  0.00  0.00    +0.126 C 
ATOM      9  C   UNL     1      -1.021  -3.514  -2.747  0.00  0.00    +0.126 C 
ATOM     10  C   UNL     1      -3.865  -4.712  -3.938  0.00  0.00    +0.202 C 
ATOM     11  O   UNL     1      -4.481  -5.712  -4.242  0.00  0.00    -0.277 OA
ENDROOT
BRANCH  10  12
ATOM     12  C   UNL     1      -4.560  -3.590  -3.211  0.00  0.00    +0.018 C 
ATOM     13  C   UNL     1      -4.910  -2.479  -4.202  0.00  0.00    -0.004 C 
BRANCH  12  14
ATOM     14  N   UNL     1      -5.790  -4.098  -2.589  0.00  0.00    +0.395 N 
ATOM     15  C   UNL     1      -6.667  -4.647  -3.632  0.00  0.00    -0.071 C 
ATOM     16  C   UNL     1      -8.069  -4.869  -3.038  0.00  0.00    +0.024 C 
ATOM     17  C   UNL     1      -7.897  -5.569  -1.730  0.00  0.00    -0.010 A 
ATOM     18  C   UNL     1      -6.732  -5.720  -1.039  0.00  0.00    -0.047 A 
ATOM     19  C   UNL     1      -6.808  -6.418   0.164  0.00  0.00    +0.010 A 
ATOM     20  C   UNL     1      -7.997  -6.904   0.590  0.00  0.00    +0.045 A 
ATOM     21  S   UNL     1      -9.098  -6.386  -0.718  0.00  0.00    -0.101 S 
ATOM     22  C   UNL     1      -5.444  -5.128  -1.603  0.00  0.00    -0.005 C 
ATOM     23  H   UNL     1      -6.264  -3.339  -2.123  0.00  0.00    -0.079 HD
BRANCH  22  24
ATOM     24  C   UNL     1      -4.641  -4.510  -0.488  0.00  0.00    -0.054 A 
ATOM     25  C   UNL     1      -4.824  -3.180  -0.159  0.00  0.00    +0.002 A 
ATOM     26  C   UNL     1      -4.087  -2.613   0.864  0.00  0.00    +0.000 A 
ATOM     27  C   UNL     1      -3.167  -3.377   1.559  0.00  0.00    +0.000 A 
ATOM     28  C   UNL     1      -2.985  -4.707   1.230  0.00  0.00    +0.003 A 
ATOM     29  C   UNL     1      -3.725  -5.275   0.210  0.00  0.00    -0.049 A 
ATOM     30  C   UNL     1      -3.530  -6.727  -0.144  0.00  0.00    +0.044 C 
ENDBRANCH  22  24
ENDBRANCH  12  14
ENDBRANCH  10  12
BRANCH   1  31
ATOM     31  C   UNL     1       1.793  -3.324  -3.326  0.00  0.00    +0.105 C 
BRANCH  31  32
ATOM     32  C   UNL     1       2.908  -3.436  -4.334  0.00  0.00    -0.036 A 
ATOM     33  C   UNL     1       3.956  -4.309  -4.110  0.00  0.00    +0.004 A 
ATOM     34  C   UNL     1       4.979  -4.411  -5.034  0.00  0.00    +0.000 A 
ATOM     35  C   UNL     1       4.954  -3.641  -6.182  0.00  0.00    +0.000 A 
ATOM     36  C   UNL     1       3.905  -2.769  -6.406  0.00  0.00    +0.000 A 
ATOM     37  C   UNL     1       2.880  -2.669  -5.484  0.00  0.00    +0.004 A 
ENDBRANCH  31  32
BRANCH  31  39
ATOM     38  C   UNL     1       2.922  -1.453  -2.116  0.00  0.00    +0.005 C 
ATOM     39  C   UNL     1       2.364  -2.871  -1.981  0.00  0.00    +0.014 C 
ENDBRANCH  31  39
ENDBRANCH   1  31
TORSDOF 6
