REMARK  Name = ZINC45821471
REMARK  12 active torsions:
REMARK  status: ('A' for Active; 'I' for Inactive)
REMARK    1  A    between atoms: C_1  and  C_2
REMARK    2  A    between atoms: C_2  and  C_3
REMARK    3  A    between atoms: C_3  and  C_4
REMARK    4  A    between atoms: C_3  and  C_5
REMARK    5  A    between atoms: C_3  and  N_6
REMARK    6  A    between atoms: C_7  and  C_9
REMARK    7  A    between atoms: C_9  and  C_11
REMARK    8  A    between atoms: C_9  and  S_12
REMARK    9  A    between atoms: S_12  and  C_13
REMARK   10  A    between atoms: C_13  and  C_14
REMARK   11  A    between atoms: C_16  and  C_19
REMARK   12  A    between atoms: C_22  and  C_25
REMARK                            x       y       z     vdW  Elec       q    Type
REMARK                         _______ _______ _______ _____ _____    ______ ____
ROOT
ATOM      1  C   UNL     1      -3.856  -6.613  -0.786  0.00  0.00    +0.168 C 
ENDROOT
BRANCH   1   2
ATOM      2  C   UNL     1      -5.086  -7.261  -1.367  0.00  0.00    +0.238 A 
ATOM      3  N   UNL     1      -5.299  -7.496  -2.631  0.00  0.00    -0.191 NA
ATOM      4  C   UNL     1      -6.496  -8.085  -2.795  0.00  0.00    +0.202 A 
ATOM      5  N   UNL     1      -7.057  -8.229  -1.619  0.00  0.00    -0.056 NA
ATOM      6  O   UNL     1      -6.143  -7.699  -0.670  0.00  0.00    -0.337 OA
BRANCH   4   7
ATOM      7  C   UNL     1      -7.085  -8.503  -4.091  0.00  0.00    +0.022 A 
ATOM      8  C   UNL     1      -6.383  -8.297  -5.277  0.00  0.00    +0.012 A 
ATOM      9  C   UNL     1      -6.936  -8.687  -6.480  0.00  0.00    +0.004 A 
ATOM     10  C   UNL     1      -8.185  -9.281  -6.510  0.00  0.00    -0.050 A 
ATOM     11  C   UNL     1      -8.886  -9.487  -5.336  0.00  0.00    +0.004 A 
ATOM     12  C   UNL     1      -8.341  -9.107  -4.127  0.00  0.00    +0.012 A 
ATOM     13  C   UNL     1      -8.783  -9.704  -7.827  0.00  0.00    +0.044 C 
ENDBRANCH   4   7
ENDBRANCH   1   2
BRANCH   1  14
ATOM     14  S   UNL     1      -4.099  -4.817  -0.708  0.00  0.00    -0.139 S 
BRANCH  14  15
ATOM     15  C   UNL     1      -2.551  -4.195   0.004  0.00  0.00    +0.129 C 
ATOM     16  C   UNL     1      -2.405  -4.711   1.437  0.00  0.00    +0.029 C 
BRANCH  15  18
ATOM     17  N   UNL     1      -1.413  -1.998   0.005  0.00  0.00    -0.309 N 
ATOM     18  C   UNL     1      -2.571  -2.688   0.012  0.00  0.00    +0.226 C 
ATOM     19  O   UNL     1      -3.630  -2.096   0.025  0.00  0.00    -0.275 OA
ATOM     20  H   UNL     1      -0.567  -2.472  -0.006  0.00  0.00    +0.149 HD
BRANCH  17  21
ATOM     21  C   UNL     1      -1.433  -0.534   0.013  0.00  0.00    +0.029 C 
ATOM     22  C   UNL     1      -2.149  -0.040   1.272  0.00  0.00    +0.031 C 
ATOM     23  C   UNL     1      -2.173  -0.027  -1.227  0.00  0.00    +0.031 C 
BRANCH  21  25
ATOM     24  C   UNL     1      -0.019   1.526   0.010  0.00  0.00    +0.006 C 
ATOM     25  C   UNL     1       0.002  -0.004   0.002  0.00  0.00    +0.022 C 
ENDBRANCH  21  25
ENDBRANCH  17  21
ENDBRANCH  15  18
ENDBRANCH  14  15
ENDBRANCH   1  14
TORSDOF 7
