REMARK  Name = ZINC44966203
REMARK  5 active torsions:
REMARK  status: ('A' for Active; 'I' for Inactive)
REMARK    1  A    between atoms: C_1  and  C_2
REMARK    2  A    between atoms: C_2  and  C_4
REMARK    3  A    between atoms: C_2  and  S_19
REMARK    4  A    between atoms: N_6  and  C_7
REMARK    5  A    between atoms: S_19  and  C_20
REMARK                            x       y       z     vdW  Elec       q    Type
REMARK                         _______ _______ _______ _____ _____    ______ ____
ROOT
ATOM      1  C   UNL     1      -1.278  -0.697  -2.286  0.00  0.00    +0.230 C 
ATOM      2  O   UNL     1      -1.907  -1.247  -3.165  0.00  0.00    -0.274 OA
ATOM      3  N   UNL     1       0.053  -0.526  -2.415  0.00  0.00    -0.283 N 
ATOM      4  H   UNL     1       0.545  -0.027  -1.745  0.00  0.00    +0.155 HD
ENDROOT
BRANCH   3   5
ATOM      5  C   UNL     1       0.726  -1.070  -3.518  0.00  0.00    +0.052 A 
ATOM      6  C   UNL     1       0.107  -1.122  -4.767  0.00  0.00    +0.028 A 
ATOM      7  C   UNL     1       0.807  -1.667  -5.827  0.00  0.00    +0.045 A 
ATOM      8  C   UNL     1       2.098  -2.142  -5.614  0.00  0.00    +0.121 A 
ATOM      9  N   UNL     1       2.654  -2.076  -4.415  0.00  0.00    -0.238 NA
ATOM     10  C   UNL     1       2.016  -1.557  -3.383  0.00  0.00    +0.136 A 
ATOM     11  N   UNL     1       2.812  -2.692  -6.675  0.00  0.00    -0.315 N 
ATOM     12  C   UNL     1       4.076  -3.402  -6.438  0.00  0.00    +0.106 C 
ATOM     13  C   UNL     1       3.989  -4.791  -7.077  0.00  0.00    +0.019 C 
ATOM     14  C   UNL     1       3.617  -4.646  -8.554  0.00  0.00    +0.003 C 
ATOM     15  C   UNL     1       2.248  -3.973  -8.674  0.00  0.00    +0.019 C 
ATOM     16  C   UNL     1       2.312  -2.580  -8.052  0.00  0.00    +0.106 C 
ENDBRANCH   3   5
BRANCH   1  18
ATOM     17  C   UNL     1      -1.784  -1.208   0.087  0.00  0.00    +0.029 C 
ATOM     18  C   UNL     1      -1.984  -0.204  -1.050  0.00  0.00    +0.136 C 
BRANCH  18  19
ATOM     19  S   UNL     1      -3.756  -0.028  -1.395  0.00  0.00    -0.085 S 
BRANCH  19  20
ATOM     20  C   UNL     1      -4.409   0.687   0.077  0.00  0.00    +0.159 A 
ATOM     21  N   UNL     1      -3.796   1.040   1.200  0.00  0.00    -0.135 NA
ATOM     22  N   UNL     1      -4.424   1.545   2.170  0.00  0.00    -0.149 NA
ATOM     23  C   UNL     1      -5.724   1.754   2.132  0.00  0.00    +0.182 A 
ATOM     24  S   UNL     1      -6.089   1.153   0.485  0.00  0.00    -0.048 S 
ENDBRANCH  19  20
ENDBRANCH  18  19
ENDBRANCH   1  18
TORSDOF 4
