REMARK  Name = ZINC39678251
REMARK  5 active torsions:
REMARK  status: ('A' for Active; 'I' for Inactive)
REMARK    1  A    between atoms: C_4  and  N_32
REMARK    2  A    between atoms: C_5  and  C_7
REMARK    3  A    between atoms: C_7  and  N_8
REMARK    4  A    between atoms: C_9  and  C_11
REMARK    5  A    between atoms: C_22  and  C_24
REMARK                            x       y       z     vdW  Elec       q    Type
REMARK                         _______ _______ _______ _____ _____    ______ ____
ROOT
ATOM      1  C   UNL     1       1.812  -4.511   2.955  0.00  0.00    +0.100 C 
ATOM      2  C   UNL     1       0.740  -3.987   3.937  0.00  0.00    +0.121 C 
ATOM      3  N   UNL     1      -0.268  -5.071   4.004  0.00  0.00    -0.296 N 
ATOM      4  C   UNL     1       0.532  -6.320   3.997  0.00  0.00    +0.115 C 
ATOM      5  C   UNL     1       1.675  -6.042   3.000  0.00  0.00    -0.004 C 
ATOM      6  C   UNL     1       2.972  -6.675   3.494  0.00  0.00    -0.010 C 
ATOM      7  C   UNL     1       2.831  -8.200   3.474  0.00  0.00    -0.082 C 
ATOM      8  N   UNL     1       2.533  -8.648   2.108  0.00  0.00    +0.379 N 
ATOM      9  C   UNL     1       1.238  -8.109   1.675  0.00  0.00    -0.082 C 
ATOM     10  C   UNL     1       1.312  -6.580   1.619  0.00  0.00    -0.010 C 
ATOM     11  C   UNL     1      -1.609  -4.950   4.059  0.00  0.00    +0.249 C 
ATOM     12  O   UNL     1      -2.124  -3.853   3.965  0.00  0.00    -0.270 OA
ATOM     13  H   UNL     1       3.256  -8.323   1.484  0.00  0.00    -0.086 HD
ATOM     14  H   UNL     1       2.501  -9.656   2.086  0.00  0.00    -0.086 HD
ENDROOT
BRANCH  11  15
ATOM     15  C   UNL     1      -2.452  -6.148   4.233  0.00  0.00    +0.072 A 
ATOM     16  C   UNL     1      -2.008  -7.208   5.028  0.00  0.00    +0.019 A 
ATOM     17  C   UNL     1      -2.799  -8.325   5.188  0.00  0.00    +0.039 A 
ATOM     18  C   UNL     1      -4.035  -8.400   4.561  0.00  0.00    +0.126 A 
ATOM     19  C   UNL     1      -4.482  -7.354   3.772  0.00  0.00    +0.077 A 
ATOM     20  C   UNL     1      -3.701  -6.226   3.608  0.00  0.00    +0.138 A 
ATOM     21  F   UNL     1      -4.140  -5.203   2.843  0.00  0.00    -0.205 F 
ATOM     22  F   UNL     1      -4.805  -9.498   4.722  0.00  0.00    -0.205 F 
ENDBRANCH  11  15
BRANCH   1  24
ATOM     23  N   UNL     1       2.557  -3.535   0.808  0.00  0.00    -0.311 N 
ATOM     24  C   UNL     1       1.543  -4.000   1.563  0.00  0.00    +0.218 C 
ATOM     25  O   UNL     1       0.413  -4.008   1.123  0.00  0.00    -0.275 OA
ATOM     26  H   UNL     1       3.461  -3.528   1.160  0.00  0.00    +0.149 HD
BRANCH  23  27
ATOM     27  C   UNL     1       2.295  -3.038  -0.545  0.00  0.00    +0.141 C 
BRANCH  27  32
ATOM     28  C   UNL     1       5.087  -0.813  -1.775  0.00  0.00    +0.000 A 
ATOM     29  C   UNL     1       5.960  -1.735  -2.321  0.00  0.00    +0.002 A 
ATOM     30  C   UNL     1       5.652  -3.081  -2.295  0.00  0.00    +0.023 A 
ATOM     31  C   UNL     1       4.462  -3.508  -1.719  0.00  0.00    +0.034 A 
ATOM     32  C   UNL     1       3.587  -2.579  -1.171  0.00  0.00    -0.009 A 
ATOM     33  C   UNL     1       3.902  -1.235  -1.200  0.00  0.00    +0.007 A 
BRANCH  31  34
ATOM     34  N   UNL     1       4.147  -4.869  -1.691  0.00  0.00    -0.330 N 
ATOM     35  C   UNL     1       3.402  -5.487  -2.796  0.00  0.00    +0.105 C 
ATOM     36  C   UNL     1       4.190  -6.698  -3.305  0.00  0.00    +0.019 C 
ATOM     37  C   UNL     1       4.478  -7.642  -2.136  0.00  0.00    +0.003 C 
ATOM     38  C   UNL     1       5.329  -6.917  -1.091  0.00  0.00    +0.019 C 
ATOM     39  C   UNL     1       4.559  -5.710  -0.559  0.00  0.00    +0.105 C 
ENDBRANCH  31  34
ENDBRANCH  27  32
ENDBRANCH  23  27
ENDBRANCH   1  24
TORSDOF 5
