REMARK  Name = ZINC64398453
REMARK  5 active torsions:
REMARK  status: ('A' for Active; 'I' for Inactive)
REMARK    1  A    between atoms: C_6  and  N_7
REMARK    2  A    between atoms: C_8  and  C_10
REMARK    3  A    between atoms: C_10  and  N_11
REMARK    4  A    between atoms: C_12  and  C_14
REMARK    5  A    between atoms: C_18  and  N_23
REMARK                            x       y       z     vdW  Elec       q    Type
REMARK                         _______ _______ _______ _____ _____    ______ ____
ROOT
ATOM      1  N   UNL     1      -2.195  -4.261  -0.311  0.00  0.00    -0.302 N 
ATOM      2  C   UNL     1      -3.208  -5.143  -0.417  0.00  0.00    +0.251 C 
ATOM      3  O   UNL     1      -4.359  -4.750  -0.422  0.00  0.00    -0.270 OA
ATOM      4  H   UNL     1      -1.277  -4.575  -0.307  0.00  0.00    +0.150 HD
ENDROOT
BRANCH   2   5
ATOM      5  C   UNL     1      -2.923  -6.581  -0.525  0.00  0.00    +0.075 A 
ATOM      6  C   UNL     1      -3.800  -7.613  -0.643  0.00  0.00    +0.029 A 
ATOM      7  C   UNL     1      -3.324  -8.933  -0.735  0.00  0.00    -0.008 A 
ATOM      8  C   UNL     1      -4.074 -10.131  -0.862  0.00  0.00    +0.041 A 
ATOM      9  C   UNL     1      -3.451 -11.335  -0.938  0.00  0.00    +0.127 A 
ATOM     10  C   UNL     1      -2.066 -11.444  -0.894  0.00  0.00    +0.034 A 
ATOM     11  C   UNL     1      -1.298 -10.304  -0.771  0.00  0.00    +0.018 A 
ATOM     12  C   UNL     1      -1.916  -9.073  -0.693  0.00  0.00    +0.020 A 
ATOM     13  S   UNL     1      -1.338  -7.402  -0.540  0.00  0.00    -0.084 S 
BRANCH   9  14
ATOM     14  N   UNL     1      -4.268 -12.562  -1.070  0.00  0.00    +0.056 N 
ATOM     15  O   UNL     1      -5.473 -12.485  -1.109  0.00  0.00    -0.126 OA
ATOM     16  O   UNL     1      -3.729 -13.642  -1.139  0.00  0.00    -0.126 OA
ENDBRANCH   9  14
ENDBRANCH   2   5
BRANCH   1  17
ATOM     17  C   UNL     1      -2.480  -2.828  -0.204  0.00  0.00    +0.200 C 
BRANCH  17  19
ATOM     18  N   UNL     1      -1.200  -0.722   0.010  0.00  0.00    -0.284 N 
ATOM     19  C   UNL     1      -1.184  -2.065  -0.099  0.00  0.00    +0.234 C 
ATOM     20  O   UNL     1      -0.127  -2.660  -0.113  0.00  0.00    -0.274 OA
ATOM     21  H   UNL     1      -2.045  -0.252   0.098  0.00  0.00    +0.155 HD
BRANCH  18  27
ATOM     22  C   UNL     1       1.071  -0.454  -0.766  0.00  0.00    +0.026 A 
ATOM     23  C   UNL     1       2.256   0.256  -0.779  0.00  0.00    +0.040 A 
ATOM     24  C   UNL     1       2.378   1.416  -0.032  0.00  0.00    +0.124 A 
ATOM     25  C   UNL     1       1.312   1.866   0.730  0.00  0.00    +0.040 A 
ATOM     26  C   UNL     1       0.126   1.159   0.745  0.00  0.00    +0.026 A 
ATOM     27  C   UNL     1       0.002  -0.004  -0.004  0.00  0.00    +0.034 A 
ATOM     28  F   UNL     1       3.538   2.108  -0.045  0.00  0.00    -0.205 F 
ENDBRANCH  18  27
ENDBRANCH  17  19
ENDBRANCH   1  17
TORSDOF 5
