REMARK  Name = ZINC17211346
REMARK  8 active torsions:
REMARK  status: ('A' for Active; 'I' for Inactive)
REMARK    1  A    between atoms: C_4  and  C_7
REMARK    2  A    between atoms: C_8  and  C_9
REMARK    3  A    between atoms: C_9  and  C_11
REMARK    4  A    between atoms: C_9  and  O_35
REMARK    5  A    between atoms: C_11  and  N_25
REMARK    6  A    between atoms: C_13  and  O_24
REMARK    7  A    between atoms: N_25  and  N_26
REMARK    8  A    between atoms: C_27  and  C_29
REMARK                            x       y       z     vdW  Elec       q    Type
REMARK                         _______ _______ _______ _____ _____    ______ ____
ROOT
ATOM      1  C   UNL     1       5.145  -3.621   1.161  0.00  0.00    +0.078 C 
ATOM      2  C   UNL     1       6.165  -3.408   2.062  0.00  0.00    +0.087 C 
ATOM      3  C   UNL     1       6.352  -4.336   3.240  0.00  0.00    +0.259 C 
ATOM      4  N   UNL     1       7.461  -4.055   4.167  0.00  0.00    -0.353 N 
ATOM      5  C   UNL     1       8.231  -3.011   3.921  0.00  0.00    +0.062 A 
ATOM      6  C   UNL     1       9.310  -2.700   4.782  0.00  0.00    +0.047 A 
ATOM      7  C   UNL     1      10.093  -1.623   4.516  0.00  0.00    +0.043 A 
ATOM      8  C   UNL     1       9.861  -0.806   3.403  0.00  0.00    +0.022 A 
ATOM      9  C   UNL     1       8.846  -1.046   2.538  0.00  0.00    +0.029 A 
ATOM     10  C   UNL     1       7.986  -2.152   2.749  0.00  0.00    +0.063 A 
ATOM     11  N   UNL     1       6.998  -2.389   1.902  0.00  0.00    -0.352 N 
ATOM     12 CL   UNL     1      11.413  -1.251   5.580  0.00  0.00    -0.083 Cl
ATOM     13  H   UNL     1       7.621  -4.621   4.938  0.00  0.00    +0.163 HD
ATOM     14  H   UNL     1       6.878  -1.798   1.143  0.00  0.00    +0.166 HD
ENDROOT
BRANCH   3  15
ATOM     15  O   UNL     1       5.140  -4.329   3.997  0.00  0.00    -0.367 OA
ATOM     16  H   UNL     1       5.186  -4.838   4.818  0.00  0.00    +0.212 HD
ENDBRANCH   3  15
BRANCH   1  17
ATOM     17  N   UNL     1       4.233  -4.604   1.387  0.00  0.00    -0.264 N 
ATOM     18  H   UNL     1       4.348  -5.209   2.137  0.00  0.00    +0.170 HD
BRANCH  17  19
ATOM     19  N   UNL     1       3.128  -4.743   0.538  0.00  0.00    -0.233 N 
ATOM     20  C   UNL     1       2.174  -5.654   0.817  0.00  0.00    +0.260 C 
ATOM     21  O   UNL     1       2.226  -6.290   1.851  0.00  0.00    -0.269 OA
ATOM     22  H   UNL     1       3.049  -4.184  -0.250  0.00  0.00    +0.173 HD
BRANCH  20  23
ATOM     23  C   UNL     1       1.064  -5.880  -0.137  0.00  0.00    +0.041 A 
ATOM     24  C   UNL     1       1.046  -5.244  -1.383  0.00  0.00    +0.033 A 
ATOM     25  C   UNL     1      -0.009  -5.483  -2.242  0.00  0.00    +0.111 A 
ATOM     26  N   UNL     1      -0.989  -6.296  -1.901  0.00  0.00    -0.263 NA
ATOM     27  C   UNL     1      -1.011  -6.915  -0.737  0.00  0.00    +0.111 A 
ATOM     28  C   UNL     1       0.007  -6.738   0.180  0.00  0.00    +0.033 A 
ENDBRANCH  20  23
ENDBRANCH  17  19
ENDBRANCH   1  17
BRANCH   1  29
ATOM     29  C   UNL     1       5.039  -2.765  -0.075  0.00  0.00    +0.185 C 
BRANCH  29  31
ATOM     30  C   UNL     1       3.769  -0.665  -0.053  0.00  0.00    +0.006 C 
ATOM     31  C   UNL     1       3.747  -1.991  -0.040  0.00  0.00    +0.010 C 
BRANCH  30  35
ATOM     32  C   UNL     1       0.127   1.518   0.043  0.00  0.00    +0.000 A 
ATOM     33  C   UNL     1       1.334   2.193  -0.002  0.00  0.00    +0.001 A 
ATOM     34  C   UNL     1       2.520   1.490  -0.034  0.00  0.00    +0.008 A 
ATOM     35  C   UNL     1       2.501   0.095  -0.020  0.00  0.00    -0.025 A 
ATOM     36  C   UNL     1       1.281  -0.580   0.026  0.00  0.00    +0.008 A 
ATOM     37  C   UNL     1       0.101   0.135   0.057  0.00  0.00    +0.001 A 
ENDBRANCH  30  35
ENDBRANCH  29  31
BRANCH  29  38
ATOM     38  O   UNL     1       5.064  -3.599  -1.235  0.00  0.00    -0.382 OA
ATOM     39  H   UNL     1       4.303  -4.191  -1.311  0.00  0.00    +0.211 HD
ENDBRANCH  29  38
ENDBRANCH   1  29
TORSDOF 8
