REMARK  Name = ZINC08791893
REMARK  5 active torsions:
REMARK  status: ('A' for Active; 'I' for Inactive)
REMARK    1  A    between atoms: C_3  and  C_8
REMARK    2  A    between atoms: N_9  and  N_10
REMARK    3  A    between atoms: C_11  and  C_13
REMARK    4  A    between atoms: C_13  and  N_14
REMARK    5  A    between atoms: C_15  and  C_17
REMARK                            x       y       z     vdW  Elec       q    Type
REMARK                         _______ _______ _______ _____ _____    ______ ____
ROOT
ATOM      1  N   UNL     1       3.671   1.218  -0.026  0.00  0.00    -0.206 N 
ATOM      2  C   UNL     1       2.406   0.752  -0.017  0.00  0.00    +0.249 C 
ATOM      3  O   UNL     1       2.201  -0.444  -0.021  0.00  0.00    -0.272 OA
ATOM      4  H   UNL     1       3.835   2.174  -0.023  0.00  0.00    +0.177 HD
ENDROOT
BRANCH   1   6
ATOM      5  C   UNL     1       5.965   0.772  -0.051  0.00  0.00    +0.138 C 
ATOM      6  N   UNL     1       4.748   0.323  -0.042  0.00  0.00    -0.188 NA
BRANCH   5   9
ATOM      7  C   UNL     1       9.466  -0.579  -0.091  0.00  0.00    +0.002 A 
ATOM      8  C   UNL     1       8.410   0.309  -0.077  0.00  0.00    +0.009 A 
ATOM      9  C   UNL     1       7.099  -0.171  -0.067  0.00  0.00    -0.004 A 
ATOM     10  C   UNL     1       6.866  -1.549  -0.066  0.00  0.00    +0.024 A 
ATOM     11  C   UNL     1       7.932  -2.425  -0.085  0.00  0.00    +0.018 A 
ATOM     12  C   UNL     1       9.229  -1.942  -0.095  0.00  0.00    +0.015 A 
ATOM     13 BR   UNL     1       7.620  -4.290  -0.090  0.00  0.00    -0.050 Br
ENDBRANCH   5   9
ENDBRANCH   1   6
BRANCH   2  14
ATOM     14  C   UNL     1       1.248   1.716  -0.001  0.00  0.00    +0.202 C 
BRANCH  14  15
ATOM     15  N   UNL     1      -0.011   0.966   0.007  0.00  0.00    -0.303 N 
ATOM     16  C   UNL     1      -1.187   1.624   0.017  0.00  0.00    +0.246 C 
ATOM     17  O   UNL     1      -1.204   2.839   0.023  0.00  0.00    -0.270 OA
ATOM     18  H   UNL     1       0.002  -0.004   0.002  0.00  0.00    +0.150 HD
BRANCH  16  19
ATOM     19  C   UNL     1      -2.456   0.868   0.018  0.00  0.00    +0.055 A 
ATOM     20  C   UNL     1      -2.441  -0.529   0.011  0.00  0.00    +0.016 A 
ATOM     21  C   UNL     1      -3.628  -1.228   0.013  0.00  0.00    +0.021 A 
ATOM     22  C   UNL     1      -4.837  -0.550   0.023  0.00  0.00    +0.042 A 
ATOM     23  C   UNL     1      -4.860   0.834   0.031  0.00  0.00    +0.040 A 
ATOM     24  C   UNL     1      -3.678   1.547   0.034  0.00  0.00    +0.054 A 
ATOM     25 CL   UNL     1      -3.708   3.283   0.051  0.00  0.00    -0.083 Cl
ATOM     26 CL   UNL     1      -6.327  -1.440   0.025  0.00  0.00    -0.083 Cl
ENDBRANCH  16  19
ENDBRANCH  14  15
ENDBRANCH   2  14
TORSDOF 5
