REMARK  Name = ZINC39672938
REMARK  5 active torsions:
REMARK  status: ('A' for Active; 'I' for Inactive)
REMARK    1  A    between atoms: C_4  and  C_7
REMARK    2  A    between atoms: C_4  and  N_31
REMARK    3  A    between atoms: C_7  and  N_8
REMARK    4  A    between atoms: C_9  and  C_11
REMARK    5  A    between atoms: C_22  and  C_24
REMARK                            x       y       z     vdW  Elec       q    Type
REMARK                         _______ _______ _______ _____ _____    ______ ____
ROOT
ATOM      1  C   UNL     1       6.825   1.137   0.899  0.00  0.00    +0.100 C 
ATOM      2  C   UNL     1       7.386   0.064  -0.060  0.00  0.00    +0.121 C 
ATOM      3  N   UNL     1       8.748  -0.219   0.450  0.00  0.00    -0.300 N 
ATOM      4  C   UNL     1       8.601  -0.200   1.925  0.00  0.00    +0.115 C 
ATOM      5  C   UNL     1       7.624   0.960   2.201  0.00  0.00    -0.004 C 
ATOM      6  C   UNL     1       6.688   0.599   3.350  0.00  0.00    -0.010 C 
ATOM      7  C   UNL     1       7.497   0.485   4.646  0.00  0.00    -0.082 C 
ATOM      8  N   UNL     1       8.170   1.761   4.918  0.00  0.00    +0.379 N 
ATOM      9  C   UNL     1       9.136   2.055   3.853  0.00  0.00    -0.082 C 
ATOM     10  C   UNL     1       8.396   2.235   2.525  0.00  0.00    -0.010 C 
ATOM     11  C   UNL     1       9.869  -0.442  -0.265  0.00  0.00    +0.219 C 
ATOM     12  O   UNL     1       9.846  -0.345  -1.474  0.00  0.00    -0.275 OA
ATOM     13  H   UNL     1       7.483   2.499   4.960  0.00  0.00    -0.086 HD
ATOM     14  H   UNL     1       8.652   1.703   5.802  0.00  0.00    -0.086 HD
ENDROOT
BRANCH  11  15
ATOM     15  C   UNL     1      11.150  -0.811   0.437  0.00  0.00    +0.079 C 
ATOM     16  C   UNL     1      12.348  -0.413  -0.434  0.00  0.00    +0.017 C 
ATOM     17  C   UNL     1      13.629  -0.635   0.375  0.00  0.00    +0.027 C 
ATOM     18  C   UNL     1      13.624  -2.006   0.985  0.00  0.00    -0.031 C 
ATOM     19  C   UNL     1      12.565  -2.739   1.113  0.00  0.00    -0.030 C 
ATOM     20  C   UNL     1      11.193  -2.324   0.666  0.00  0.00    +0.039 C 
ENDBRANCH  11  15
BRANCH   1  22
ATOM     21  N   UNL     1       4.551   1.940   1.452  0.00  0.00    -0.313 N 
ATOM     22  C   UNL     1       5.357   0.903   1.148  0.00  0.00    +0.218 C 
ATOM     23  O   UNL     1       4.901  -0.218   1.075  0.00  0.00    -0.275 OA
ATOM     24  H   UNL     1       4.916   2.837   1.510  0.00  0.00    +0.149 HD
BRANCH  21  25
ATOM     25  C   UNL     1       3.124   1.712   1.694  0.00  0.00    +0.126 C 
BRANCH  25  29
ATOM     26  C   UNL     1       1.420   2.457   4.698  0.00  0.00    +0.000 C 
ATOM     27  C   UNL     1       2.910   2.695   4.445  0.00  0.00    +0.002 C 
ATOM     28  C   UNL     1       3.080   3.654   3.265  0.00  0.00    +0.024 C 
ATOM     29  C   UNL     1       2.443   3.043   2.015  0.00  0.00    +0.038 C 
ATOM     30  C   UNL     1       0.953   2.805   2.268  0.00  0.00    +0.024 C 
ATOM     31  C   UNL     1       0.782   1.846   3.448  0.00  0.00    +0.002 C 
BRANCH  29  32
ATOM     32  N   UNL     1       2.606   3.963   0.882  0.00  0.00    -0.291 NA
ATOM     33  C   UNL     1       2.038   5.284   1.190  0.00  0.00    +0.113 C 
ATOM     34  C   UNL     1       2.282   6.227   0.009  0.00  0.00    +0.175 C 
ATOM     35  O   UNL     1       1.717   5.656  -1.175  0.00  0.00    -0.377 OA
ATOM     36  C   UNL     1       2.249   4.370  -1.504  0.00  0.00    +0.175 C 
ATOM     37  C   UNL     1       2.004   3.409  -0.338  0.00  0.00    +0.113 C 
ENDBRANCH  29  32
ENDBRANCH  25  29
ENDBRANCH  21  25
ENDBRANCH   1  22
TORSDOF 5
