REMARK  Name = ZINC17306061
REMARK  15 active torsions:
REMARK  status: ('A' for Active; 'I' for Inactive)
REMARK    1  A    between atoms: C_1  and  C_2
REMARK    2  A    between atoms: C_2  and  O_3
REMARK    3  A    between atoms: O_3  and  C_4
REMARK    4  A    between atoms: C_4  and  C_6
REMARK    5  A    between atoms: C_7  and  C_34
REMARK    6  A    between atoms: C_8  and  C_30
REMARK    7  A    between atoms: C_10  and  N_11
REMARK    8  A    between atoms: C_12  and  C_14
REMARK    9  A    between atoms: C_14  and  N_62
REMARK   10  A    between atoms: C_15  and  N_62
REMARK   11  A    between atoms: C_16  and  C_18
REMARK   12  A    between atoms: C_16  and  C_19
REMARK   13  A    between atoms: C_16  and  N_62
REMARK   14  A    between atoms: C_22  and  N_25
REMARK   15  A    between atoms: N_32  and  C_33
REMARK                            x       y       z     vdW  Elec       q    Type
REMARK                         _______ _______ _______ _____ _____    ______ ____
ROOT
ATOM      1  N   UNL     1       3.278   7.622  -1.292  0.00  0.00    -0.281 N 
ATOM      2  C   UNL     1       3.188   6.279  -1.364  0.00  0.00    +0.201 C 
ATOM      3  O   UNL     1       3.932   5.659  -2.093  0.00  0.00    -0.278 OA
ATOM      4  H   UNL     1       2.682   8.118  -0.709  0.00  0.00    +0.155 HD
ENDROOT
BRANCH   1   9
ATOM      5  C   UNL     1       4.466   9.668  -2.115  0.00  0.00    +0.091 A 
ATOM      6  C   UNL     1       5.476  10.102  -2.960  0.00  0.00    -0.015 A 
ATOM      7  C   UNL     1       6.160   9.155  -3.673  0.00  0.00    +0.079 A 
ATOM      8  S   UNL     1       5.387   7.636  -3.149  0.00  0.00    -0.068 S 
ATOM      9  C   UNL     1       4.218   8.292  -2.050  0.00  0.00    +0.087 A 
ATOM     10  C   UNL     1       5.808  11.566  -3.091  0.00  0.00    +0.046 C 
BRANCH   7  11
ATOM     11  C   UNL     1       7.258   9.341  -4.623  0.00  0.00    +0.251 C 
ATOM     12  O   UNL     1       7.671  10.461  -4.863  0.00  0.00    -0.270 OA
ATOM     13  N   UNL     1       7.810   8.274  -5.233  0.00  0.00    -0.314 N 
ATOM     14  C   UNL     1       8.909   8.461  -6.184  0.00  0.00    +0.128 C 
ATOM     15  H   UNL     1       7.481   7.382  -5.042  0.00  0.00    +0.149 HD
ENDBRANCH   7  11
BRANCH   5  16
ATOM     16  C   UNL     1       3.684  10.618  -1.316  0.00  0.00    +0.342 C 
ATOM     17  O   UNL     1       4.056  10.924  -0.199  0.00  0.00    -0.245 OA
BRANCH  16  18
ATOM     18  O   UNL     1       2.553  11.152  -1.820  0.00  0.00    -0.461 OA
BRANCH  18  20
ATOM     19  C   UNL     1       0.585  12.582  -1.710  0.00  0.00    +0.048 C 
ATOM     20  C   UNL     1       1.831  12.085  -0.974  0.00  0.00    +0.229 C 
ENDBRANCH  18  20
ENDBRANCH  16  18
ENDBRANCH   5  16
ENDBRANCH   1   9
BRANCH   2  21
ATOM     21  C   UNL     1       2.161   5.548  -0.537  0.00  0.00    +0.019 C 
BRANCH  21  23
ATOM     22  C   UNL     1       3.547   3.576  -0.306  0.00  0.00    -0.095 C 
ATOM     23  N   UNL     1       2.264   4.101  -0.820  0.00  0.00    +0.388 N 
ATOM     24  H   UNL     1       2.228   3.956  -1.836  0.00  0.00    -0.081 HD
BRANCH  23  25
ATOM     25  C   UNL     1       1.136   3.381  -0.192  0.00  0.00    -0.041 C 
ATOM     26  C   UNL     1       1.272   3.397   1.331  0.00  0.00    -0.008 C 
BRANCH  25  27
ATOM     27  C   UNL     1       1.135   1.956  -0.682  0.00  0.00    -0.061 A 
ATOM     28  C   UNL     1       0.750   0.935   0.166  0.00  0.00    +0.004 A 
ATOM     29  C   UNL     1       0.748  -0.372  -0.280  0.00  0.00    +0.028 A 
ATOM     30  C   UNL     1       1.134  -0.660  -1.582  0.00  0.00    +0.067 A 
ATOM     31  C   UNL     1       1.520   0.368  -2.432  0.00  0.00    +0.028 A 
ATOM     32  C   UNL     1       1.520   1.673  -1.980  0.00  0.00    +0.004 A 
BRANCH  30  33
ATOM     33  N   UNL     1       1.133  -1.986  -2.038  0.00  0.00    -0.220 N 
ATOM     34  C   UNL     1       1.474  -2.417  -3.268  0.00  0.00    +0.225 A 
ATOM     35  N   UNL     1       1.342  -3.719  -3.292  0.00  0.00    -0.222 NA
ATOM     36  C   UNL     1       0.915  -4.152  -2.106  0.00  0.00    +0.245 A 
ATOM     37  N   UNL     1       0.772  -3.128  -1.305  0.00  0.00    -0.154 NA
ENDBRANCH  30  33
ENDBRANCH  25  27
ENDBRANCH  23  25
ENDBRANCH  21  23
ENDBRANCH   2  21
TORSDOF 10
