REMARK  Name = ZINC40000556
REMARK  7 active torsions:
REMARK  status: ('A' for Active; 'I' for Inactive)
REMARK    1  A    between atoms: C_4  and  C_7
REMARK    2  A    between atoms: C_8  and  C_9
REMARK    3  A    between atoms: C_9  and  S_10
REMARK    4  A    between atoms: S_10  and  C_11
REMARK    5  A    between atoms: C_17  and  C_31
REMARK    6  A    between atoms: C_19  and  C_24
REMARK    7  A    between atoms: C_24  and  C_26
REMARK                            x       y       z     vdW  Elec       q    Type
REMARK                         _______ _______ _______ _____ _____    ______ ____
ROOT
ATOM      1  C   UNL     1       6.835  -4.326   1.449  0.00  0.00    +0.160 A 
ATOM      2  N   UNL     1       7.678  -4.304   0.427  0.00  0.00    -0.133 NA
ATOM      3  N   UNL     1       8.750  -4.969   0.433  0.00  0.00    -0.125 NA
ATOM      4  C   UNL     1       9.098  -5.729   1.459  0.00  0.00    +0.192 A 
ATOM      5  S   UNL     1       7.707  -5.439   2.548  0.00  0.00    -0.024 S 
ATOM      6  N   UNL     1      10.225  -6.522   1.641  0.00  0.00    -0.230 N 
ATOM      7  C   UNL     1      11.327  -6.689   0.687  0.00  0.00    +0.153 C 
ATOM      8  C   UNL     1      12.304  -7.642   1.336  0.00  0.00    +0.080 C 
ATOM      9  C   UNL     1      11.785  -7.971   2.542  0.00  0.00    +0.250 C 
ATOM     10  C   UNL     1      10.500  -7.269   2.726  0.00  0.00    +0.293 C 
ATOM     11  O   UNL     1       9.794  -7.355   3.711  0.00  0.00    -0.266 OA
ATOM     12  O   UNL     1      12.357  -8.807   3.440  0.00  0.00    -0.282 OA
ENDROOT
BRANCH   7  13
ATOM     13  C   UNL     1      10.812  -7.273  -0.604  0.00  0.00    -0.004 A 
ATOM     14  C   UNL     1      11.227  -6.757  -1.822  0.00  0.00    +0.009 A 
ATOM     15  C   UNL     1      10.727  -7.325  -2.984  0.00  0.00    +0.020 A 
ATOM     16  C   UNL     1       9.838  -8.380  -2.889  0.00  0.00    +0.111 A 
ATOM     17  N   UNL     1       9.465  -8.844  -1.713  0.00  0.00    -0.263 NA
ATOM     18  C   UNL     1       9.925  -8.332  -0.588  0.00  0.00    +0.116 A 
ENDBRANCH   7  13
BRANCH   8  19
ATOM     19  C   UNL     1      13.570  -8.118   0.769  0.00  0.00    +0.230 C 
ATOM     20  O   UNL     1      13.707  -9.296   0.488  0.00  0.00    -0.283 OA
BRANCH  19  21
ATOM     21  C   UNL     1      14.671  -7.177   0.540  0.00  0.00    +0.175 A 
ATOM     22  C   UNL     1      15.872  -7.466  -0.072  0.00  0.00    +0.053 A 
ATOM     23  C   UNL     1      16.615  -6.276  -0.074  0.00  0.00    +0.042 A 
ATOM     24  C   UNL     1      15.855  -5.330   0.523  0.00  0.00    +0.196 A 
ATOM     25  O   UNL     1      14.686  -5.873   0.886  0.00  0.00    -0.460 OA
ENDBRANCH  19  21
ENDBRANCH   8  19
BRANCH   1  26
ATOM     26  S   UNL     1       5.298  -3.492   1.667  0.00  0.00    -0.093 S 
BRANCH  26  27
ATOM     27  C   UNL     1       5.084  -2.555   0.129  0.00  0.00    +0.103 C 
BRANCH  27  29
ATOM     28  C   UNL     1       3.806  -0.460   0.190  0.00  0.00    +0.004 C 
ATOM     29  C   UNL     1       3.790  -1.786   0.185  0.00  0.00    -0.015 C 
BRANCH  28  33
ATOM     30  C   UNL     1       0.157   1.708   0.346  0.00  0.00    +0.000 A 
ATOM     31  C   UNL     1       1.361   2.388   0.301  0.00  0.00    +0.001 A 
ATOM     32  C   UNL     1       2.550   1.690   0.250  0.00  0.00    +0.008 A 
ATOM     33  C   UNL     1       2.536   0.294   0.245  0.00  0.00    -0.025 A 
ATOM     34  C   UNL     1       1.319  -0.385   0.291  0.00  0.00    +0.008 A 
ATOM     35  C   UNL     1       0.137   0.325   0.341  0.00  0.00    +0.001 A 
ENDBRANCH  28  33
ENDBRANCH  27  29
ENDBRANCH  26  27
ENDBRANCH   1  26
TORSDOF 7
