REMARK  Name = ZINC20902856
REMARK  9 active torsions:
REMARK  status: ('A' for Active; 'I' for Inactive)
REMARK    1  A    between atoms: C_1  and  C_2
REMARK    2  A    between atoms: C_2  and  C_27
REMARK    3  A    between atoms: N_15  and  C_16
REMARK    4  A    between atoms: C_16  and  C_17
REMARK    5  A    between atoms: C_17  and  C_18
REMARK    6  A    between atoms: C_18  and  N_19
REMARK    7  A    between atoms: N_19  and  C_20
REMARK    8  A    between atoms: N_19  and  C_21
REMARK    9  A    between atoms: N_29  and  C_30
REMARK                            x       y       z     vdW  Elec       q    Type
REMARK                         _______ _______ _______ _____ _____    ______ ____
ROOT
ATOM      1  C   UNL     1       9.135  -2.323  -4.359  0.00  0.00    +0.043 C 
ATOM      2  C   UNL     1       7.633  -2.421  -4.631  0.00  0.00    +0.128 C 
ATOM      3  C   UNL     1       7.406  -3.268  -5.887  0.00  0.00    +0.157 C 
ATOM      4  N   UNL     1       7.799  -2.493  -7.069  0.00  0.00    -0.334 N 
ATOM      5  C   UNL     1       8.279  -2.906  -8.266  0.00  0.00    +0.050 A 
ATOM      6  C   UNL     1       8.586  -4.172  -8.766  0.00  0.00    +0.026 A 
ATOM      7  C   UNL     1       9.065  -4.238 -10.062  0.00  0.00    +0.002 A 
ATOM      8  C   UNL     1       9.238  -3.107 -10.846  0.00  0.00    +0.001 A 
ATOM      9  C   UNL     1       8.947  -1.849 -10.385  0.00  0.00    +0.010 A 
ATOM     10  C   UNL     1       8.463  -1.749  -9.072  0.00  0.00    +0.001 A 
ATOM     11  C   UNL     1       8.082  -0.637  -8.299  0.00  0.00    +0.041 A 
ATOM     12  C   UNL     1       7.694  -1.099  -7.093  0.00  0.00    +0.106 A 
ATOM     13  C   UNL     1       7.217  -0.362  -5.908  0.00  0.00    +0.264 C 
ATOM     14  O   UNL     1       6.952   0.824  -5.957  0.00  0.00    -0.268 OA
ATOM     15  N   UNL     1       7.090  -1.074  -4.764  0.00  0.00    -0.281 N 
ENDROOT
BRANCH   2  16
ATOM     16  C   UNL     1       6.971  -3.099  -3.460  0.00  0.00    +0.238 C 
ATOM     17  O   UNL     1       7.508  -3.094  -2.373  0.00  0.00    -0.273 OA
ATOM     18  N   UNL     1       5.781  -3.713  -3.620  0.00  0.00    -0.311 N 
ATOM     19  H   UNL     1       5.330  -3.784  -4.621  0.00  0.00    +0.149 HD
BRANCH  18  20
ATOM     20  C   UNL     1       5.090  -4.285  -2.462  0.00  0.00    +0.073 C 
ATOM     21  C   UNL     1       5.680  -5.661  -2.146  0.00  0.00    +0.022 C 
ATOM     22  C   UNL     1       4.958  -6.258  -0.936  0.00  0.00    +0.002 C 
ATOM     23  C   UNL     1       3.468  -6.402  -1.252  0.00  0.00    +0.000 C 
ATOM     24  C   UNL     1       2.878  -5.027  -1.569  0.00  0.00    +0.002 C 
ATOM     25  C   UNL     1       3.600  -4.429  -2.778  0.00  0.00    +0.022 C 
ENDBRANCH  18  20
ENDBRANCH   2  16
BRANCH  15  26
ATOM     26  C   UNL     1       6.392  -0.472  -3.625  0.00  0.00    +0.107 C 
BRANCH  26  27
ATOM     27  C   UNL     1       4.883  -0.665  -3.791  0.00  0.00    +0.000 C 
BRANCH  27  28
ATOM     28  C   UNL     1       4.148   0.082  -2.676  0.00  0.00    -0.077 C 
BRANCH  28  29
ATOM     29  N   UNL     1       2.699  -0.020  -2.892  0.00  0.00    +0.380 N 
ATOM     30  C   UNL     1       2.297   0.692  -4.113  0.00  0.00    -0.096 C 
ATOM     31  H   UNL     1       2.450  -1.083  -3.024  0.00  0.00    -0.082 HD
BRANCH  29  32
ATOM     32  C   UNL     1       1.957   0.476  -1.725  0.00  0.00    -0.069 C 
ATOM     33  C   UNL     1       0.474   0.129  -1.878  0.00  0.00    -0.015 C 
ATOM     34  C   UNL     1      -0.298   0.645  -0.663  0.00  0.00    -0.002 C 
ATOM     35  C   UNL     1      -0.138   2.164  -0.564  0.00  0.00    -0.000 C 
ATOM     36  C   UNL     1       1.345   2.511  -0.411  0.00  0.00    -0.002 C 
ATOM     37  C   UNL     1       2.118   1.994  -1.626  0.00  0.00    -0.015 C 
ENDBRANCH  29  32
ENDBRANCH  28  29
ENDBRANCH  27  28
ENDBRANCH  26  27
ENDBRANCH  15  26
TORSDOF 7
