REMARK  Name = ZINC39672215
REMARK  6 active torsions:
REMARK  status: ('A' for Active; 'I' for Inactive)
REMARK    1  A    between atoms: C_1  and  C_2
REMARK    2  A    between atoms: C_6  and  C_9
REMARK    3  A    between atoms: C_13  and  C_22
REMARK    4  A    between atoms: N_24  and  C_25
REMARK    5  A    between atoms: C_25  and  C_26
REMARK    6  A    between atoms: N_35  and  C_36
REMARK                            x       y       z     vdW  Elec       q    Type
REMARK                         _______ _______ _______ _____ _____    ______ ____
ROOT
ATOM      1  C   UNL     1       0.013  -2.749   2.303  0.00  0.00    +0.252 C 
ATOM      2  O   UNL     1       1.099  -3.008   2.786  0.00  0.00    -0.270 OA
ATOM      3  N   UNL     1      -1.114  -3.145   2.927  0.00  0.00    -0.296 N 
ATOM      4  C   UNL     1      -2.515  -2.931   2.494  0.00  0.00    +0.121 C 
ATOM      5  C   UNL     1      -3.237  -4.252   2.840  0.00  0.00    +0.100 C 
ATOM      6  C   UNL     1      -2.392  -4.879   3.961  0.00  0.00    -0.004 C 
ATOM      7  C   UNL     1      -1.232  -3.901   4.197  0.00  0.00    +0.115 C 
ATOM      8  C   UNL     1      -3.224  -5.029   5.231  0.00  0.00    -0.010 C 
ATOM      9  C   UNL     1      -2.380  -5.707   6.313  0.00  0.00    -0.082 C 
ATOM     10  N   UNL     1      -1.937  -7.024   5.837  0.00  0.00    +0.379 N 
ATOM     11  C   UNL     1      -1.061  -6.865   4.670  0.00  0.00    -0.082 C 
ATOM     12  C   UNL     1      -1.849  -6.235   3.519  0.00  0.00    -0.010 C 
ATOM     13  H   UNL     1      -1.433  -7.494   6.574  0.00  0.00    -0.086 HD
ATOM     14  H   UNL     1      -2.742  -7.575   5.579  0.00  0.00    -0.086 HD
ENDROOT
BRANCH   1  20
ATOM     15  C   UNL     1      -0.283   1.598  -0.136  0.00  0.00    +0.047 C 
ATOM     16  C   UNL     1      -0.213   0.092  -0.146  0.00  0.00    -0.014 A 
ATOM     17  C   UNL     1      -0.227  -0.591  -1.348  0.00  0.00    +0.009 A 
ATOM     18  C   UNL     1      -0.162  -1.972  -1.369  0.00  0.00    +0.039 A 
ATOM     19  C   UNL     1      -0.084  -2.682  -0.186  0.00  0.00    +0.138 A 
ATOM     20  C   UNL     1      -0.070  -1.999   1.035  0.00  0.00    +0.107 A 
ATOM     21  C   UNL     1      -0.129  -0.601   1.047  0.00  0.00    +0.141 A 
ATOM     22  F   UNL     1      -0.110   0.068   2.220  0.00  0.00    -0.204 F 
ATOM     23  F   UNL     1      -0.022  -4.031  -0.208  0.00  0.00    -0.205 F 
ENDBRANCH   1  20
BRANCH   5  24
ATOM     24  C   UNL     1      -3.275  -5.160   1.638  0.00  0.00    +0.218 C 
ATOM     25  O   UNL     1      -2.411  -5.080   0.790  0.00  0.00    -0.275 OA
ATOM     26  N   UNL     1      -4.269  -6.060   1.504  0.00  0.00    -0.311 N 
ATOM     27  H   UNL     1      -4.960  -6.124   2.182  0.00  0.00    +0.149 HD
BRANCH  26  28
ATOM     28  C   UNL     1      -4.305  -6.943   0.336  0.00  0.00    +0.139 C 
BRANCH  28  29
ATOM     29  C   UNL     1      -5.507  -7.847   0.427  0.00  0.00    -0.030 A 
ATOM     30  C   UNL     1      -5.404  -9.070   1.065  0.00  0.00    +0.007 A 
ATOM     31  C   UNL     1      -6.504  -9.899   1.147  0.00  0.00    +0.024 A 
ATOM     32  C   UNL     1      -7.715  -9.505   0.590  0.00  0.00    +0.033 A 
ATOM     33  C   UNL     1      -7.819  -8.278  -0.047  0.00  0.00    -0.026 A 
ATOM     34  C   UNL     1      -6.711  -7.451  -0.122  0.00  0.00    +0.010 A 
ATOM     35  C   UNL     1      -9.118  -7.814  -0.653  0.00  0.00    +0.038 C 
ATOM     36  C   UNL     1     -10.041  -9.003  -0.916  0.00  0.00    +0.024 C 
ATOM     37  C   UNL     1     -10.154  -9.837   0.367  0.00  0.00    +0.105 C 
ATOM     38  N   UNL     1      -8.818 -10.362   0.680  0.00  0.00    -0.333 N 
ATOM     39  C   UNL     1      -8.642 -11.761   1.078  0.00  0.00    +0.129 C 
ENDBRANCH  28  29
ENDBRANCH  26  28
ENDBRANCH   5  24
TORSDOF 4
