REMARK  Name = ZINC08931728
REMARK  7 active torsions:
REMARK  status: ('A' for Active; 'I' for Inactive)
REMARK    1  A    between atoms: C_4  and  C_7
REMARK    2  A    between atoms: C_7  and  C_8
REMARK    3  A    between atoms: C_7  and  C_30
REMARK    4  A    between atoms: C_8  and  N_9
REMARK    5  A    between atoms: C_13  and  N_71
REMARK    6  A    between atoms: C_19  and  C_22
REMARK    7  A    between atoms: C_19  and  N_73
REMARK                            x       y       z     vdW  Elec       q    Type
REMARK                         _______ _______ _______ _____ _____    ______ ____
ROOT
ATOM      1  N   UNL     1       1.510   6.941   0.818  0.00  0.00    -0.243 N 
ATOM      2  C   UNL     1       0.852   7.612  -0.136  0.00  0.00    +0.221 C 
ATOM      3  O   UNL     1       0.280   7.110  -1.080  0.00  0.00    -0.275 OA
ATOM      4  C   UNL     1       0.933   9.095   0.151  0.00  0.00    +0.090 C 
ATOM      5  C   UNL     1       1.762   9.167   1.450  0.00  0.00    +0.029 C 
ATOM      6  C   UNL     1       2.057   7.716   1.763  0.00  0.00    +0.209 C 
ATOM      7  O   UNL     1       2.690   7.318   2.717  0.00  0.00    -0.277 OA
ENDROOT
BRANCH   5  13
ATOM      8  C   UNL     1      -0.283   9.050   2.739  0.00  0.00    -0.079 C 
ATOM      9  C   UNL     1      -1.138   9.794   3.768  0.00  0.00    -0.021 C 
ATOM     10  C   UNL     1      -0.365   9.899   5.086  0.00  0.00    +0.009 C 
ATOM     11  C   UNL     1       0.965  10.615   4.833  0.00  0.00    -0.021 C 
ATOM     12  C   UNL     1       1.758   9.848   3.773  0.00  0.00    -0.079 C 
ATOM     13  N   UNL     1       0.970   9.803   2.523  0.00  0.00    +0.388 N 
ATOM     14  H   UNL     1       0.738  10.763   2.241  0.00  0.00    -0.081 HD
BRANCH  10  20
ATOM     15  C   UNL     1      -0.428  10.815   7.326  0.00  0.00    -0.077 C 
ATOM     16  C   UNL     1      -1.216  11.735   8.261  0.00  0.00    -0.019 C 
ATOM     17  C   UNL     1      -2.600  11.131   8.517  0.00  0.00    -0.004 C 
ATOM     18  C   UNL     1      -3.318  10.937   7.178  0.00  0.00    -0.019 C 
ATOM     19  C   UNL     1      -2.469  10.041   6.274  0.00  0.00    -0.077 C 
ATOM     20  N   UNL     1      -1.160  10.690   6.048  0.00  0.00    +0.389 N 
ATOM     21  H   UNL     1      -1.316  11.627   5.660  0.00  0.00    -0.080 HD
ENDBRANCH  10  20
BRANCH  10  22
ATOM     22  C   UNL     1      -0.098   8.517   5.625  0.00  0.00    +0.200 C 
ATOM     23  O   UNL     1       1.018   8.214   5.992  0.00  0.00    -0.278 OA
ATOM     24  N   UNL     1      -1.099   7.618   5.699  0.00  0.00    -0.330 N 
ATOM     25  H   UNL     1      -1.973   7.834   5.339  0.00  0.00    +0.145 HD
ATOM     26  H   UNL     1      -0.945   6.754   6.113  0.00  0.00    +0.145 HD
ENDBRANCH  10  22
ENDBRANCH   5  13
BRANCH   1  27
ATOM     27  C   UNL     1       1.619   5.481   0.829  0.00  0.00    +0.129 C 
BRANCH  27  28
ATOM     28  C   UNL     1       2.868   5.056   0.056  0.00  0.00    +0.067 C 
BRANCH  28  32
ATOM     29  C   UNL     1       3.376   0.827   0.382  0.00  0.00    +0.000 A 
ATOM     30  C   UNL     1       2.126   1.355   0.117  0.00  0.00    +0.000 A 
ATOM     31  C   UNL     1       1.961   2.723   0.016  0.00  0.00    +0.004 A 
ATOM     32  C   UNL     1       3.047   3.564   0.171  0.00  0.00    -0.038 A 
ATOM     33  C   UNL     1       4.298   3.036   0.431  0.00  0.00    +0.004 A 
ATOM     34  C   UNL     1       4.463   1.667   0.536  0.00  0.00    +0.000 A 
ENDBRANCH  28  32
BRANCH  28  35
ATOM     35  C   UNL     1       2.713   5.433  -1.395  0.00  0.00    -0.038 A 
ATOM     36  C   UNL     1       1.621   4.984  -2.113  0.00  0.00    +0.004 A 
ATOM     37  C   UNL     1       1.476   5.333  -3.442  0.00  0.00    +0.000 A 
ATOM     38  C   UNL     1       2.429   6.124  -4.057  0.00  0.00    +0.000 A 
ATOM     39  C   UNL     1       3.525   6.568  -3.341  0.00  0.00    +0.000 A 
ATOM     40  C   UNL     1       3.667   6.223  -2.010  0.00  0.00    +0.004 A 
ENDBRANCH  28  35
ENDBRANCH  27  28
ENDBRANCH   1  27
TORSDOF 7
