REMARK  Name = ZINC23431474
REMARK  7 active torsions:
REMARK  status: ('A' for Active; 'I' for Inactive)
REMARK    1  A    between atoms: C_3  and  N_8
REMARK    2  A    between atoms: N_14  and  C_17
REMARK    3  A    between atoms: C_17  and  C_18
REMARK    4  A    between atoms: C_18  and  C_20
REMARK    5  A    between atoms: C_18  and  O_27
REMARK    6  A    between atoms: O_27  and  C_28
REMARK    7  A    between atoms: C_28  and  C_29
REMARK                            x       y       z     vdW  Elec       q    Type
REMARK                         _______ _______ _______ _____ _____    ______ ____
ROOT
ATOM      1  C   UNL     1       4.685   3.361   2.159  0.00  0.00    -0.042 C 
ENDROOT
BRANCH   1   8
ATOM      2  N   UNL     1      -0.033  -0.078   0.063  0.00  0.00    -0.269 N 
ATOM      3  C   UNL     1      -0.023   1.152   0.613  0.00  0.00    +0.306 C 
ATOM      4  O   UNL     1      -1.017   1.578   1.168  0.00  0.00    -0.252 OA
ATOM      5  N   UNL     1       1.091   1.908   0.552  0.00  0.00    -0.289 N 
ATOM      6  C   UNL     1       1.089   3.296   1.038  0.00  0.00    +0.091 C 
ATOM      7  C   UNL     1       2.272   3.470   2.005  0.00  0.00    -0.059 C 
ATOM      8  N   UNL     1       3.510   3.049   1.336  0.00  0.00    +0.384 N 
ATOM      9  C   UNL     1       3.471   1.620   0.994  0.00  0.00    -0.059 C 
ATOM     10  C   UNL     1       2.340   1.369  -0.008  0.00  0.00    +0.091 C 
ATOM     11  H   UNL     1       0.898  -0.514  -0.328  0.00  0.00    +0.156 HD
ATOM     12  H   UNL     1       3.592   3.615   0.397  0.00  0.00    -0.082 HD
BRANCH   2  15
ATOM     13  C   UNL     1      -3.614  -0.852  -0.259  0.00  0.00    +0.005 A 
ATOM     14  C   UNL     1      -2.436  -0.136  -0.181  0.00  0.00    +0.023 A 
ATOM     15  C   UNL     1      -1.229  -0.802  -0.011  0.00  0.00    +0.037 A 
ATOM     16  C   UNL     1      -1.212  -2.186   0.092  0.00  0.00    +0.061 A 
ATOM     17  C   UNL     1      -2.395  -2.898   0.018  0.00  0.00    +0.125 A 
ATOM     18  C   UNL     1      -3.596  -2.230  -0.157  0.00  0.00    +0.038 A 
ATOM     19  F   UNL     1      -2.380  -4.245   0.118  0.00  0.00    -0.205 F 
ENDBRANCH   2  15
ENDBRANCH   1   8
BRANCH   1  20
ATOM     20  C   UNL     1       4.564   4.787   2.701  0.00  0.00    +0.132 C 
BRANCH  20  21
ATOM     21  C   UNL     1       5.770   5.108   3.545  0.00  0.00    -0.021 A 
ATOM     22  C   UNL     1       6.929   5.569   2.949  0.00  0.00    +0.007 A 
ATOM     23  C   UNL     1       8.034   5.869   3.723  0.00  0.00    +0.020 A 
ATOM     24  C   UNL     1       7.983   5.697   5.095  0.00  0.00    +0.041 A 
ATOM     25  C   UNL     1       6.825   5.230   5.691  0.00  0.00    +0.020 A 
ATOM     26  C   UNL     1       5.720   4.936   4.916  0.00  0.00    +0.007 A 
ATOM     27 CL   UNL     1       9.373   6.066   6.068  0.00  0.00    -0.084 Cl
ENDBRANCH  20  21
BRANCH  20  28
ATOM     28  O   UNL     1       4.489   5.706   1.609  0.00  0.00    -0.369 OA
BRANCH  28  29
ATOM     29  C   UNL     1       3.734   6.886   1.894  0.00  0.00    +0.201 C 
BRANCH  29  30
ATOM     30  C   UNL     1       3.720   7.779   0.680  0.00  0.00    +0.048 A 
ATOM     31  C   UNL     1       4.706   8.736   0.514  0.00  0.00    +0.131 A 
ATOM     32  C   UNL     1       4.696   9.553  -0.605  0.00  0.00    +0.039 A 
ATOM     33  C   UNL     1       3.696   9.419  -1.549  0.00  0.00    +0.006 A 
ATOM     34  C   UNL     1       2.708   8.467  -1.381  0.00  0.00    +0.039 A 
ATOM     35  C   UNL     1       2.719   7.646  -0.267  0.00  0.00    +0.131 A 
ATOM     36  F   UNL     1       1.753   6.716  -0.103  0.00  0.00    -0.205 F 
ATOM     37  F   UNL     1       5.681   8.871   1.440  0.00  0.00    -0.205 F 
ENDBRANCH  29  30
ENDBRANCH  28  29
ENDBRANCH  20  28
ENDBRANCH   1  20
TORSDOF 7
