REMARK  Name = ZINC19010619
REMARK  9 active torsions:
REMARK  status: ('A' for Active; 'I' for Inactive)
REMARK    1  A    between atoms: C_1  and  N_2
REMARK    2  A    between atoms: C_3  and  C_5
REMARK    3  A    between atoms: C_8  and  N_11
REMARK    4  A    between atoms: C_12  and  C_14
REMARK    5  A    between atoms: C_14  and  S_15
REMARK    6  A    between atoms: S_15  and  C_16
REMARK    7  A    between atoms: C_19  and  C_28
REMARK    8  A    between atoms: N_20  and  C_21
REMARK    9  A    between atoms: C_21  and  C_22
REMARK                            x       y       z     vdW  Elec       q    Type
REMARK                         _______ _______ _______ _____ _____    ______ ____
ROOT
ATOM      1  C   UNL     1       1.093  12.295   0.447  0.00  0.00    +0.192 A 
ATOM      2  N   UNL     1       0.008  13.028   0.344  0.00  0.00    -0.122 NA
ATOM      3  N   UNL     1       0.283  14.260   0.585  0.00  0.00    -0.128 NA
ATOM      4  C   UNL     1       1.563  14.390   0.847  0.00  0.00    +0.165 A 
ATOM      5  N   UNL     1       2.121  13.136   0.766  0.00  0.00    -0.300 N 
ENDROOT
BRANCH   4   6
ATOM      6  C   UNL     1       2.270  15.648   1.167  0.00  0.00    +0.019 A 
ATOM      7  C   UNL     1       1.550  16.775   1.567  0.00  0.00    +0.014 A 
ATOM      8  C   UNL     1       2.215  17.945   1.868  0.00  0.00    +0.039 A 
ATOM      9  C   UNL     1       3.596  18.006   1.766  0.00  0.00    +0.123 A 
ATOM     10  C   UNL     1       4.316  16.891   1.365  0.00  0.00    +0.039 A 
ATOM     11  C   UNL     1       3.661  15.715   1.065  0.00  0.00    +0.014 A 
ATOM     12  F   UNL     1       4.242  19.155   2.058  0.00  0.00    -0.205 F 
ENDBRANCH   4   6
BRANCH   1  13
ATOM     13  S   UNL     1       1.204  10.552   0.209  0.00  0.00    -0.077 S 
BRANCH  13  14
ATOM     14  C   UNL     1      -0.525  10.177  -0.174  0.00  0.00    +0.173 C 
BRANCH  14  16
ATOM     15  N   UNL     1      -1.883   8.185  -0.728  0.00  0.00    -0.285 N 
ATOM     16  C   UNL     1      -0.674   8.698  -0.422  0.00  0.00    +0.227 C 
ATOM     17  O   UNL     1       0.292   7.970  -0.348  0.00  0.00    -0.275 OA
ATOM     18  H   UNL     1      -2.642   8.775  -0.858  0.00  0.00    +0.155 HD
BRANCH  15  22
ATOM     19  C   UNL     1      -2.360   4.065  -1.110  0.00  0.00    +0.037 A 
ATOM     20  C   UNL     1      -3.107   4.933  -1.911  0.00  0.00    +0.015 A 
ATOM     21  C   UNL     1      -2.951   6.295  -1.777  0.00  0.00    +0.024 A 
ATOM     22  C   UNL     1      -2.042   6.806  -0.856  0.00  0.00    +0.033 A 
ATOM     23  C   UNL     1      -1.293   5.944  -0.061  0.00  0.00    +0.024 A 
ATOM     24  C   UNL     1      -1.448   4.581  -0.185  0.00  0.00    +0.015 A 
BRANCH  19  27
ATOM     25  C   UNL     1      -3.576   0.659  -2.273  0.00  0.00    +0.128 C 
ATOM     26  N   UNL     1      -3.408   2.108  -2.138  0.00  0.00    -0.314 N 
ATOM     27  C   UNL     1      -2.529   2.605  -1.246  0.00  0.00    +0.244 C 
ATOM     28  O   UNL     1      -1.875   1.850  -0.552  0.00  0.00    -0.270 OA
ATOM     29  H   UNL     1      -3.933   2.710  -2.689  0.00  0.00    +0.149 HD
ENDBRANCH  19  27
ENDBRANCH  15  22
ENDBRANCH  14  16
ENDBRANCH  13  14
ENDBRANCH   1  13
BRANCH   5  30
ATOM     30  C   UNL     1       3.525  12.777   0.979  0.00  0.00    +0.157 C 
BRANCH  30  31
ATOM     31  C   UNL     1       4.268  12.811  -0.358  0.00  0.00    +0.138 C 
ATOM     32  C   UNL     1       5.769  12.487  -0.148  0.00  0.00    +0.035 C 
ATOM     33  C   UNL     1       6.154  11.947  -1.553  0.00  0.00    +0.031 C 
ATOM     34  C   UNL     1       4.859  11.231  -1.994  0.00  0.00    +0.160 C 
ATOM     35  O   UNL     1       3.779  11.777  -1.227  0.00  0.00    -0.375 OA
ENDBRANCH  30  31
ENDBRANCH   5  30
TORSDOF 8
