REMARK  Name = ZINC03294483
REMARK  7 active torsions:
REMARK  status: ('A' for Active; 'I' for Inactive)
REMARK    1  A    between atoms: C_6  and  C_7
REMARK    2  A    between atoms: C_10  and  S_13
REMARK    3  A    between atoms: N_11  and  N_12
REMARK    4  A    between atoms: S_13  and  C_14
REMARK    5  A    between atoms: C_14  and  C_15
REMARK    6  A    between atoms: N_17  and  C_18
REMARK    7  A    between atoms: C_22  and  N_24
REMARK                            x       y       z     vdW  Elec       q    Type
REMARK                         _______ _______ _______ _____ _____    ______ ____
ROOT
ATOM      1  S   UNL     1      -0.742   1.427  -0.611  0.00  0.00    -0.075 S 
ENDROOT
BRANCH   1   5
ATOM      2  C   UNL     1       0.778   1.247  -4.206  0.00  0.00    +0.182 A 
ATOM      3  N   UNL     1       1.500   0.373  -3.544  0.00  0.00    -0.127 NA
ATOM      4  N   UNL     1       1.113   0.322  -2.319  0.00  0.00    -0.121 NA
ATOM      5  C   UNL     1       0.115   1.155  -2.127  0.00  0.00    +0.209 A 
ATOM      6  N   UNL     1      -0.131   1.775  -3.319  0.00  0.00    -0.224 N 
BRANCH   2  12
ATOM      7  C   UNL     1       1.625   0.759  -6.497  0.00  0.00    +0.013 A 
ATOM      8  C   UNL     1       1.747   1.090  -7.831  0.00  0.00    +0.021 A 
ATOM      9  C   UNL     1       1.177   2.257  -8.313  0.00  0.00    +0.041 A 
ATOM     10  C   UNL     1       0.478   3.095  -7.461  0.00  0.00    +0.021 A 
ATOM     11  C   UNL     1       0.345   2.773  -6.127  0.00  0.00    +0.013 A 
ATOM     12  C   UNL     1       0.917   1.598  -5.635  0.00  0.00    +0.021 A 
ATOM     13 CL   UNL     1       1.341   2.670  -9.991  0.00  0.00    -0.084 Cl
ENDBRANCH   2  12
BRANCH   6  14
ATOM     14  N   UNL     1      -1.082   2.721  -3.576  0.00  0.00    -0.295 N 
ATOM     15  H   UNL     1      -0.695   3.651  -3.507  0.00  0.00    +0.163 HD
ATOM     16  H   UNL     1      -1.505   2.572  -4.480  0.00  0.00    +0.163 HD
ENDBRANCH   6  14
ENDBRANCH   1   5
BRANCH   1  17
ATOM     17  C   UNL     1       0.142   0.268   0.462  0.00  0.00    +0.173 C 
BRANCH  17  18
ATOM     18  C   UNL     1      -0.436   0.329   1.852  0.00  0.00    +0.227 C 
ATOM     19  O   UNL     1      -1.356   1.082   2.094  0.00  0.00    -0.275 OA
ATOM     20  N   UNL     1       0.068  -0.453   2.827  0.00  0.00    -0.285 N 
ATOM     21  H   UNL     1       0.851  -0.999   2.655  0.00  0.00    +0.155 HD
BRANCH  20  22
ATOM     22  C   UNL     1      -0.538  -0.478   4.088  0.00  0.00    +0.036 A 
ATOM     23  C   UNL     1       0.234  -0.666   5.228  0.00  0.00    +0.025 A 
ATOM     24  C   UNL     1      -0.366  -0.684   6.471  0.00  0.00    +0.024 A 
ATOM     25  C   UNL     1      -1.737  -0.527   6.582  0.00  0.00    +0.071 A 
ATOM     26  C   UNL     1      -2.509  -0.345   5.448  0.00  0.00    +0.146 A 
ATOM     27  C   UNL     1      -1.913  -0.320   4.202  0.00  0.00    +0.057 A 
ATOM     28 CL   UNL     1      -2.489  -0.557   8.147  0.00  0.00    -0.081 Cl
BRANCH  26  29
ATOM     29  N   UNL     1      -3.974  -0.177   5.571  0.00  0.00    +0.058 N 
ATOM     30  O   UNL     1      -4.654  -0.017   4.573  0.00  0.00    -0.126 OA
ATOM     31  O   UNL     1      -4.500  -0.200   6.669  0.00  0.00    -0.126 OA
ENDBRANCH  26  29
ENDBRANCH  20  22
ENDBRANCH  17  18
ENDBRANCH   1  17
TORSDOF 7
