REMARK  Name = ZINC37526323
REMARK  7 active torsions:
REMARK  status: ('A' for Active; 'I' for Inactive)
REMARK    1  A    between atoms: C_4  and  N_17
REMARK    2  A    between atoms: C_5  and  C_7
REMARK    3  A    between atoms: N_9  and  C_10
REMARK    4  A    between atoms: C_10  and  C_11
REMARK    5  A    between atoms: C_20  and  N_23
REMARK    6  A    between atoms: N_23  and  S_24
REMARK    7  A    between atoms: S_24  and  C_27
REMARK                            x       y       z     vdW  Elec       q    Type
REMARK                         _______ _______ _______ _____ _____    ______ ____
ROOT
ATOM      1  N   UNL     1       3.453  -0.918  -0.095  0.00  0.00    -0.329 N 
ATOM      2  C   UNL     1       4.156  -1.291   1.140  0.00  0.00    +0.106 C 
ATOM      3  C   UNL     1       5.637  -0.927   0.993  0.00  0.00    +0.039 C 
ATOM      4  C   UNL     1       6.196  -1.584  -0.272  0.00  0.00    +0.079 C 
ATOM      5  C   UNL     1       5.445  -1.057  -1.497  0.00  0.00    +0.039 C 
ATOM      6  C   UNL     1       3.958  -1.427  -1.377  0.00  0.00    +0.106 C 
ENDROOT
BRANCH   1  10
ATOM      7  C   UNL     1       0.077   1.521   0.037  0.00  0.00    +0.001 A 
ATOM      8  C   UNL     1       1.344   2.082  -0.001  0.00  0.00    +0.002 A 
ATOM      9  C   UNL     1       2.464   1.277  -0.044  0.00  0.00    +0.024 A 
ATOM     10  C   UNL     1       2.327  -0.106  -0.050  0.00  0.00    +0.042 A 
ATOM     11  C   UNL     1       1.046  -0.677  -0.011  0.00  0.00    +0.058 A 
ATOM     12  C   UNL     1      -0.078   0.152   0.033  0.00  0.00    +0.015 A 
BRANCH  11  13
ATOM     13  C   UNL     1       0.886  -2.142  -0.017  0.00  0.00    +0.246 C 
ATOM     14  O   UNL     1       1.865  -2.861   0.048  0.00  0.00    -0.270 OA
ATOM     15  N   UNL     1      -0.344  -2.686  -0.095  0.00  0.00    -0.311 N 
ATOM     16  H   UNL     1      -1.125  -2.113  -0.147  0.00  0.00    +0.149 HD
BRANCH  15  17
ATOM     17  C   UNL     1      -0.503  -4.143  -0.101  0.00  0.00    +0.108 C 
BRANCH  17  18
ATOM     18  C   UNL     1      -1.989  -4.494  -0.196  0.00  0.00    +0.006 C 
ATOM     19  C   UNL     1      -2.708  -4.014   1.067  0.00  0.00    +0.005 C 
ATOM     20  C   UNL     1      -4.194  -4.365   0.972  0.00  0.00    +0.000 C 
ATOM     21  C   UNL     1      -4.353  -5.881   0.840  0.00  0.00    +0.000 C 
ATOM     22  C   UNL     1      -3.634  -6.361  -0.422  0.00  0.00    +0.000 C 
ATOM     23  C   UNL     1      -2.147  -6.010  -0.328  0.00  0.00    +0.005 C 
ENDBRANCH  17  18
ENDBRANCH  15  17
ENDBRANCH  11  13
ENDBRANCH   1  10
BRANCH   4  24
ATOM     24  N   UNL     1       7.620  -1.266  -0.398  0.00  0.00    -0.187 NA
ATOM     25  H   UNL     1       7.951  -0.400  -0.112  0.00  0.00    +0.148 HD
BRANCH  24  26
ATOM     26  S   UNL     1       8.665  -2.384  -1.030  0.00  0.00    +0.059 S 
ATOM     27  O   UNL     1       9.950  -1.776  -1.046  0.00  0.00    -0.153 OA
ATOM     28  O   UNL     1       8.410  -3.607  -0.353  0.00  0.00    -0.153 OA
BRANCH  26  29
ATOM     29  C   UNL     1       8.206  -2.634  -2.713  0.00  0.00    +0.105 A 
ATOM     30  C   UNL     1       7.281  -3.608  -3.039  0.00  0.00    +0.031 A 
ATOM     31  C   UNL     1       6.920  -3.805  -4.358  0.00  0.00    +0.040 A 
ATOM     32  C   UNL     1       7.484  -3.026  -5.354  0.00  0.00    +0.124 A 
ATOM     33  C   UNL     1       8.411  -2.050  -5.026  0.00  0.00    +0.040 A 
ATOM     34  C   UNL     1       8.766  -1.851  -3.705  0.00  0.00    +0.031 A 
ATOM     35  F   UNL     1       7.132  -3.217  -6.644  0.00  0.00    -0.205 F 
ENDBRANCH  26  29
ENDBRANCH  24  26
ENDBRANCH   4  24
TORSDOF 7
