REMARK  Name = ZINC39352635
REMARK  15 active torsions:
REMARK  status: ('A' for Active; 'I' for Inactive)
REMARK    1  A    between atoms: C_1  and  C_2
REMARK    2  A    between atoms: C_3  and  C_4
REMARK    3  A    between atoms: C_3  and  C_5
REMARK    4  A    between atoms: C_5  and  N_6
REMARK    5  A    between atoms: N_6  and  C_7
REMARK    6  A    between atoms: N_13  and  C_28
REMARK    7  A    between atoms: C_14  and  C_24
REMARK    8  A    between atoms: C_16  and  N_18
REMARK    9  A    between atoms: C_19  and  C_21
REMARK   10  A    between atoms: C_21  and  O_22
REMARK   11  A    between atoms: O_22  and  C_23
REMARK   12  A    between atoms: C_24  and  O_26
REMARK   13  A    between atoms: O_26  and  C_27
REMARK   14  A    between atoms: C_28  and  C_29
REMARK   15  A    between atoms: C_29  and  C_30
REMARK                            x       y       z     vdW  Elec       q    Type
REMARK                         _______ _______ _______ _____ _____    ______ ____
ROOT
ATOM      1  C   UNL     1      -0.088  -4.182  -2.009  0.00  0.00    +0.044 A 
ATOM      2  C   UNL     1      -1.283  -4.522  -2.643  0.00  0.00    +0.033 A 
ATOM      3  C   UNL     1      -1.622  -5.858  -2.737  0.00  0.00    +0.015 A 
ATOM      4  C   UNL     1      -0.782  -6.827  -2.207  0.00  0.00    +0.105 A 
ATOM      5  N   UNL     1       0.351  -6.459  -1.609  0.00  0.00    -0.348 N 
ATOM      6  C   UNL     1       0.711  -5.197  -1.505  0.00  0.00    +0.107 A 
ATOM      7  N   UNL     1      -1.294  -8.108  -2.401  0.00  0.00    -0.301 N 
ATOM      8  C   UNL     1      -2.574  -8.039  -3.111  0.00  0.00    +0.208 C 
ATOM      9  C   UNL     1      -2.822  -6.541  -3.351  0.00  0.00    +0.138 C 
ATOM     10  H   UNL     1       0.931  -7.144  -1.242  0.00  0.00    +0.167 HD
ENDROOT
BRANCH   9  11
ATOM     11  N   UNL     1      -2.893  -6.258  -4.787  0.00  0.00    -0.304 N 
ATOM     12  C   UNL     1      -3.514  -5.144  -5.224  0.00  0.00    +0.239 C 
ATOM     13  O   UNL     1      -4.014  -4.377  -4.429  0.00  0.00    -0.273 OA
ATOM     14  H   UNL     1      -2.493  -6.872  -5.422  0.00  0.00    +0.149 HD
BRANCH  12  15
ATOM     15  C   UNL     1      -3.587  -4.853  -6.701  0.00  0.00    +0.255 C 
BRANCH  15  16
ATOM     16  O   UNL     1      -4.289  -3.626  -6.910  0.00  0.00    -0.374 OA
ATOM     17  C   UNL     1      -4.415  -3.256  -8.285  0.00  0.00    +0.194 C 
ENDBRANCH  15  16
ENDBRANCH  12  15
ENDBRANCH   9  11
BRANCH   1  18
ATOM     18  N   UNL     1       0.299  -2.842  -1.888  0.00  0.00    -0.339 N 
ATOM     19  H   UNL     1      -0.267  -2.139  -2.244  0.00  0.00    +0.146 HD
BRANCH  18  20
ATOM     20  C   UNL     1       1.560  -2.501  -1.224  0.00  0.00    +0.132 C 
BRANCH  20  23
ATOM     21  C   UNL     1       1.546   1.198  -0.193  0.00  0.00    +0.035 C 
ATOM     22  C   UNL     1       1.366  -0.298  -0.190  0.00  0.00    -0.030 C 
ATOM     23  C   UNL     1       1.741  -1.005  -1.227  0.00  0.00    -0.060 C 
ATOM     24  C   UNL     1       2.353  -0.322  -2.423  0.00  0.00    +0.040 C 
ENDBRANCH  20  23
ENDBRANCH  18  20
ENDBRANCH   1  18
BRANCH   8  25
ATOM     25  C   UNL     1      -3.675  -8.623  -2.263  0.00  0.00    +0.330 C 
ATOM     26  O   UNL     1      -3.574  -8.624  -1.058  0.00  0.00    -0.249 OA
BRANCH  25  27
ATOM     27  O   UNL     1      -4.766  -9.144  -2.845  0.00  0.00    -0.467 OA
ATOM     28  C   UNL     1      -5.770  -9.680  -1.980  0.00  0.00    +0.280 C 
ENDBRANCH  25  27
ENDBRANCH   8  25
BRANCH   7  29
ATOM     29  C   UNL     1      -0.647  -9.346  -1.959  0.00  0.00    +0.112 C 
BRANCH  29  30
ATOM     30  C   UNL     1       0.321  -9.829  -3.041  0.00  0.00    +0.056 C 
BRANCH  30  31
ATOM     31  C   UNL     1       0.958 -11.123  -2.603  0.00  0.00    -0.021 A 
ATOM     32  C   UNL     1       0.403 -12.468  -2.773  0.00  0.00    +0.003 A 
ATOM     33  C   UNL     1      -0.774 -12.969  -3.333  0.00  0.00    +0.010 A 
ATOM     34  C   UNL     1      -1.004 -14.316  -3.337  0.00  0.00    +0.001 A 
ATOM     35  C   UNL     1      -0.078 -15.191  -2.786  0.00  0.00    +0.002 A 
ATOM     36  C   UNL     1       1.090 -14.718  -2.227  0.00  0.00    +0.026 A 
ATOM     37  C   UNL     1       1.345 -13.351  -2.214  0.00  0.00    +0.047 A 
ATOM     38  N   UNL     1       2.389 -12.586  -1.744  0.00  0.00    -0.360 N 
ATOM     39  C   UNL     1       2.143 -11.263  -1.990  0.00  0.00    +0.087 A 
ATOM     40  H   UNL     1       3.182 -12.934  -1.307  0.00  0.00    +0.165 HD
ENDBRANCH  30  31
ENDBRANCH  29  30
ENDBRANCH   7  29
TORSDOF 11
