REMARK  Name = ZINC39311744
REMARK  7 active torsions:
REMARK  status: ('A' for Active; 'I' for Inactive)
REMARK    1  A    between atoms: C_1  and  C_2
REMARK    2  A    between atoms: C_7  and  C_9
REMARK    3  A    between atoms: C_7  and  C_10
REMARK    4  A    between atoms: N_11  and  C_13
REMARK    5  A    between atoms: C_13  and  N_14
REMARK    6  A    between atoms: N_22  and  N_23
REMARK    7  A    between atoms: C_24  and  C_26
REMARK                            x       y       z     vdW  Elec       q    Type
REMARK                         _______ _______ _______ _____ _____    ______ ____
ROOT
ATOM      1  N   UNL     1      -3.509  -2.722  -0.667  0.00  0.00    -0.282 N 
ATOM      2  C   UNL     1      -4.219  -2.078   0.341  0.00  0.00    +0.044 A 
ATOM      3  C   UNL     1      -3.817  -1.558   1.566  0.00  0.00    +0.025 A 
ATOM      4  C   UNL     1      -4.739  -0.958   2.400  0.00  0.00    +0.017 A 
ATOM      5  C   UNL     1      -6.071  -0.866   2.030  0.00  0.00    +0.019 A 
ATOM      6  C   UNL     1      -6.488  -1.377   0.816  0.00  0.00    +0.027 A 
ATOM      7  C   UNL     1      -5.566  -1.983  -0.030  0.00  0.00    +0.029 A 
ATOM      8  C   UNL     1      -5.679  -2.618  -1.364  0.00  0.00    +0.153 C 
ATOM      9  N   UNL     1      -6.759  -2.755  -2.094  0.00  0.00    -0.174 NA
ATOM     10  C   UNL     1      -4.308  -3.057  -1.694  0.00  0.00    +0.270 C 
ATOM     11  O   UNL     1      -3.964  -3.623  -2.715  0.00  0.00    -0.268 OA
ATOM     12 BR   UNL     1      -7.318  -0.040   3.187  0.00  0.00    -0.050 Br
ENDROOT
BRANCH   9  13
ATOM     13  N   UNL     1      -6.685  -3.386  -3.343  0.00  0.00    -0.201 N 
ATOM     14  C   UNL     1      -7.795  -3.527  -4.094  0.00  0.00    +0.282 C 
ATOM     15  O   UNL     1      -8.861  -3.107  -3.688  0.00  0.00    -0.267 OA
ATOM     16  H   UNL     1      -5.834  -3.721  -3.667  0.00  0.00    +0.178 HD
BRANCH  14  17
ATOM     17  C   UNL     1      -7.717  -4.194  -5.413  0.00  0.00    +0.127 A 
ATOM     18  C   UNL     1      -8.868  -4.332  -6.188  0.00  0.00    +0.033 A 
ATOM     19  C   UNL     1      -8.778  -4.958  -7.420  0.00  0.00    +0.004 A 
ATOM     20  C   UNL     1      -7.541  -5.425  -7.837  0.00  0.00    +0.020 A 
ATOM     21  C   UNL     1      -6.438  -5.253  -7.016  0.00  0.00    +0.111 A 
ATOM     22  N   UNL     1      -6.550  -4.651  -5.852  0.00  0.00    -0.250 NA
ENDBRANCH  14  17
ENDBRANCH   9  13
BRANCH   1  23
ATOM     23  C   UNL     1      -2.070  -2.994  -0.618  0.00  0.00    +0.039 C 
BRANCH  23  33
ATOM     24  C   UNL     1      -0.142   1.522  -0.837  0.00  0.00    +0.009 C 
ATOM     25  C   UNL     1      -0.069   0.014  -0.558  0.00  0.00    -0.048 C 
ATOM     26  C   UNL     1       0.677  -0.759  -1.679  0.00  0.00    -0.011 C 
ATOM     27  C   UNL     1       0.095  -2.180  -1.437  0.00  0.00    -0.065 C 
ATOM     28  C   UNL     1       0.729  -2.731  -0.176  0.00  0.00    -0.009 C 
ATOM     29  C   UNL     1       0.851  -1.791   1.003  0.00  0.00    -0.036 C 
ATOM     30  C   UNL     1       0.656  -0.310   0.749  0.00  0.00    +0.011 C 
ATOM     31  C   UNL     1      -0.110  -2.242   2.120  0.00  0.00    +0.011 C 
ATOM     32  C   UNL     1       2.281  -1.967   1.578  0.00  0.00    +0.011 C 
ATOM     33  N   UNL     1      -1.348  -1.910  -1.272  0.00  0.00    +0.393 N 
ATOM     34  C   UNL     1      -1.466  -0.646  -0.522  0.00  0.00    -0.070 C 
ATOM     35  H   UNL     1      -1.753  -1.763  -2.199  0.00  0.00    -0.079 HD
ENDBRANCH  23  33
ENDBRANCH   1  23
TORSDOF 4
