REMARK  Name = ZINC06882346
REMARK  4 active torsions:
REMARK  status: ('A' for Active; 'I' for Inactive)
REMARK    1  A    between atoms: N_7  and  C_12
REMARK    2  A    between atoms: C_12  and  C_13
REMARK    3  A    between atoms: N_15  and  C_16
REMARK    4  A    between atoms: C_17  and  C_25
REMARK                            x       y       z     vdW  Elec       q    Type
REMARK                         _______ _______ _______ _____ _____    ______ ____
ROOT
ATOM      1  C   UNL     1      -2.366   2.062   0.026  0.00  0.00    +0.235 C 
ATOM      2  O   UNL     1      -2.527   0.860   0.020  0.00  0.00    -0.274 OA
ATOM      3  N   UNL     1      -1.119   2.575   0.022  0.00  0.00    -0.278 N 
ATOM      4  H   UNL     1      -0.991   3.537   0.026  0.00  0.00    +0.155 HD
ENDROOT
BRANCH   3   5
ATOM      5  C   UNL     1      -0.021   1.728   0.011  0.00  0.00    +0.084 A 
ATOM      6  C   UNL     1       1.325   2.063   0.001  0.00  0.00    +0.068 A 
ATOM      7  C   UNL     1       2.288   0.974  -0.014  0.00  0.00    -0.023 A 
ATOM      8  C   UNL     1       1.753  -0.266  -0.016  0.00  0.00    -0.004 A 
ATOM      9  S   UNL     1       0.002  -0.004   0.002  0.00  0.00    -0.077 S 
ATOM     10  C   UNL     1       2.492  -1.568  -0.031  0.00  0.00    +0.043 C 
ATOM     11  C   UNL     1       3.951  -1.292  -0.422  0.00  0.00    +0.005 C 
ATOM     12  C   UNL     1       4.473  -0.121   0.416  0.00  0.00    +0.005 C 
ATOM     13  C   UNL     1       3.798   1.178  -0.027  0.00  0.00    +0.037 C 
BRANCH   6  14
ATOM     14  C   UNL     1       1.761   3.463   0.004  0.00  0.00    +0.244 C 
ATOM     15  O   UNL     1       1.952   4.038   1.059  0.00  0.00    -0.270 OA
ATOM     16  N   UNL     1       1.950   4.113  -1.162  0.00  0.00    -0.325 N 
ATOM     17  H   UNL     1       1.797   3.654  -2.003  0.00  0.00    +0.145 HD
ATOM     18  H   UNL     1       2.238   5.039  -1.160  0.00  0.00    +0.145 HD
ENDBRANCH   6  14
ENDBRANCH   3   5
BRANCH   1  19
ATOM     19  C   UNL     1      -3.559   2.983   0.037  0.00  0.00    +0.209 C 
BRANCH  19  26
ATOM     20  C   UNL     1      -5.323   1.524  -3.544  0.00  0.00    +0.002 A 
ATOM     21  C   UNL     1      -6.627   1.064  -3.531  0.00  0.00    +0.004 A 
ATOM     22  C   UNL     1      -7.317   0.966  -2.340  0.00  0.00    +0.047 A 
ATOM     23  C   UNL     1      -6.708   1.343  -1.155  0.00  0.00    +0.143 A 
ATOM     24  C   UNL     1      -5.397   1.812  -1.168  0.00  0.00    +0.079 A 
ATOM     25  C   UNL     1      -4.705   1.898  -2.365  0.00  0.00    +0.027 A 
ATOM     26  N   UNL     1      -4.789   2.187   0.039  0.00  0.00    -0.257 N 
ATOM     27  C   UNL     1      -5.359   1.809   1.204  0.00  0.00    +0.258 C 
ATOM     28  O   UNL     1      -4.871   2.151   2.260  0.00  0.00    -0.271 OA
ATOM     29  C   UNL     1      -6.604   0.959   1.186  0.00  0.00    +0.325 C 
ATOM     30  O   UNL     1      -7.379   1.266   0.025  0.00  0.00    -0.481 OA
ENDBRANCH  19  26
ENDBRANCH   1  19
TORSDOF 4
