REMARK  Name = ZINC38737878
REMARK  13 active torsions:
REMARK  status: ('A' for Active; 'I' for Inactive)
REMARK    1  A    between atoms: C_1  and  C_2
REMARK    2  A    between atoms: C_5  and  S_8
REMARK    3  A    between atoms: S_8  and  N_11
REMARK    4  A    between atoms: N_11  and  C_12
REMARK    5  A    between atoms: C_15  and  N_18
REMARK    6  A    between atoms: C_19  and  C_21
REMARK    7  A    between atoms: N_27  and  C_28
REMARK    8  A    between atoms: C_28  and  C_29
REMARK    9  A    between atoms: C_31  and  C_37
REMARK   10  A    between atoms: C_34  and  O_35
REMARK   11  A    between atoms: O_35  and  C_36
REMARK   12  A    between atoms: C_37  and  C_38
REMARK   13  A    between atoms: C_37  and  C_39
REMARK                            x       y       z     vdW  Elec       q    Type
REMARK                         _______ _______ _______ _____ _____    ______ ____
ROOT
ATOM      1  N   UNL     1       6.001  -3.746   3.634  0.00  0.00    -0.287 N 
ATOM      2  C   UNL     1       6.304  -4.942   4.176  0.00  0.00    +0.204 C 
ATOM      3  O   UNL     1       6.105  -5.961   3.549  0.00  0.00    -0.277 OA
ATOM      4  H   UNL     1       6.226  -2.929   4.105  0.00  0.00    +0.155 HD
ENDROOT
BRANCH   2   5
ATOM      5  C   UNL     1       6.891  -5.014   5.562  0.00  0.00    +0.020 C 
ATOM      6  C   UNL     1       5.761  -5.087   6.591  0.00  0.00    -0.006 C 
ATOM      7  C   UNL     1       6.362  -5.160   7.998  0.00  0.00    -0.003 C 
ATOM      8  C   UNL     1       7.300  -6.367   8.079  0.00  0.00    -0.019 C 
ATOM      9  C   UNL     1       8.374  -6.246   6.996  0.00  0.00    -0.077 C 
ATOM     10  N   UNL     1       7.737  -6.208   5.674  0.00  0.00    +0.390 N 
ATOM     11  H   UNL     1       7.169  -7.034   5.551  0.00  0.00    -0.080 HD
BRANCH  10  12
ATOM     12  C   UNL     1       8.773  -6.172   4.634  0.00  0.00    -0.038 C 
BRANCH  12  13
ATOM     13  C   UNL     1       9.545  -7.466   4.648  0.00  0.00    -0.022 A 
ATOM     14  C   UNL     1       9.181  -8.498   3.804  0.00  0.00    +0.009 A 
ATOM     15  C   UNL     1       9.889  -9.685   3.817  0.00  0.00    -0.044 A 
ATOM     16  C   UNL     1      10.962  -9.844   4.674  0.00  0.00    +0.007 A 
ATOM     17  C   UNL     1      11.331  -8.816   5.519  0.00  0.00    +0.046 A 
ATOM     18  C   UNL     1      10.625  -7.621   5.504  0.00  0.00    +0.121 A 
BRANCH  15  19
ATOM     19  C   UNL     1       9.489 -10.809   2.896  0.00  0.00    +0.013 C 
ATOM     20  C   UNL     1      10.657 -11.147   1.967  0.00  0.00    +0.012 C 
ATOM     21  C   UNL     1       9.123 -12.042   3.725  0.00  0.00    +0.012 C 
ENDBRANCH  15  19
BRANCH  18  22
ATOM     22  O   UNL     1      10.989  -6.605   6.331  0.00  0.00    -0.495 OA
ATOM     23  C   UNL     1      12.111  -6.835   7.186  0.00  0.00    +0.277 C 
ENDBRANCH  18  22
ENDBRANCH  12  13
ENDBRANCH  10  12
ENDBRANCH   2   5
BRANCH   1  27
ATOM     24  C   UNL     1       4.095  -3.560  -0.071  0.00  0.00    +0.048 A 
ATOM     25  C   UNL     1       3.807  -4.597   0.806  0.00  0.00    +0.026 A 
ATOM     26  C   UNL     1       4.439  -4.659   2.033  0.00  0.00    +0.025 A 
ATOM     27  C   UNL     1       5.361  -3.684   2.389  0.00  0.00    +0.033 A 
ATOM     28  C   UNL     1       5.648  -2.646   1.512  0.00  0.00    +0.025 A 
ATOM     29  C   UNL     1       5.021  -2.588   0.283  0.00  0.00    +0.026 A 
BRANCH  24  30
ATOM     30  N   UNL     1       3.455  -3.497  -1.314  0.00  0.00    -0.216 N 
ATOM     31  H   UNL     1       3.096  -2.654  -1.632  0.00  0.00    +0.174 HD
BRANCH  30  32
ATOM     32  S   UNL     1       3.311  -4.862  -2.241  0.00  0.00    +0.072 S 
ATOM     33  O   UNL     1       2.708  -4.461  -3.463  0.00  0.00    -0.150 OA
ATOM     34  O   UNL     1       2.746  -5.863  -1.405  0.00  0.00    -0.150 OA
BRANCH  32  39
ATOM     35  C   UNL     1       8.896  -6.699  -3.597  0.00  0.00    +0.044 C 
ATOM     36  C   UNL     1       7.501  -6.240  -3.258  0.00  0.00    -0.050 A 
ATOM     37  C   UNL     1       6.911  -6.638  -2.073  0.00  0.00    +0.005 A 
ATOM     38  C   UNL     1       5.631  -6.217  -1.762  0.00  0.00    +0.029 A 
ATOM     39  C   UNL     1       4.942  -5.398  -2.636  0.00  0.00    +0.109 A 
ATOM     40  C   UNL     1       5.532  -4.999  -3.821  0.00  0.00    +0.029 A 
ATOM     41  C   UNL     1       6.814  -5.416  -4.130  0.00  0.00    +0.005 A 
ENDBRANCH  32  39
ENDBRANCH  30  32
ENDBRANCH  24  30
ENDBRANCH   1  27
TORSDOF 9
