REMARK  Name = ZINC67529348
REMARK  7 active torsions:
REMARK  status: ('A' for Active; 'I' for Inactive)
REMARK    1  A    between atoms: C_1  and  C_2
REMARK    2  A    between atoms: C_5  and  C_7
REMARK    3  A    between atoms: C_10  and  C_12
REMARK    4  A    between atoms: C_12  and  N_13
REMARK    5  A    between atoms: C_14  and  C_16
REMARK    6  A    between atoms: N_18  and  C_19
REMARK    7  A    between atoms: C_22  and  N_26
REMARK                            x       y       z     vdW  Elec       q    Type
REMARK                         _______ _______ _______ _____ _____    ______ ____
ROOT
ATOM      1  C   UNL     1      -4.172  -6.700  -0.365  0.00  0.00    +0.303 C 
ATOM      2  O   UNL     1      -4.843  -5.689  -0.380  0.00  0.00    -0.265 OA
ATOM      3  N   UNL     1      -4.686  -7.856  -0.830  0.00  0.00    -0.278 N 
ATOM      4  H   UNL     1      -4.131  -8.650  -0.876  0.00  0.00    +0.155 HD
ENDROOT
BRANCH   3   5
ATOM      5  C   UNL     1      -6.020  -7.911  -1.244  0.00  0.00    +0.035 A 
ATOM      6  C   UNL     1      -6.598  -6.816  -1.874  0.00  0.00    +0.025 A 
ATOM      7  C   UNL     1      -7.915  -6.870  -2.283  0.00  0.00    +0.031 A 
ATOM      8  C   UNL     1      -8.663  -8.019  -2.065  0.00  0.00    +0.084 A 
ATOM      9  C   UNL     1      -8.087  -9.115  -1.434  0.00  0.00    +0.068 A 
ATOM     10  C   UNL     1      -6.767  -9.063  -1.030  0.00  0.00    +0.045 A 
ATOM     11 CL   UNL     1      -9.023 -10.551  -1.161  0.00  0.00    -0.081 Cl
BRANCH   8  12
ATOM     12  N   UNL     1     -10.002  -8.073  -2.481  0.00  0.00    -0.238 N 
ATOM     13  C   UNL     1     -10.468  -7.742  -3.706  0.00  0.00    +0.114 A 
ATOM     14  C   UNL     1     -11.808  -7.933  -3.702  0.00  0.00    +0.041 A 
ATOM     15  C   UNL     1     -12.174  -8.395  -2.433  0.00  0.00    +0.135 A 
ATOM     16  N   UNL     1     -11.091  -8.486  -1.703  0.00  0.00    -0.175 NA
ENDBRANCH   8  12
ENDBRANCH   3   5
BRANCH   1  18
ATOM     17  N   UNL     1      -2.264  -5.509   0.633  0.00  0.00    -0.300 N 
ATOM     18  C   UNL     1      -2.778  -6.665   0.168  0.00  0.00    +0.300 C 
ATOM     19  O   UNL     1      -2.107  -7.676   0.183  0.00  0.00    -0.265 OA
ATOM     20  H   UNL     1      -2.799  -4.700   0.621  0.00  0.00    +0.150 HD
BRANCH  17  21
ATOM     21  C   UNL     1      -0.895  -5.473   1.156  0.00  0.00    +0.179 C 
BRANCH  21  25
ATOM     22  C   UNL     1       0.132  -1.995   1.579  0.00  0.00    +0.109 A 
ATOM     23  C   UNL     1      -0.319  -2.237   2.823  0.00  0.00    +0.045 A 
ATOM     24  C   UNL     1      -0.769  -3.577   2.841  0.00  0.00    +0.046 A 
ATOM     25  C   UNL     1      -0.566  -4.074   1.608  0.00  0.00    +0.122 A 
ATOM     26  O   UNL     1      -0.025  -3.109   0.846  0.00  0.00    -0.463 OA
BRANCH  22  30
ATOM     27  C   UNL     1      -0.025   1.536  -0.067  0.00  0.00    +0.008 C 
ATOM     28  C   UNL     1      -0.002   0.006  -0.070  0.00  0.00    -0.003 C 
ATOM     29  C   UNL     1       1.346  -0.680  -0.303  0.00  0.00    +0.015 C 
ATOM     30  C   UNL     1       0.711  -0.693   1.089  0.00  0.00    +0.058 C 
ENDBRANCH  22  30
ENDBRANCH  21  25
ENDBRANCH  17  21
ENDBRANCH   1  18
TORSDOF 6
