REMARK  Name = ZINC57228475
REMARK  5 active torsions:
REMARK  status: ('A' for Active; 'I' for Inactive)
REMARK    1  A    between atoms: C_1  and  C_2
REMARK    2  A    between atoms: C_3  and  N_11
REMARK    3  A    between atoms: C_7  and  N_8
REMARK    4  A    between atoms: C_12  and  C_14
REMARK    5  A    between atoms: C_14  and  C_20
REMARK                            x       y       z     vdW  Elec       q    Type
REMARK                         _______ _______ _______ _____ _____    ______ ____
ROOT
ATOM      1  N   UNL     1      -0.440  -1.166  -2.878  0.00  0.00    -0.284 N 
ATOM      2  C   UNL     1      -0.840  -2.128  -3.733  0.00  0.00    +0.228 C 
ATOM      3  O   UNL     1      -0.876  -3.284  -3.370  0.00  0.00    -0.274 OA
ATOM      4  H   UNL     1      -0.395  -0.243  -3.173  0.00  0.00    +0.155 HD
ENDROOT
BRANCH   1   7
ATOM      5  C   UNL     1      -0.658   0.846  -0.877  0.00  0.00    +0.048 C 
ATOM      6  C   UNL     1      -0.181  -0.547  -0.558  0.00  0.00    +0.001 A 
ATOM      7  C   UNL     1      -0.088  -1.498  -1.565  0.00  0.00    +0.038 A 
ATOM      8  C   UNL     1       0.353  -2.781  -1.267  0.00  0.00    +0.024 A 
ATOM      9  C   UNL     1       0.698  -3.106   0.031  0.00  0.00    +0.004 A 
ATOM     10  C   UNL     1       0.605  -2.156   1.031  0.00  0.00    +0.033 A 
ATOM     11  C   UNL     1       0.171  -0.877   0.736  0.00  0.00    +0.131 A 
BRANCH  11  12
ATOM     12  N   UNL     1       0.079   0.139   1.809  0.00  0.00    +0.057 N 
ATOM     13  O   UNL     1       0.348   1.293   1.574  0.00  0.00    -0.126 OA
ATOM     14  O   UNL     1      -0.266  -0.187   2.921  0.00  0.00    -0.126 OA
ENDBRANCH  11  12
ENDBRANCH   1   7
BRANCH   2  15
ATOM     15  C   UNL     1      -1.243  -1.766  -5.139  0.00  0.00    +0.076 C 
ATOM     16  C   UNL     1      -0.161  -0.885  -5.772  0.00  0.00    +0.049 C 
ATOM     17  C   UNL     1       1.143  -1.681  -5.865  0.00  0.00    +0.161 C 
ATOM     18  O   UNL     1       0.921  -2.870  -6.626  0.00  0.00    -0.380 OA
ATOM     19  C   UNL     1      -0.047  -3.755  -6.057  0.00  0.00    +0.161 C 
ATOM     20  C   UNL     1      -1.399  -3.042  -5.972  0.00  0.00    +0.049 C 
BRANCH  15  21
ATOM     21  C   UNL     1      -2.552  -1.019  -5.112  0.00  0.00    -0.032 A 
ATOM     22  C   UNL     1      -3.706  -1.629  -5.566  0.00  0.00    +0.006 A 
ATOM     23  C   UNL     1      -4.906  -0.945  -5.542  0.00  0.00    +0.020 A 
ATOM     24  C   UNL     1      -4.952   0.352  -5.063  0.00  0.00    +0.041 A 
ATOM     25  C   UNL     1      -3.797   0.963  -4.608  0.00  0.00    +0.020 A 
ATOM     26  C   UNL     1      -2.598   0.275  -4.628  0.00  0.00    +0.006 A 
ATOM     27 CL   UNL     1      -6.460   1.214  -5.032  0.00  0.00    -0.084 Cl
ENDBRANCH  15  21
ENDBRANCH   2  15
TORSDOF 4
