REMARK  Name = ZINC20322111
REMARK  5 active torsions:
REMARK  status: ('A' for Active; 'I' for Inactive)
REMARK    1  A    between atoms: C_10  and  N_22
REMARK    2  A    between atoms: C_12  and  N_16
REMARK    3  A    between atoms: N_22  and  C_23
REMARK    4  A    between atoms: C_23  and  C_24
REMARK    5  A    between atoms: C_24  and  N_25
REMARK                            x       y       z     vdW  Elec       q    Type
REMARK                         _______ _______ _______ _____ _____    ______ ____
ROOT
ATOM      1  C   UNL     1     -12.980  -6.666   2.642  0.00  0.00    +0.001 A 
ATOM      2  C   UNL     1     -12.066  -7.144   1.711  0.00  0.00    +0.001 A 
ATOM      3  C   UNL     1     -10.829  -6.558   1.577  0.00  0.00    +0.012 A 
ATOM      4  C   UNL     1     -10.475  -5.468   2.381  0.00  0.00    +0.033 A 
ATOM      5  C   UNL     1     -11.409  -4.984   3.330  0.00  0.00    +0.031 A 
ATOM      6  C   UNL     1     -12.660  -5.598   3.446  0.00  0.00    +0.012 A 
ATOM      7  C   UNL     1     -11.053  -3.847   4.177  0.00  0.00    +0.176 A 
ATOM      8  C   UNL     1      -9.800  -3.325   3.972  0.00  0.00    +0.063 A 
ATOM      9  C   UNL     1      -8.801  -3.758   3.034  0.00  0.00    +0.056 A 
ATOM     10  C   UNL     1      -7.591  -3.046   3.024  0.00  0.00    +0.041 A 
ATOM     11  C   UNL     1      -7.404  -1.976   3.908  0.00  0.00    +0.049 A 
ATOM     12  C   UNL     1      -8.342  -1.531   4.818  0.00  0.00    +0.061 A 
ATOM     13  C   UNL     1      -9.640  -2.213   4.901  0.00  0.00    +0.136 A 
ATOM     14  N   UNL     1     -10.780  -2.201   5.533  0.00  0.00    -0.076 NA
ATOM     15  O   UNL     1     -11.552  -3.079   5.152  0.00  0.00    -0.353 OA
ATOM     16  C   UNL     1      -9.138  -4.858   2.212  0.00  0.00    +0.196 C 
ATOM     17  O   UNL     1      -8.349  -5.292   1.388  0.00  0.00    -0.287 OA
ENDROOT
BRANCH  12  18
ATOM     18  N   UNL     1      -8.062  -0.461   5.643  0.00  0.00    -0.328 N 
ATOM     19  C   UNL     1      -7.875   0.770   4.864  0.00  0.00    +0.105 C 
ATOM     20  C   UNL     1      -7.711   1.957   5.815  0.00  0.00    +0.019 C 
ATOM     21  C   UNL     1      -6.500   1.716   6.720  0.00  0.00    +0.003 C 
ATOM     22  C   UNL     1      -6.698   0.404   7.484  0.00  0.00    +0.019 C 
ATOM     23  C   UNL     1      -6.891  -0.739   6.485  0.00  0.00    +0.105 C 
ENDBRANCH  12  18
BRANCH  10  24
ATOM     24  N   UNL     1      -6.586  -3.404   2.150  0.00  0.00    -0.345 N 
ATOM     25  H   UNL     1      -6.733  -4.248   1.460  0.00  0.00    +0.146 HD
BRANCH  24  26
ATOM     26  C   UNL     1      -5.324  -2.661   2.142  0.00  0.00    +0.083 C 
BRANCH  26  27
ATOM     27  C   UNL     1      -4.388  -3.257   1.088  0.00  0.00    -0.060 C 
BRANCH  27  28
ATOM     28  N   UNL     1      -3.122  -2.512   1.079  0.00  0.00    +0.383 N 
ATOM     29  C   UNL     1      -2.293  -2.896  -0.071  0.00  0.00    -0.060 C 
ATOM     30  C   UNL     1      -0.954  -2.159   0.000  0.00  0.00    +0.088 C 
ATOM     31  N   UNL     1      -1.196  -0.709   0.010  0.00  0.00    -0.319 N 
ATOM     32  C   UNL     1      -2.025  -0.325   1.161  0.00  0.00    +0.088 C 
ATOM     33  C   UNL     1      -3.365  -1.063   1.090  0.00  0.00    -0.060 C 
ATOM     34  C   UNL     1       0.002  -0.004   0.002  0.00  0.00    +0.121 A 
ATOM     35  C   UNL     1      -0.017   1.387   0.010  0.00  0.00    +0.043 A 
ATOM     36  C   UNL     1       1.182   2.076   0.002  0.00  0.00    +0.005 A 
ATOM     37  C   UNL     1       2.365   1.348  -0.013  0.00  0.00    +0.020 A 
ATOM     38  C   UNL     1       2.310  -0.031  -0.020  0.00  0.00    +0.113 A 
ATOM     39  N   UNL     1       1.151  -0.662  -0.013  0.00  0.00    -0.240 NA
ATOM     40  H   UNL     1      -2.573  -2.771   1.996  0.00  0.00    -0.082 HD
ENDBRANCH  27  28
ENDBRANCH  26  27
ENDBRANCH  24  26
ENDBRANCH  10  24
TORSDOF 5
