REMARK  Name = ZINC36531473
REMARK  8 active torsions:
REMARK  status: ('A' for Active; 'I' for Inactive)
REMARK    1  A    between atoms: C_1  and  N_2
REMARK    2  A    between atoms: N_2  and  C_3
REMARK    3  A    between atoms: C_3  and  C_5
REMARK    4  A    between atoms: C_3  and  C_12
REMARK    5  A    between atoms: N_14  and  C_15
REMARK    6  A    between atoms: C_21  and  C_23
REMARK    7  A    between atoms: C_27  and  O_30
REMARK    8  A    between atoms: C_28  and  O_29
REMARK                            x       y       z     vdW  Elec       q    Type
REMARK                         _______ _______ _______ _____ _____    ______ ____
ROOT
ATOM      1  C   UNL     1      -0.059  -0.981   1.087  0.00  0.00    +0.192 C 
ENDROOT
BRANCH   1   2
ATOM      2  C   UNL     1      -1.344  -0.815   1.855  0.00  0.00    -0.018 A 
ATOM      3  C   UNL     1      -1.393   0.035   2.945  0.00  0.00    +0.007 A 
ATOM      4  C   UNL     1      -2.572   0.188   3.650  0.00  0.00    +0.020 A 
ATOM      5  C   UNL     1      -3.703  -0.509   3.265  0.00  0.00    +0.041 A 
ATOM      6  C   UNL     1      -3.654  -1.359   2.174  0.00  0.00    +0.020 A 
ATOM      7  C   UNL     1      -2.476  -1.507   1.466  0.00  0.00    +0.007 A 
ATOM      8 CL   UNL     1      -5.184  -0.318   4.150  0.00  0.00    -0.084 Cl
ENDBRANCH   1   2
BRANCH   1  10
ATOM      9  C   UNL     1      -0.209   1.414   0.263  0.00  0.00    +0.133 C 
ATOM     10  N   UNL     1      -0.017  -0.012  -0.011  0.00  0.00    -0.285 N 
ATOM     11  C   UNL     1       0.199  -0.433  -1.273  0.00  0.00    +0.251 C 
ATOM     12  O   UNL     1       0.322   0.377  -2.171  0.00  0.00    -0.270 OA
BRANCH  11  13
ATOM     13  C   UNL     1       0.286  -1.877  -1.565  0.00  0.00    +0.082 A 
ATOM     14  C   UNL     1       1.257  -2.663  -0.939  0.00  0.00    +0.017 A 
ATOM     15  C   UNL     1       1.335  -4.011  -1.213  0.00  0.00    +0.005 A 
ATOM     16  C   UNL     1       0.453  -4.594  -2.109  0.00  0.00    +0.049 A 
ATOM     17  C   UNL     1      -0.514  -3.829  -2.738  0.00  0.00    +0.159 A 
ATOM     18  C   UNL     1      -0.608  -2.467  -2.466  0.00  0.00    +0.171 A 
BRANCH  18  19
ATOM     19  O   UNL     1      -1.559  -1.714  -3.076  0.00  0.00    -0.503 OA
ATOM     20  H   UNL     1      -1.276  -1.328  -3.916  0.00  0.00    +0.292 HD
ENDBRANCH  18  19
BRANCH  17  21
ATOM     21  O   UNL     1      -1.375  -4.408  -3.616  0.00  0.00    -0.503 OA
ATOM     22  H   UNL     1      -2.186  -4.743  -3.209  0.00  0.00    +0.292 HD
ENDBRANCH  17  21
ENDBRANCH  11  13
ENDBRANCH   1  10
BRANCH   1  23
ATOM     23  C   UNL     1       1.111  -0.748   2.008  0.00  0.00    +0.238 C 
ATOM     24  O   UNL     1       1.902   0.141   1.771  0.00  0.00    -0.273 OA
ATOM     25  N   UNL     1       1.278  -1.526   3.096  0.00  0.00    -0.311 N 
ATOM     26  H   UNL     1       0.646  -2.236   3.285  0.00  0.00    +0.149 HD
BRANCH  25  27
ATOM     27  C   UNL     1       2.415  -1.298   3.991  0.00  0.00    +0.073 C 
ATOM     28  C   UNL     1       3.643  -2.037   3.454  0.00  0.00    +0.022 C 
ATOM     29  C   UNL     1       4.830  -1.800   4.390  0.00  0.00    +0.002 C 
ATOM     30  C   UNL     1       4.491  -2.322   5.787  0.00  0.00    +0.000 C 
ATOM     31  C   UNL     1       3.264  -1.584   6.324  0.00  0.00    +0.002 C 
ATOM     32  C   UNL     1       2.076  -1.821   5.389  0.00  0.00    +0.022 C 
ENDBRANCH  25  27
ENDBRANCH   1  23
TORSDOF 7
