REMARK  Name = ZINC40342725
REMARK  8 active torsions:
REMARK  status: ('A' for Active; 'I' for Inactive)
REMARK    1  A    between atoms: C_1  and  C_2
REMARK    2  A    between atoms: C_2  and  O_3
REMARK    3  A    between atoms: O_3  and  C_4
REMARK    4  A    between atoms: C_6  and  C_11
REMARK    5  A    between atoms: C_9  and  O_10
REMARK    6  A    between atoms: C_14  and  C_30
REMARK    7  A    between atoms: N_21  and  C_22
REMARK    8  A    between atoms: C_22  and  C_23
REMARK                            x       y       z     vdW  Elec       q    Type
REMARK                         _______ _______ _______ _____ _____    ______ ____
ROOT
ATOM      1  C   UNL     1       0.654  -4.954  -0.018  0.00  0.00    +0.142 C 
ATOM      2  C   UNL     1       0.901  -5.472  -1.408  0.00  0.00    +0.035 A 
ATOM      3  C   UNL     1       1.190  -5.174  -2.744  0.00  0.00    +0.099 A 
ATOM      4  N   UNL     1       1.250  -6.316  -3.400  0.00  0.00    -0.173 NA
ATOM      5  N   UNL     1       1.027  -7.306  -2.611  0.00  0.00    -0.272 N 
ATOM      6  H   UNL     1       1.021  -8.239  -2.875  0.00  0.00    +0.189 HD
ATOM      7  C   UNL     1       0.800  -6.849  -1.343  0.00  0.00    +0.126 A 
ATOM      8  C   UNL     1       0.496  -7.229   0.040  0.00  0.00    +0.266 C 
ATOM      9  O   UNL     1       0.345  -8.372   0.429  0.00  0.00    -0.268 OA
ATOM     10  N   UNL     1       0.410  -6.135   0.820  0.00  0.00    -0.281 N 
ENDROOT
BRANCH   3  11
ATOM     11  C   UNL     1       1.393  -3.820  -3.318  0.00  0.00    +0.003 A 
ATOM     12  C   UNL     1       0.662  -2.738  -2.832  0.00  0.00    +0.011 A 
ATOM     13  C   UNL     1       0.854  -1.481  -3.368  0.00  0.00    +0.020 A 
ATOM     14  C   UNL     1       1.770  -1.294  -4.389  0.00  0.00    +0.041 A 
ATOM     15  C   UNL     1       2.498  -2.366  -4.876  0.00  0.00    +0.020 A 
ATOM     16  C   UNL     1       2.318  -3.626  -4.341  0.00  0.00    +0.011 A 
ATOM     17 CL   UNL     1       2.006   0.289  -5.061  0.00  0.00    -0.084 Cl
ENDBRANCH   3  11
BRANCH   1  20
ATOM     18  C   UNL     1      -1.498  -1.849   0.006  0.00  0.00    +0.162 A 
ATOM     19  C   UNL     1      -0.389  -2.680  -0.003  0.00  0.00    +0.055 A 
ATOM     20  C   UNL     1      -0.553  -4.052  -0.008  0.00  0.00    -0.019 A 
ATOM     21  C   UNL     1      -1.823  -4.600  -0.005  0.00  0.00    +0.009 A 
ATOM     22  C   UNL     1      -2.934  -3.777   0.004  0.00  0.00    +0.049 A 
ATOM     23  C   UNL     1      -2.776  -2.400   0.016  0.00  0.00    +0.158 A 
BRANCH  23  24
ATOM     24  O   UNL     1      -3.868  -1.589   0.030  0.00  0.00    -0.503 OA
ATOM     25  H   UNL     1      -4.192  -1.350  -0.849  0.00  0.00    +0.292 HD
ENDBRANCH  23  24
BRANCH  18  26
ATOM     26  O   UNL     1      -1.339  -0.499   0.012  0.00  0.00    -0.489 OA
BRANCH  26  28
ATOM     27  C   UNL     1      -0.019   1.526   0.010  0.00  0.00    +0.048 C 
ATOM     28  C   UNL     1       0.002  -0.004   0.002  0.00  0.00    +0.226 C 
ENDBRANCH  26  28
ENDBRANCH  18  26
ENDBRANCH   1  20
BRANCH  10  29
ATOM     29  C   UNL     1       0.122  -6.123   2.256  0.00  0.00    +0.144 C 
BRANCH  29  30
ATOM     30  C   UNL     1      -1.367  -6.030   2.469  0.00  0.00    -0.030 A 
ATOM     31  C   UNL     1      -1.975  -4.793   2.567  0.00  0.00    +0.006 A 
ATOM     32  C   UNL     1      -3.341  -4.707   2.762  0.00  0.00    +0.020 A 
ATOM     33  C   UNL     1      -4.099  -5.860   2.860  0.00  0.00    +0.041 A 
ATOM     34  C   UNL     1      -3.490  -7.098   2.763  0.00  0.00    +0.020 A 
ATOM     35  C   UNL     1      -2.125  -7.183   2.562  0.00  0.00    +0.006 A 
ATOM     36 CL   UNL     1      -5.814  -5.753   3.106  0.00  0.00    -0.084 Cl
ENDBRANCH  29  30
ENDBRANCH  10  29
TORSDOF 7
