REMARK  Name = ZINC05679136
REMARK  3 active torsions:
REMARK  status: ('A' for Active; 'I' for Inactive)
REMARK    1  A    between atoms: C_4  and  N_18
REMARK    2  A    between atoms: C_5  and  C_7
REMARK    3  A    between atoms: N_9  and  C_10
REMARK                            x       y       z     vdW  Elec       q    Type
REMARK                         _______ _______ _______ _____ _____    ______ ____
ROOT
ATOM      1  C   UNL     1      -2.412  -0.308  -0.093  0.00  0.00    +0.251 C 
ATOM      2  O   UNL     1      -1.355  -0.909  -0.088  0.00  0.00    -0.270 OA
ATOM      3  N   UNL     1      -2.422   1.037   0.000  0.00  0.00    -0.279 N 
ATOM      4  H   UNL     1      -3.265   1.511   0.081  0.00  0.00    +0.155 HD
ENDROOT
BRANCH   3   5
ATOM      5  C   UNL     1      -1.217   1.749  -0.018  0.00  0.00    +0.069 A 
ATOM      6  C   UNL     1      -0.095   1.202  -0.625  0.00  0.00    +0.027 A 
ATOM      7  C   UNL     1       1.091   1.909  -0.647  0.00  0.00    +0.017 A 
ATOM      8  C   UNL     1       1.164   3.161  -0.062  0.00  0.00    +0.021 A 
ATOM      9  C   UNL     1       0.049   3.708   0.548  0.00  0.00    +0.055 A 
ATOM     10  C   UNL     1      -1.141   3.005   0.575  0.00  0.00    +0.146 A 
ATOM     11  F   UNL     1      -2.229   3.539   1.171  0.00  0.00    -0.204 F 
ATOM     12 BR   UNL     1       2.790   4.125  -0.096  0.00  0.00    -0.050 Br
ENDBRANCH   3   5
BRANCH   1  17
ATOM     13  C   UNL     1      -5.690  -1.577  -1.415  0.00  0.00    +0.001 A 
ATOM     14  C   UNL     1      -6.070  -2.443  -0.405  0.00  0.00    +0.002 A 
ATOM     15  C   UNL     1      -5.264  -2.617   0.706  0.00  0.00    +0.033 A 
ATOM     16  C   UNL     1      -4.074  -1.926   0.813  0.00  0.00    +0.138 A 
ATOM     17  C   UNL     1      -3.685  -1.051  -0.202  0.00  0.00    +0.067 A 
ATOM     18  C   UNL     1      -4.506  -0.877  -1.318  0.00  0.00    +0.015 A 
BRANCH  16  19
ATOM     19  N   UNL     1      -3.214  -2.112   2.003  0.00  0.00    +0.057 N 
ATOM     20  O   UNL     1      -3.595  -2.807   2.928  0.00  0.00    -0.126 OA
ATOM     21  O   UNL     1      -2.124  -1.571   2.057  0.00  0.00    -0.126 OA
ENDBRANCH  16  19
ENDBRANCH   1  17
TORSDOF 3
