REMARK  Name = ZINC59718220
REMARK  7 active torsions:
REMARK  status: ('A' for Active; 'I' for Inactive)
REMARK    1  A    between atoms: C_4  and  C_7
REMARK    2  A    between atoms: C_8  and  C_9
REMARK    3  A    between atoms: N_11  and  C_12
REMARK    4  A    between atoms: C_12  and  N_14
REMARK    5  A    between atoms: N_14  and  C_15
REMARK    6  A    between atoms: C_18  and  N_21
REMARK    7  A    between atoms: C_22  and  C_24
REMARK                            x       y       z     vdW  Elec       q    Type
REMARK                         _______ _______ _______ _____ _____    ______ ____
ROOT
ATOM      1  C   UNL     1       7.407  -6.826  -0.083  0.00  0.00    +0.033 A 
ATOM      2  C   UNL     1       8.642  -6.197   0.000  0.00  0.00    +0.025 A 
ATOM      3  C   UNL     1       9.798  -6.950   0.049  0.00  0.00    +0.025 A 
ATOM      4  C   UNL     1       9.726  -8.336   0.015  0.00  0.00    +0.034 A 
ATOM      5  C   UNL     1       8.490  -8.965  -0.068  0.00  0.00    +0.025 A 
ATOM      6  C   UNL     1       7.334  -8.213  -0.111  0.00  0.00    +0.025 A 
ENDROOT
BRANCH   4   7
ATOM      7  N   UNL     1      10.898  -9.100   0.063  0.00  0.00    -0.282 N 
ATOM      8  C   UNL     1      11.948  -8.678   0.796  0.00  0.00    +0.248 C 
ATOM      9  O   UNL     1      11.906  -7.597   1.351  0.00  0.00    -0.270 OA
ATOM     10  H   UNL     1      10.956  -9.933  -0.431  0.00  0.00    +0.155 HD
BRANCH   8  11
ATOM     11  C   UNL     1      13.149  -9.529   0.926  0.00  0.00    +0.037 A 
ATOM     12  C   UNL     1      13.201 -10.769   0.286  0.00  0.00    +0.014 A 
ATOM     13  C   UNL     1      14.325 -11.558   0.410  0.00  0.00    +0.016 A 
ATOM     14  C   UNL     1      15.399 -11.124   1.169  0.00  0.00    +0.018 A 
ATOM     15  C   UNL     1      15.353  -9.896   1.806  0.00  0.00    +0.016 A 
ATOM     16  C   UNL     1      14.237  -9.095   1.685  0.00  0.00    +0.014 A 
ATOM     17 BR   UNL     1      16.936 -12.213   1.335  0.00  0.00    -0.050 Br
ENDBRANCH   8  11
ENDBRANCH   4   7
BRANCH   1  18
ATOM     18  N   UNL     1       6.234  -6.062  -0.132  0.00  0.00    -0.297 N 
ATOM     19  H   UNL     1       6.142  -5.277   0.430  0.00  0.00    +0.154 HD
BRANCH  18  20
ATOM     20  C   UNL     1       5.233  -6.418  -0.961  0.00  0.00    +0.141 C 
ATOM     21  S   UNL     1       5.449  -7.715  -2.057  0.00  0.00    -0.018 S 
BRANCH  20  24
ATOM     22  C   UNL     1       3.060  -6.108  -1.756  0.00  0.00    +0.242 C 
ATOM     23  O   UNL     1       3.213  -7.030  -2.535  0.00  0.00    -0.270 OA
ATOM     24  N   UNL     1       4.061  -5.752  -0.927  0.00  0.00    -0.264 N 
ATOM     25  H   UNL     1       3.939  -5.017  -0.306  0.00  0.00    +0.157 HD
BRANCH  22  27
ATOM     26  C   UNL     1       0.786  -5.741  -2.550  0.00  0.00    +0.013 C 
ATOM     27  C   UNL     1       1.788  -5.385  -1.720  0.00  0.00    +0.068 C 
BRANCH  26  31
ATOM     28  C   UNL     1      -2.901  -3.646  -2.443  0.00  0.00    +0.000 A 
ATOM     29  C   UNL     1      -2.730  -4.694  -3.331  0.00  0.00    +0.001 A 
ATOM     30  C   UNL     1      -1.534  -5.380  -3.371  0.00  0.00    +0.008 A 
ATOM     31  C   UNL     1      -0.493  -5.014  -2.513  0.00  0.00    -0.025 A 
ATOM     32  C   UNL     1      -0.673  -3.954  -1.619  0.00  0.00    +0.008 A 
ATOM     33  C   UNL     1      -1.875  -3.278  -1.590  0.00  0.00    +0.001 A 
ENDBRANCH  26  31
ENDBRANCH  22  27
ENDBRANCH  20  24
ENDBRANCH  18  20
ENDBRANCH   1  18
TORSDOF 7
