REMARK  Name = ZINC63944514
REMARK  6 active torsions:
REMARK  status: ('A' for Active; 'I' for Inactive)
REMARK    1  A    between atoms: C_3  and  C_23
REMARK    2  A    between atoms: C_5  and  N_7
REMARK    3  A    between atoms: N_10  and  C_11
REMARK    4  A    between atoms: C_11  and  C_12
REMARK    5  A    between atoms: C_15  and  C_18
REMARK    6  A    between atoms: C_23  and  N_24
REMARK                            x       y       z     vdW  Elec       q    Type
REMARK                         _______ _______ _______ _____ _____    ______ ____
ROOT
ATOM      1  N   UNL     1       1.237  -2.080  -0.021  0.00  0.00    -0.269 N 
ATOM      2  C   UNL     1       0.087  -2.773   0.088  0.00  0.00    +0.304 C 
ATOM      3  O   UNL     1      -0.978  -2.185   0.102  0.00  0.00    -0.252 OA
ATOM      4  N   UNL     1       0.116  -4.117   0.181  0.00  0.00    -0.295 N 
ATOM      5  H   UNL     1       2.082  -2.551  -0.100  0.00  0.00    +0.156 HD
ATOM      6  H   UNL     1       0.965  -4.586   0.170  0.00  0.00    +0.151 HD
ENDROOT
BRANCH   1  11
ATOM      7  C   UNL     1       0.140   1.379  -0.616  0.00  0.00    +0.002 A 
ATOM      8  C   UNL     1       1.169   2.086  -0.021  0.00  0.00    +0.005 A 
ATOM      9  C   UNL     1       2.220   1.413   0.573  0.00  0.00    -0.026 A 
ATOM     10  C   UNL     1       2.246   0.032   0.575  0.00  0.00    +0.028 A 
ATOM     11  C   UNL     1       1.214  -0.681  -0.021  0.00  0.00    +0.035 A 
ATOM     12  C   UNL     1       0.159  -0.002  -0.617  0.00  0.00    +0.023 A 
BRANCH   9  13
ATOM     13  C   UNL     1       3.340   2.188   1.219  0.00  0.00    +0.161 C 
BRANCH  13  14
ATOM     14  N   UNL     1       3.018   2.428   2.628  0.00  0.00    -0.295 N 
ATOM     15  C   UNL     1       2.335   3.547   2.986  0.00  0.00    +0.092 A 
ATOM     16  C   UNL     1       2.044   3.755   4.298  0.00  0.00    +0.038 A 
ATOM     17  C   UNL     1       2.457   2.811   5.244  0.00  0.00    +0.118 A 
ATOM     18  N   UNL     1       3.117   1.739   4.855  0.00  0.00    -0.201 NA
ATOM     19  C   UNL     1       3.395   1.538   3.564  0.00  0.00    +0.349 A 
ATOM     20  O   UNL     1       4.003   0.535   3.230  0.00  0.00    -0.244 OA
ENDBRANCH  13  14
ENDBRANCH   9  13
ENDBRANCH   1  11
BRANCH   4  21
ATOM     21  C   UNL     1      -1.135  -4.870   0.300  0.00  0.00    +0.141 C 
BRANCH  21  22
ATOM     22  C   UNL     1      -0.828  -6.343   0.388  0.00  0.00    -0.030 A 
ATOM     23  C   UNL     1      -0.745  -7.099  -0.768  0.00  0.00    +0.006 A 
ATOM     24  C   UNL     1      -0.465  -8.448  -0.696  0.00  0.00    +0.010 A 
ATOM     25  C   UNL     1      -0.264  -9.050   0.550  0.00  0.00    -0.002 A 
ATOM     26  C   UNL     1      -0.350  -8.279   1.714  0.00  0.00    +0.010 A 
ATOM     27  C   UNL     1      -0.626  -6.931   1.625  0.00  0.00    +0.006 A 
BRANCH  25  28
ATOM     28  C   UNL     1       0.035 -10.489   0.637  0.00  0.00    +0.076 C 
ATOM     29  N   UNL     1       0.150 -11.329  -0.354  0.00  0.00    -0.154 NA
ATOM     30  N   UNL     1       0.439 -12.618   0.081  0.00  0.00    -0.161 NA
ATOM     31  C   UNL     1       0.529 -12.698   1.369  0.00  0.00    +0.114 C 
ATOM     32  C   UNL     1       0.278 -11.298   1.895  0.00  0.00    +0.107 C 
ENDBRANCH  25  28
ENDBRANCH  21  22
ENDBRANCH   4  21
TORSDOF 6
