REMARK  Name = ZINC59108316
REMARK  7 active torsions:
REMARK  status: ('A' for Active; 'I' for Inactive)
REMARK    1  A    between atoms: C_4  and  N_7
REMARK    2  A    between atoms: C_8  and  C_25
REMARK    3  A    between atoms: C_11  and  S_12
REMARK    4  A    between atoms: S_12  and  C_13
REMARK    5  A    between atoms: C_13  and  C_14
REMARK    6  A    between atoms: N_16  and  C_17
REMARK    7  A    between atoms: C_28  and  N_31
REMARK                            x       y       z     vdW  Elec       q    Type
REMARK                         _______ _______ _______ _____ _____    ______ ____
ROOT
ATOM      1  N   UNL     1       3.911  -0.237  -0.329  0.00  0.00    -0.270 N 
ATOM      2  C   UNL     1       4.304  -1.205  -1.226  0.00  0.00    +0.169 A 
ATOM      3  N   UNL     1       5.382  -1.771  -0.733  0.00  0.00    -0.128 NA
ATOM      4  N   UNL     1       5.685  -1.233   0.393  0.00  0.00    -0.122 NA
ATOM      5  C   UNL     1       4.824  -0.285   0.689  0.00  0.00    +0.197 A 
ENDROOT
BRANCH   1   9
ATOM      6  C   UNL     1       0.632   2.316  -0.654  0.00  0.00    +0.000 A 
ATOM      7  C   UNL     1       1.914   2.827  -0.731  0.00  0.00    +0.002 A 
ATOM      8  C   UNL     1       3.003   1.984  -0.623  0.00  0.00    +0.026 A 
ATOM      9  C   UNL     1       2.808   0.622  -0.438  0.00  0.00    +0.051 A 
ATOM     10  C   UNL     1       1.519   0.112  -0.361  0.00  0.00    +0.026 A 
ATOM     11  C   UNL     1       0.435   0.960  -0.469  0.00  0.00    +0.002 A 
ENDBRANCH   1   9
BRANCH   2  12
ATOM     12  C   UNL     1       3.639  -1.544  -2.502  0.00  0.00    +0.020 A 
ATOM     13  C   UNL     1       2.746  -0.645  -3.087  0.00  0.00    +0.014 A 
ATOM     14  C   UNL     1       2.128  -0.967  -4.277  0.00  0.00    +0.033 A 
ATOM     15  C   UNL     1       2.393  -2.178  -4.892  0.00  0.00    +0.126 A 
ATOM     16  C   UNL     1       3.277  -3.074  -4.318  0.00  0.00    +0.033 A 
ATOM     17  C   UNL     1       3.906  -2.761  -3.130  0.00  0.00    +0.014 A 
BRANCH  15  18
ATOM     18  N   UNL     1       1.726  -2.517  -6.170  0.00  0.00    +0.056 N 
ATOM     19  O   UNL     1       0.953  -1.736  -6.674  0.00  0.00    -0.126 OA
ATOM     20  O   UNL     1       1.955  -3.574  -6.709  0.00  0.00    -0.126 OA
ENDBRANCH  15  18
ENDBRANCH   2  12
BRANCH   5  21
ATOM     21  S   UNL     1       4.841   0.732   2.128  0.00  0.00    -0.076 S 
BRANCH  21  22
ATOM     22  C   UNL     1       6.294   0.160   3.052  0.00  0.00    +0.173 C 
BRANCH  22  23
ATOM     23  C   UNL     1       6.426   0.958   4.323  0.00  0.00    +0.227 C 
ATOM     24  O   UNL     1       5.620   1.827   4.580  0.00  0.00    -0.275 OA
ATOM     25  N   UNL     1       7.440   0.706   5.175  0.00  0.00    -0.285 N 
ATOM     26  H   UNL     1       8.124   0.060   4.937  0.00  0.00    +0.155 HD
BRANCH  25  27
ATOM     27  C   UNL     1       7.507   1.377   6.402  0.00  0.00    +0.035 A 
ATOM     28  C   UNL     1       8.741   1.697   6.953  0.00  0.00    +0.026 A 
ATOM     29  C   UNL     1       8.806   2.359   8.163  0.00  0.00    +0.041 A 
ATOM     30  C   UNL     1       7.641   2.704   8.828  0.00  0.00    +0.142 A 
ATOM     31  C   UNL     1       6.409   2.385   8.281  0.00  0.00    +0.078 A 
ATOM     32  C   UNL     1       6.340   1.728   7.067  0.00  0.00    +0.046 A 
ATOM     33 CL   UNL     1       4.950   2.818   9.117  0.00  0.00    -0.081 Cl
ATOM     34  F   UNL     1       7.707   3.350  10.012  0.00  0.00    -0.204 F 
ENDBRANCH  25  27
ENDBRANCH  22  23
ENDBRANCH  21  22
ENDBRANCH   5  21
TORSDOF 7
