REMARK  Name = ZINC01214281
REMARK  7 active torsions:
REMARK  status: ('A' for Active; 'I' for Inactive)
REMARK    1  A    between atoms: C_1  and  O_2
REMARK    2  A    between atoms: O_2  and  C_3
REMARK    3  A    between atoms: C_6  and  C_11
REMARK    4  A    between atoms: C_8  and  O_9
REMARK    5  A    between atoms: O_9  and  C_10
REMARK    6  A    between atoms: C_16  and  C_26
REMARK    7  A    between atoms: C_29  and  C_32
REMARK                            x       y       z     vdW  Elec       q    Type
REMARK                         _______ _______ _______ _____ _____    ______ ____
ROOT
ATOM      1  C   UNL     1      -4.383  -0.509   5.984  0.00  0.00    +0.032 C 
ATOM      2  C   UNL     1      -5.343   0.671   6.125  0.00  0.00    +0.059 C 
ATOM      3  C   UNL     1      -4.760   1.900   5.447  0.00  0.00    +0.017 C 
ATOM      4  C   UNL     1      -3.430   2.087   5.402  0.00  0.00    +0.036 C 
ATOM      5  C   UNL     1      -2.722   3.259   4.764  0.00  0.00    +0.136 C 
ATOM      6  N   UNL     1      -3.594   4.354   4.397  0.00  0.00    -0.331 N 
ATOM      7  C   UNL     1      -4.573   4.196   3.422  0.00  0.00    +0.049 A 
ATOM      8  C   UNL     1      -4.496   4.858   2.206  0.00  0.00    +0.025 A 
ATOM      9  C   UNL     1      -5.449   4.609   1.234  0.00  0.00    +0.002 A 
ATOM     10  C   UNL     1      -6.471   3.708   1.469  0.00  0.00    +0.002 A 
ATOM     11  C   UNL     1      -6.565   3.062   2.690  0.00  0.00    +0.025 A 
ATOM     12  C   UNL     1      -5.624   3.326   3.669  0.00  0.00    +0.052 A 
ATOM     13  N   UNL     1      -5.684   2.753   4.936  0.00  0.00    -0.316 N 
ATOM     14  C   UNL     1      -2.556   1.138   5.983  0.00  0.00    +0.163 C 
ATOM     15  O   UNL     1      -1.359   1.344   5.947  0.00  0.00    -0.292 OA
ATOM     16  C   UNL     1      -3.056  -0.113   6.642  0.00  0.00    +0.088 C 
ATOM     17  H   UNL     1      -3.493   5.213   4.835  0.00  0.00    +0.147 HD
ATOM     18  H   UNL     1      -6.444   2.979   5.495  0.00  0.00    +0.152 HD
ENDROOT
BRANCH   1  22
ATOM     19  C   UNL     1      -6.008  -3.938   7.958  0.00  0.00    +0.161 A 
ATOM     20  C   UNL     1      -5.751  -2.780   8.674  0.00  0.00    +0.049 A 
ATOM     21  C   UNL     1      -5.220  -1.675   8.034  0.00  0.00    +0.008 A 
ATOM     22  C   UNL     1      -4.956  -1.719   6.678  0.00  0.00    -0.040 A 
ATOM     23  C   UNL     1      -5.210  -2.871   5.957  0.00  0.00    +0.053 A 
ATOM     24  C   UNL     1      -5.736  -3.984   6.594  0.00  0.00    +0.162 A 
BRANCH  19  26
ATOM     25  C   UNL     1      -6.777  -4.908   9.988  0.00  0.00    +0.277 C 
ATOM     26  O   UNL     1      -6.524  -5.028   8.587  0.00  0.00    -0.491 OA
ENDBRANCH  19  26
BRANCH  24  27
ATOM     27  O   UNL     1      -5.987  -5.118   5.887  0.00  0.00    -0.491 OA
ATOM     28  C   UNL     1      -5.683  -5.093   4.491  0.00  0.00    +0.277 C 
ENDBRANCH  24  27
ENDBRANCH   1  22
BRANCH   5  29
ATOM     29  C   UNL     1      -2.016   2.773   3.524  0.00  0.00    -0.023 A 
ATOM     30  C   UNL     1      -0.637   2.833   3.445  0.00  0.00    +0.006 A 
ATOM     31  C   UNL     1       0.009   2.387   2.308  0.00  0.00    +0.013 A 
ATOM     32  C   UNL     1      -0.722   1.881   1.250  0.00  0.00    +0.055 A 
ATOM     33  C   UNL     1      -2.101   1.826   1.327  0.00  0.00    +0.013 A 
ATOM     34  C   UNL     1      -2.748   2.267   2.466  0.00  0.00    +0.006 A 
BRANCH  32  35
ATOM     35  C   UNL     1      -0.017   1.395   0.010  0.00  0.00    +0.417 C 
ATOM     36  F   UNL     1       0.284   0.036   0.147  0.00  0.00    -0.166 F 
ATOM     37  F   UNL     1       1.167   2.119  -0.168  0.00  0.00    -0.166 F 
ATOM     38  F   UNL     1      -0.847   1.579  -1.101  0.00  0.00    -0.166 F 
ENDBRANCH  32  35
ENDBRANCH   5  29
TORSDOF 5
