REMARK  Name = ZINC04231303
REMARK  9 active torsions:
REMARK  status: ('A' for Active; 'I' for Inactive)
REMARK    1  A    between atoms: C_1  and  N_57
REMARK    2  A    between atoms: C_2  and  N_57
REMARK    3  A    between atoms: C_3  and  C_4
REMARK    4  A    between atoms: C_3  and  N_57
REMARK    5  A    between atoms: C_4  and  C_5
REMARK    6  A    between atoms: C_5  and  N_6
REMARK    7  A    between atoms: N_6  and  C_7
REMARK    8  A    between atoms: C_7  and  C_8
REMARK    9  A    between atoms: N_25  and  C_26
REMARK                            x       y       z     vdW  Elec       q    Type
REMARK                         _______ _______ _______ _____ _____    ______ ____
ROOT
ATOM      1  N   UNL     1       1.304   3.958   1.438  0.00  0.00    -0.281 N 
ATOM      2  C   UNL     1       0.215   4.189   2.197  0.00  0.00    +0.307 C 
ATOM      3  O   UNL     1      -0.885   3.860   1.798  0.00  0.00    -0.252 OA
ATOM      4  N   UNL     1       0.345   4.784   3.400  0.00  0.00    -0.269 N 
ATOM      5  H   UNL     1       1.228   4.977   3.752  0.00  0.00    +0.156 HD
ENDROOT
BRANCH   4   6
ATOM      6  C   UNL     1      -0.793   5.123   4.139  0.00  0.00    +0.035 A 
ATOM      7  C   UNL     1      -1.955   5.516   3.488  0.00  0.00    +0.023 A 
ATOM      8  C   UNL     1      -3.078   5.846   4.220  0.00  0.00    +0.002 A 
ATOM      9  C   UNL     1      -3.044   5.796   5.602  0.00  0.00    +0.000 A 
ATOM     10  C   UNL     1      -1.887   5.411   6.254  0.00  0.00    +0.002 A 
ATOM     11  C   UNL     1      -0.762   5.075   5.527  0.00  0.00    +0.023 A 
ENDBRANCH   4   6
BRANCH   1  12
ATOM     12  C   UNL     1       2.630   4.355   1.919  0.00  0.00    +0.108 C 
BRANCH  12  13
ATOM     13  C   UNL     1       2.931   5.784   1.465  0.00  0.00    +0.000 C 
BRANCH  13  14
ATOM     14  C   UNL     1       4.316   6.198   1.968  0.00  0.00    -0.078 C 
BRANCH  14  17
ATOM     15  C   UNL     1       3.698   8.530   2.176  0.00  0.00    -0.097 C 
ATOM     16  C   UNL     1       6.008   7.920   1.788  0.00  0.00    -0.097 C 
ATOM     17  N   UNL     1       4.600   7.572   1.503  0.00  0.00    +0.376 N 
ATOM     18  H   UNL     1       4.443   7.621   0.490  0.00  0.00    -0.083 HD
ENDBRANCH  14  17
ENDBRANCH  13  14
ENDBRANCH  12  13
ENDBRANCH   1  12
BRANCH   1  19
ATOM     19  C   UNL     1       1.163   3.312   0.131  0.00  0.00    +0.150 C 
BRANCH  19  20
ATOM     20  C   UNL     1       1.272   1.818   0.295  0.00  0.00    +0.035 A 
ATOM     21  C   UNL     1       0.148   1.068   0.427  0.00  0.00    +0.020 A 
ATOM     22  C   UNL     1       0.287  -0.379   0.584  0.00  0.00    +0.003 A 
ATOM     23  C   UNL     1      -0.838  -1.202   0.723  0.00  0.00    +0.059 A 
ATOM     24  C   UNL     1      -0.675  -2.562   0.869  0.00  0.00    +0.167 A 
ATOM     25  C   UNL     1       0.609  -3.122   0.879  0.00  0.00    +0.168 A 
ATOM     26  C   UNL     1       1.725  -2.317   0.743  0.00  0.00    +0.075 A 
ATOM     27  C   UNL     1       1.577  -0.944   0.594  0.00  0.00    +0.053 A 
ATOM     28  N   UNL     1       2.680  -0.125   0.456  0.00  0.00    -0.322 N 
ATOM     29  H   UNL     1       3.596  -0.526   0.463  0.00  0.00    +0.169 HD
ATOM     30  C   UNL     1       2.541   1.204   0.312  0.00  0.00    +0.254 A 
ATOM     31  O   UNL     1       3.537   1.897   0.191  0.00  0.00    -0.268 OA
ATOM     32  O   UNL     1       0.490  -4.472   1.036  0.00  0.00    -0.453 OA
ATOM     33  C   UNL     1      -0.877  -4.780   0.709  0.00  0.00    +0.466 C 
ATOM     34  O   UNL     1      -1.588  -3.567   1.019  0.00  0.00    -0.453 OA
ENDBRANCH  19  20
ENDBRANCH   1  19
TORSDOF 7
