REMARK  Name = ZINC15521297
REMARK  8 active torsions:
REMARK  status: ('A' for Active; 'I' for Inactive)
REMARK    1  A    between atoms: C_1  and  C_2
REMARK    2  A    between atoms: N_10  and  N_14
REMARK    3  A    between atoms: C_15  and  C_17
REMARK    4  A    between atoms: C_17  and  N_60
REMARK    5  A    between atoms: C_18  and  C_19
REMARK    6  A    between atoms: C_18  and  N_60
REMARK    7  A    between atoms: C_24  and  C_25
REMARK    8  A    between atoms: C_24  and  N_60
REMARK                            x       y       z     vdW  Elec       q    Type
REMARK                         _______ _______ _______ _____ _____    ______ ____
ROOT
ATOM      1  N   UNL     1      -0.321   0.023  -0.147  0.00  0.00    -0.225 N 
ATOM      2  C   UNL     1      -0.292   1.368  -0.068  0.00  0.00    +0.213 C 
ATOM      3  O   UNL     1      -1.326   1.991   0.059  0.00  0.00    -0.276 OA
ATOM      4  H   UNL     1       0.505  -0.474  -0.253  0.00  0.00    +0.173 HD
ENDROOT
BRANCH   1  14
ATOM      5  C   UNL     1      -7.111  -3.977   0.766  0.00  0.00    +0.007 C 
ATOM      6  C   UNL     1      -5.745  -3.427   1.183  0.00  0.00    -0.014 C 
ATOM      7  C   UNL     1      -5.769  -1.899   1.114  0.00  0.00    +0.006 C 
ATOM      8  C   UNL     1      -4.405  -1.349   1.542  0.00  0.00    +0.035 C 
ATOM      9  C   UNL     1      -3.322  -1.899   0.621  0.00  0.00    +0.114 C 
ATOM     10  C   UNL     1      -3.301  -3.423   0.663  0.00  0.00    +0.035 C 
ATOM     11  C   UNL     1      -4.669  -3.965   0.238  0.00  0.00    +0.006 C 
ATOM     12  C   UNL     1      -1.968  -1.346   1.002  0.00  0.00    +0.263 C 
ATOM     13  O   UNL     1      -1.387  -1.490   2.056  0.00  0.00    -0.271 OA
ATOM     14  N   UNL     1      -1.544  -0.656  -0.078  0.00  0.00    -0.137 N 
ATOM     15  C   UNL     1      -2.435  -0.707  -1.076  0.00  0.00    +0.326 C 
ATOM     16  O   UNL     1      -2.275  -0.165  -2.152  0.00  0.00    -0.251 OA
ATOM     17  N   UNL     1      -3.527  -1.425  -0.754  0.00  0.00    -0.284 N 
ATOM     18  H   UNL     1      -4.298  -1.596  -1.318  0.00  0.00    +0.151 HD
ENDBRANCH   1  14
BRANCH   2  19
ATOM     19  C   UNL     1       1.023   2.099  -0.143  0.00  0.00    +0.021 C 
BRANCH  19  20
ATOM     20  N   UNL     1       0.767   3.552  -0.053  0.00  0.00    +0.390 N 
ATOM     21  H   UNL     1       0.055   3.809  -0.747  0.00  0.00    -0.081 HD
BRANCH  20  22
ATOM     22  C   UNL     1       0.268   3.895   1.296  0.00  0.00    -0.035 C 
BRANCH  22  23
ATOM     23  C   UNL     1      -0.330   5.277   1.254  0.00  0.00    -0.027 A 
ATOM     24  C   UNL     1      -1.592   5.652   0.934  0.00  0.00    +0.009 A 
ATOM     25  C   UNL     1      -1.921   6.995   0.965  0.00  0.00    +0.008 A 
ATOM     26  C   UNL     1      -0.972   7.896   1.315  0.00  0.00    +0.045 A 
ATOM     27  S   UNL     1       0.439   6.846   1.622  0.00  0.00    -0.103 S 
ENDBRANCH  22  23
ENDBRANCH  20  22
BRANCH  20  28
ATOM     28  C   UNL     1       2.008   4.303  -0.337  0.00  0.00    -0.046 C 
BRANCH  28  29
ATOM     29  C   UNL     1       2.245   4.303  -1.849  0.00  0.00    +0.102 C 
ATOM     30  C   UNL     1       3.550   5.056  -2.189  0.00  0.00    +0.032 C 
ATOM     31  C   UNL     1       3.225   5.796  -3.505  0.00  0.00    +0.030 C 
ATOM     32  C   UNL     1       1.761   5.403  -3.805  0.00  0.00    +0.160 C 
ATOM     33  O   UNL     1       1.205   5.045  -2.521  0.00  0.00    -0.378 OA
ENDBRANCH  28  29
ENDBRANCH  20  28
ENDBRANCH  19  20
ENDBRANCH   2  19
TORSDOF 7
