REMARK  Name = ZINC49421110
REMARK  6 active torsions:
REMARK  status: ('A' for Active; 'I' for Inactive)
REMARK    1  A    between atoms: C_1  and  C_2
REMARK    2  A    between atoms: C_2  and  C_3
REMARK    3  A    between atoms: C_3  and  C_5
REMARK    4  A    between atoms: C_3  and  N_6
REMARK    5  A    between atoms: C_7  and  C_9
REMARK    6  A    between atoms: C_23  and  C_26
REMARK                            x       y       z     vdW  Elec       q    Type
REMARK                         _______ _______ _______ _____ _____    ______ ____
ROOT
ATOM      1  C   UNL     1      -3.961   0.396   2.913  0.00  0.00    +0.092 C 
ATOM      2  C   UNL     1      -3.795  -0.771   3.888  0.00  0.00    +0.016 C 
ATOM      3  C   UNL     1      -4.620  -0.506   5.149  0.00  0.00    +0.020 C 
ATOM      4  C   UNL     1      -6.101  -0.398   4.773  0.00  0.00    +0.108 C 
ATOM      5  N   UNL     1      -6.249   0.625   3.728  0.00  0.00    -0.300 N 
ATOM      6  C   UNL     1      -5.434   0.515   2.510  0.00  0.00    +0.120 C 
ATOM      7  C   UNL     1      -7.134   1.663   3.887  0.00  0.00    +0.199 A 
ATOM      8  N   UNL     1      -7.330   2.520   2.843  0.00  0.00    -0.294 N 
ATOM      9  C   UNL     1      -8.199   3.550   2.981  0.00  0.00    +0.267 A 
ATOM     10  O   UNL     1      -8.394   4.332   2.065  0.00  0.00    -0.267 OA
ATOM     11  C   UNL     1      -8.864   3.693   4.199  0.00  0.00    +0.103 A 
ATOM     12  C   UNL     1      -8.642   2.796   5.254  0.00  0.00    +0.094 A 
ATOM     13  N   UNL     1      -7.757   1.787   5.029  0.00  0.00    -0.215 NA
ATOM     14  C   UNL     1      -9.425   3.110   6.437  0.00  0.00    +0.015 A 
ATOM     15  C   UNL     1     -10.249   4.189   6.392  0.00  0.00    +0.056 A 
ATOM     16  S   UNL     1     -10.051   4.830   4.854  0.00  0.00    -0.089 S 
ATOM     17  H   UNL     1      -6.851   2.393   2.009  0.00  0.00    +0.172 HD
ENDROOT
BRANCH  14  18
ATOM     18  C   UNL     1      -9.329   2.276   7.659  0.00  0.00    -0.015 A 
ATOM     19  C   UNL     1      -9.445   0.890   7.571  0.00  0.00    +0.008 A 
ATOM     20  C   UNL     1      -9.354   0.118   8.711  0.00  0.00    +0.001 A 
ATOM     21  C   UNL     1      -9.148   0.718   9.941  0.00  0.00    +0.000 A 
ATOM     22  C   UNL     1      -9.033   2.094  10.034  0.00  0.00    +0.001 A 
ATOM     23  C   UNL     1      -9.116   2.875   8.900  0.00  0.00    +0.008 A 
ENDBRANCH  14  18
BRANCH   1  25
ATOM     24  N   UNL     1      -1.787   0.009   1.798  0.00  0.00    -0.312 N 
ATOM     25  C   UNL     1      -3.123   0.149   1.685  0.00  0.00    +0.218 C 
ATOM     26  O   UNL     1      -3.650   0.076   0.595  0.00  0.00    -0.275 OA
ATOM     27  H   UNL     1      -1.365   0.067   2.669  0.00  0.00    +0.149 HD
BRANCH  24  28
ATOM     28  C   UNL     1      -0.972  -0.231   0.604  0.00  0.00    +0.070 C 
ATOM     29  C   UNL     1      -0.956  -1.729   0.291  0.00  0.00    +0.028 C 
BRANCH  28  31
ATOM     30  C   UNL     1       0.455   1.771   1.046  0.00  0.00    +0.005 C 
ATOM     31  C   UNL     1       0.457   0.253   0.856  0.00  0.00    +0.018 C 
ENDBRANCH  28  31
ENDBRANCH  24  28
ENDBRANCH   1  25
TORSDOF 4
