REMARK  Name = ZINC64024361
REMARK  10 active torsions:
REMARK  status: ('A' for Active; 'I' for Inactive)
REMARK    1  A    between atoms: C_1  and  C_2
REMARK    2  A    between atoms: C_4  and  C_21
REMARK    3  A    between atoms: C_7  and  C_10
REMARK    4  A    between atoms: C_15  and  N_16
REMARK    5  A    between atoms: N_16  and  S_17
REMARK    6  A    between atoms: S_17  and  C_20
REMARK    7  A    between atoms: C_21  and  N_22
REMARK    8  A    between atoms: N_22  and  C_23
REMARK    9  A    between atoms: N_22  and  C_24
REMARK   10  A    between atoms: C_24  and  C_25
REMARK                            x       y       z     vdW  Elec       q    Type
REMARK                         _______ _______ _______ _____ _____    ______ ____
ROOT
ATOM      1  C   UNL     1       0.661   0.545   0.638  0.00  0.00    +0.039 C 
ATOM      2  C   UNL     1       0.400  -0.934   0.344  0.00  0.00    +0.133 C 
ATOM      3  C   UNL     1      -1.109  -1.249   0.444  0.00  0.00    +0.068 C 
ATOM      4  N   UNL     1      -1.172  -2.584   1.083  0.00  0.00    -0.284 NA
ATOM      5  C   UNL     1       0.233  -2.995   1.301  0.00  0.00    +0.220 C 
ATOM      6  O   UNL     1       0.995  -1.768   1.365  0.00  0.00    -0.353 OA
ATOM      7  H   UNL     1      -1.677  -2.543   1.956  0.00  0.00    +0.125 HD
ENDROOT
BRANCH   5   8
ATOM      8  C   UNL     1       0.358  -3.757   2.595  0.00  0.00    +0.020 A 
ATOM      9  C   UNL     1      -0.416  -3.403   3.683  0.00  0.00    +0.009 A 
ATOM     10  C   UNL     1      -0.301  -4.101   4.871  0.00  0.00    +0.001 A 
ATOM     11  C   UNL     1       0.587  -5.156   4.974  0.00  0.00    +0.002 A 
ATOM     12  C   UNL     1       1.363  -5.516   3.890  0.00  0.00    +0.027 A 
ATOM     13  C   UNL     1       1.247  -4.819   2.693  0.00  0.00    +0.081 A 
BRANCH  13  14
ATOM     14  N   UNL     1       2.027  -5.183   1.593  0.00  0.00    -0.102 NA
BRANCH  14  15
ATOM     15  S   UNL     1       3.086  -6.451   1.712  0.00  0.00    +0.059 S 
ATOM     16  O   UNL     1       4.038  -6.037   2.682  0.00  0.00    -0.154 OA
ATOM     17  O   UNL     1       2.266  -7.588   1.940  0.00  0.00    -0.154 OA
ATOM     18  C   UNL     1       3.867  -6.561   0.078  0.00  0.00    +0.220 C 
ENDBRANCH  14  15
ENDBRANCH  13  14
ENDBRANCH   5   8
BRANCH   3  19
ATOM     19  C   UNL     1      -1.738  -1.292  -0.950  0.00  0.00    -0.058 C 
BRANCH  19  20
ATOM     20  N   UNL     1      -3.142  -1.710  -0.840  0.00  0.00    +0.381 N 
ATOM     21  C   UNL     1      -3.900  -0.691  -0.102  0.00  0.00    -0.096 C 
ATOM     22  H   UNL     1      -3.194  -2.589  -0.348  0.00  0.00    -0.082 HD
BRANCH  20  23
ATOM     23  C   UNL     1      -3.712  -1.867  -2.185  0.00  0.00    -0.032 C 
BRANCH  23  24
ATOM     24  C   UNL     1      -5.084  -2.537  -2.082  0.00  0.00    +0.157 C 
ATOM     25  N   UNL     1      -6.008  -1.682  -1.327  0.00  0.00    -0.365 N 
ATOM     26  C   UNL     1      -6.387  -2.350  -0.276  0.00  0.00    +0.060 A 
ATOM     27  C   UNL     1      -7.291  -2.030   0.838  0.00  0.00    +0.027 A 
ATOM     28  C   UNL     1      -7.498  -2.942   1.809  0.00  0.00    +0.002 A 
ATOM     29  C   UNL     1      -6.880  -4.205   1.807  0.00  0.00    +0.002 A 
ATOM     30  C   UNL     1      -6.034  -4.599   0.834  0.00  0.00    +0.027 A 
ATOM     31  C   UNL     1      -5.734  -3.687  -0.279  0.00  0.00    +0.060 A 
ATOM     32  N   UNL     1      -4.975  -3.794  -1.331  0.00  0.00    -0.365 N 
ATOM     33  H   UNL     1      -6.284  -0.783  -1.567  0.00  0.00    +0.162 HD
ATOM     34  H   UNL     1      -4.437  -4.563  -1.575  0.00  0.00    +0.162 HD
ENDBRANCH  23  24
ENDBRANCH  20  23
ENDBRANCH  19  20
ENDBRANCH   3  19
TORSDOF 7
