REMARK  Name = ZINC39710886
REMARK  9 active torsions:
REMARK  status: ('A' for Active; 'I' for Inactive)
REMARK    1  A    between atoms: C_1  and  C_2
REMARK    2  A    between atoms: C_8  and  C_14
REMARK    3  A    between atoms: C_14  and  C_16
REMARK    4  A    between atoms: C_14  and  N_27
REMARK    5  A    between atoms: N_21  and  C_22
REMARK    6  A    between atoms: N_27  and  C_28
REMARK    7  A    between atoms: N_27  and  C_35
REMARK    8  A    between atoms: C_28  and  C_29
REMARK    9  A    between atoms: C_35  and  C_36
REMARK                            x       y       z     vdW  Elec       q    Type
REMARK                         _______ _______ _______ _____ _____    ______ ____
ROOT
ATOM      1  C   UNL     1       1.327  -2.314   4.147  0.00  0.00    -0.009 C 
ENDROOT
BRANCH   1   9
ATOM      2  C   UNL     1      -1.128   2.092   0.649  0.00  0.00    +0.045 C 
ATOM      3  C   UNL     1      -0.603   0.722   0.305  0.00  0.00    -0.029 A 
ATOM      4  C   UNL     1      -0.336   0.408  -0.990  0.00  0.00    +0.005 A 
ATOM      5  C   UNL     1       0.152  -0.841  -1.376  0.00  0.00    +0.001 A 
ATOM      6  C   UNL     1       0.388  -1.820  -0.466  0.00  0.00    +0.009 A 
ATOM      7  C   UNL     1       0.122  -1.549   0.948  0.00  0.00    -0.007 A 
ATOM      8  C   UNL     1       0.345  -2.502   1.897  0.00  0.00    -0.006 C 
ATOM      9  C   UNL     1       0.042  -2.134   3.336  0.00  0.00    +0.088 C 
ATOM     10  C   UNL     1      -0.483  -0.741   3.601  0.00  0.00    +0.223 C 
ATOM     11  O   UNL     1      -0.742  -0.393   4.737  0.00  0.00    -0.275 OA
ATOM     12  N   UNL     1      -0.658   0.097   2.594  0.00  0.00    -0.284 N 
ATOM     13  C   UNL     1      -0.387  -0.220   1.327  0.00  0.00    +0.043 A 
ATOM     14  H   UNL     1      -0.995   0.986   2.785  0.00  0.00    +0.155 HD
ENDBRANCH   1   9
BRANCH   1  15
ATOM     15  C   UNL     1       1.684  -3.800   4.215  0.00  0.00    +0.205 C 
ATOM     16  N   UNL     1       3.040  -3.978   4.751  0.00  0.00    -0.152 NA
ATOM     17  N   UNL     1       3.736  -4.534   3.898  0.00  0.00    -0.070 NA
ATOM     18  N   UNL     1       3.037  -4.813   2.725  0.00  0.00    -0.179 N 
ATOM     19  N   UNL     1       1.741  -4.379   2.856  0.00  0.00    -0.185 NA
ATOM     20  H   UNL     1       3.407  -5.245   1.939  0.00  0.00    +0.191 HD
BRANCH  19  21
ATOM     21  C   UNL     1       0.794  -5.494   2.719  0.00  0.00    +0.080 C 
ATOM     22  C   UNL     1       1.175  -6.633   3.686  0.00  0.00    +0.021 C 
ATOM     23  C   UNL     1       0.865  -7.926   2.891  0.00  0.00    +0.002 C 
ATOM     24  C   UNL     1       1.297  -7.554   1.451  0.00  0.00    +0.002 C 
ATOM     25  C   UNL     1       0.871  -6.079   1.298  0.00  0.00    +0.021 C 
ENDBRANCH  19  21
ENDBRANCH   1  15
BRANCH   1  26
ATOM     26  N   UNL     1       1.123  -1.797   5.507  0.00  0.00    +0.392 N 
ATOM     27  H   UNL     1       0.823  -0.835   5.460  0.00  0.00    -0.080 HD
BRANCH  26  28
ATOM     28  C   UNL     1       0.096  -2.598   6.187  0.00  0.00    -0.042 C 
BRANCH  28  29
ATOM     29  C   UNL     1      -0.222  -1.977   7.523  0.00  0.00    -0.064 A 
ATOM     30  C   UNL     1       0.492  -2.351   8.646  0.00  0.00    +0.002 A 
ATOM     31  C   UNL     1       0.200  -1.782   9.872  0.00  0.00    +0.000 A 
ATOM     32  C   UNL     1      -0.805  -0.839   9.974  0.00  0.00    +0.000 A 
ATOM     33  C   UNL     1      -1.518  -0.464   8.850  0.00  0.00    +0.000 A 
ATOM     34  C   UNL     1      -1.223  -1.030   7.624  0.00  0.00    +0.002 A 
ENDBRANCH  28  29
ENDBRANCH  26  28
BRANCH  26  35
ATOM     35  C   UNL     1       2.384  -1.880   6.256  0.00  0.00    -0.002 C 
BRANCH  35  36
ATOM     36  C   UNL     1       3.434  -1.047   5.566  0.00  0.00    +0.089 A 
ATOM     37  C   UNL     1       3.745   0.228   5.861  0.00  0.00    +0.042 A 
ATOM     38  C   UNL     1       4.776   0.614   4.973  0.00  0.00    +0.041 A 
ATOM     39  C   UNL     1       5.033  -0.449   4.190  0.00  0.00    +0.195 A 
ATOM     40  O   UNL     1       4.221  -1.454   4.557  0.00  0.00    -0.470 OA
ENDBRANCH  35  36
ENDBRANCH  26  35
ENDBRANCH   1  26
TORSDOF 8
