REMARK  Name = ZINC64197547
REMARK  4 active torsions:
REMARK  status: ('A' for Active; 'I' for Inactive)
REMARK    1  A    between atoms: C_1  and  C_2
REMARK    2  A    between atoms: C_5  and  C_8
REMARK    3  A    between atoms: C_8  and  C_10
REMARK    4  A    between atoms: C_31  and  C_38
REMARK                            x       y       z     vdW  Elec       q    Type
REMARK                         _______ _______ _______ _____ _____    ______ ____
ROOT
ATOM      1  C   UNL     1       0.075  -5.006   1.280  0.00  0.00    +0.099 C 
ATOM      2  C   UNL     1       1.526  -5.347   1.696  0.00  0.00    +0.070 C 
ATOM      3  C   UNL     1       2.474  -4.263   1.157  0.00  0.00    +0.021 C 
ATOM      4  C   UNL     1       2.906  -4.748  -0.240  0.00  0.00    +0.017 C 
ATOM      5  C   UNL     1       2.154  -6.076  -0.456  0.00  0.00    +0.086 C 
ATOM      6  N   UNL     1       1.836  -6.585   0.916  0.00  0.00    -0.281 NA
ATOM      7  C   UNL     1       0.585  -7.364   0.891  0.00  0.00    +0.145 C 
ATOM      8  C   UNL     1      -0.574  -6.390   1.109  0.00  0.00    +0.116 C 
ATOM      9  C   UNL     1      -1.399  -6.753   2.312  0.00  0.00    -0.008 A 
ATOM     10  C   UNL     1      -1.107  -6.912   3.648  0.00  0.00    +0.006 A 
ATOM     11  C   UNL     1      -2.107  -7.259   4.539  0.00  0.00    +0.000 A 
ATOM     12  C   UNL     1      -3.400  -7.445   4.084  0.00  0.00    +0.002 A 
ATOM     13  C   UNL     1      -3.697  -7.287   2.746  0.00  0.00    +0.023 A 
ATOM     14  C   UNL     1      -2.696  -6.939   1.842  0.00  0.00    +0.038 A 
ATOM     15  N   UNL     1      -2.745  -6.724   0.463  0.00  0.00    -0.284 N 
ATOM     16  C   UNL     1      -1.541  -6.397  -0.044  0.00  0.00    +0.231 C 
ATOM     17  O   UNL     1      -1.286  -6.154  -1.204  0.00  0.00    -0.274 OA
ATOM     18  C   UNL     1       0.440  -8.109  -0.409  0.00  0.00    +0.004 A 
ATOM     19  C   UNL     1       0.359  -7.707  -1.724  0.00  0.00    +0.011 A 
ATOM     20  C   UNL     1       0.227  -8.650  -2.728  0.00  0.00    -0.050 A 
ATOM     21  C   UNL     1       0.177  -9.994  -2.407  0.00  0.00    +0.005 A 
ATOM     22  C   UNL     1       0.258 -10.401  -1.092  0.00  0.00    +0.024 A 
ATOM     23  C   UNL     1       0.391  -9.458  -0.075  0.00  0.00    +0.039 A 
ATOM     24  N   UNL     1       0.489  -9.617   1.309  0.00  0.00    -0.283 N 
ATOM     25  C   UNL     1       0.604  -8.438   1.948  0.00  0.00    +0.244 C 
ATOM     26  O   UNL     1       0.704  -8.272   3.146  0.00  0.00    -0.273 OA
ATOM     27  C   UNL     1       0.137  -8.213  -4.167  0.00  0.00    +0.044 C 
ATOM     28  H   UNL     1      -3.554  -6.801  -0.068  0.00  0.00    +0.155 HD
ATOM     29  H   UNL     1       0.476 -10.477   1.757  0.00  0.00    +0.155 HD
ENDROOT
BRANCH   1  30
ATOM     30  C   UNL     1       0.058  -4.245  -0.021  0.00  0.00    +0.169 C 
ATOM     31  O   UNL     1       0.086  -4.845  -1.075  0.00  0.00    -0.292 OA
BRANCH  30  36
ATOM     32  C   UNL     1      -0.139   1.500   0.010  0.00  0.00    +0.044 C 
ATOM     33  C   UNL     1      -0.087  -0.006   0.002  0.00  0.00    -0.050 A 
ATOM     34  C   UNL     1      -0.054  -0.687  -1.202  0.00  0.00    +0.004 A 
ATOM     35  C   UNL     1      -0.007  -2.065  -1.218  0.00  0.00    +0.011 A 
ATOM     36  C   UNL     1       0.008  -2.775  -0.013  0.00  0.00    +0.018 A 
ATOM     37  C   UNL     1      -0.024  -2.079   1.200  0.00  0.00    +0.011 A 
ATOM     38  C   UNL     1      -0.066  -0.701   1.199  0.00  0.00    +0.004 A 
ENDBRANCH  30  36
ENDBRANCH   1  30
TORSDOF 2
