REMARK  Name = ZINC13500291
REMARK  18 active torsions:
REMARK  status: ('A' for Active; 'I' for Inactive)
REMARK    1  A    between atoms: C_1  and  C_2
REMARK    2  A    between atoms: C_2  and  O_3
REMARK    3  A    between atoms: O_3  and  C_4
REMARK    4  A    between atoms: C_11  and  C_16
REMARK    5  A    between atoms: C_16  and  N_69
REMARK    6  A    between atoms: C_17  and  C_18
REMARK    7  A    between atoms: C_17  and  N_69
REMARK    8  A    between atoms: C_18  and  C_19
REMARK    9  A    between atoms: C_19  and  O_20
REMARK   10  A    between atoms: C_21  and  C_23
REMARK   11  A    between atoms: C_21  and  C_32
REMARK   12  A    between atoms: C_21  and  N_69
REMARK   13  A    between atoms: N_27  and  C_28
REMARK   14  A    between atoms: C_28  and  C_29
REMARK   15  A    between atoms: C_28  and  C_30
REMARK   16  A    between atoms: C_28  and  C_31
REMARK   17  A    between atoms: C_32  and  C_33
REMARK   18  A    between atoms: C_32  and  C_34
REMARK                            x       y       z     vdW  Elec       q    Type
REMARK                         _______ _______ _______ _____ _____    ______ ____
ROOT
ATOM      1  N   UNL     1      -3.864   4.815   1.146  0.00  0.00    +0.389 N 
ATOM      2  H   UNL     1      -3.974   3.809   1.320  0.00  0.00    -0.080 HD
ENDROOT
BRANCH   1   3
ATOM      3  C   UNL     1      -4.538   5.159  -0.123  0.00  0.00    -0.037 C 
BRANCH   3  11
ATOM      4  C   UNL     1      -5.294  -0.008  -3.464  0.00  0.00    +0.121 A 
ATOM      5  C   UNL     1      -4.115   0.113  -4.196  0.00  0.00    +0.047 A 
ATOM      6  C   UNL     1      -3.267   1.179  -3.990  0.00  0.00    +0.030 A 
ATOM      7  C   UNL     1      -3.586   2.147  -3.043  0.00  0.00    +0.049 A 
ATOM      8  C   UNL     1      -4.776   2.028  -2.301  0.00  0.00    +0.002 A 
ATOM      9  C   UNL     1      -5.628   0.941  -2.519  0.00  0.00    +0.055 A 
ATOM     10  C   UNL     1      -5.095   3.051  -1.303  0.00  0.00    +0.017 A 
ATOM     11  C   UNL     1      -4.235   4.086  -1.137  0.00  0.00    +0.001 A 
ATOM     12  C   UNL     1      -3.054   4.159  -1.906  0.00  0.00    +0.251 A 
ATOM     13  O   UNL     1      -2.292   5.096  -1.738  0.00  0.00    -0.268 OA
ATOM     14  N   UNL     1      -2.749   3.223  -2.821  0.00  0.00    -0.322 N 
ATOM     15  H   UNL     1      -1.929   3.304  -3.333  0.00  0.00    +0.169 HD
BRANCH   4  16
ATOM     16  O   UNL     1      -6.119  -1.067  -3.680  0.00  0.00    -0.492 OA
BRANCH  16  18
ATOM     17  C   UNL     1      -6.760  -3.124  -4.774  0.00  0.00    +0.048 C 
ATOM     18  C   UNL     1      -5.713  -2.013  -4.672  0.00  0.00    +0.225 C 
ENDBRANCH  16  18
ENDBRANCH   4  16
ENDBRANCH   3  11
ENDBRANCH   1   3
BRANCH   1  19
ATOM     19  C   UNL     1      -2.424   5.132   1.056  0.00  0.00    -0.075 C 
BRANCH  19  20
ATOM     20  C   UNL     1      -1.739   4.704   2.355  0.00  0.00    +0.009 C 
BRANCH  20  21
ATOM     21  C   UNL     1      -0.227   4.898   2.222  0.00  0.00    +0.154 C 
BRANCH  21  22
ATOM     22  O   UNL     1       0.413   4.498   3.436  0.00  0.00    -0.395 OA
ATOM     23  H   UNL     1       1.375   4.594   3.424  0.00  0.00    +0.209 HD
ENDBRANCH  21  22
ENDBRANCH  20  21
ENDBRANCH  19  20
ENDBRANCH   1  19
BRANCH   1  24
ATOM     24  C   UNL     1      -4.477   5.565   2.263  0.00  0.00    +0.006 C 
BRANCH  24  25
ATOM     25  C   UNL     1      -5.975   5.567   2.097  0.00  0.00    +0.139 A 
ATOM     26  N   UNL     1      -6.661   6.218   1.190  0.00  0.00    -0.115 NA
ATOM     27  N   UNL     1      -7.910   5.963   1.376  0.00  0.00    -0.023 NA
ATOM     28  N   UNL     1      -8.039   5.173   2.384  0.00  0.00    -0.043 NA
ATOM     29  N   UNL     1      -6.869   4.906   2.856  0.00  0.00    -0.226 N 
BRANCH  29  30
ATOM     30  C   UNL     1      -6.568   4.044   4.002  0.00  0.00    +0.059 C 
ATOM     31  C   UNL     1      -5.914   4.876   5.108  0.00  0.00    +0.036 C 
ATOM     32  C   UNL     1      -7.864   3.425   4.529  0.00  0.00    +0.036 C 
ATOM     33  C   UNL     1      -5.612   2.932   3.568  0.00  0.00    +0.036 C 
ENDBRANCH  29  30
ENDBRANCH  24  25
BRANCH  24  34
ATOM     34  C   UNL     1      -3.964   7.006   2.285  0.00  0.00    -0.024 C 
ATOM     35  C   UNL     1      -4.290   7.684   0.953  0.00  0.00    +0.006 C 
ATOM     36  C   UNL     1      -4.641   7.771   3.425  0.00  0.00    +0.006 C 
ENDBRANCH  24  34
ENDBRANCH   1  24
TORSDOF 12
