REMARK  Name = ZINC20466089
REMARK  12 active torsions:
REMARK  status: ('A' for Active; 'I' for Inactive)
REMARK    1  A    between atoms: C_1  and  C_2
REMARK    2  A    between atoms: C_2  and  N_3
REMARK    3  A    between atoms: N_3  and  C_4
REMARK    4  A    between atoms: C_4  and  C_5
REMARK    5  A    between atoms: C_6  and  C_8
REMARK    6  A    between atoms: C_8  and  C_10
REMARK    7  A    between atoms: C_8  and  C_11
REMARK    8  A    between atoms: C_15  and  C_32
REMARK    9  A    between atoms: C_18  and  N_28
REMARK   10  A    between atoms: C_20  and  C_27
REMARK   11  A    between atoms: C_24  and  O_26
REMARK   12  A    between atoms: C_29  and  C_31
REMARK                            x       y       z     vdW  Elec       q    Type
REMARK                         _______ _______ _______ _____ _____    ______ ____
ROOT
ATOM      1  C   UNL     1       1.042   5.216  -1.424  0.00  0.00    +0.029 C 
ATOM      2  C   UNL     1      -0.392   4.740  -1.668  0.00  0.00    +0.007 C 
ATOM      3  C   UNL     1      -0.365   3.416  -2.435  0.00  0.00    +0.007 C 
ATOM      4  C   UNL     1       0.388   2.367  -1.615  0.00  0.00    -0.027 C 
ATOM      5  C   UNL     1       0.414   1.043  -2.381  0.00  0.00    +0.009 C 
ATOM      6  C   UNL     1       1.167  -0.006  -1.561  0.00  0.00    +0.023 C 
ATOM      7  C   UNL     1       2.600   0.470  -1.317  0.00  0.00    +0.076 C 
ATOM      8  C   UNL     1       2.574   1.794  -0.550  0.00  0.00    +0.012 C 
ATOM      9  C   UNL     1       1.821   2.843  -1.370  0.00  0.00    +0.028 C 
ATOM     10  C   UNL     1       1.795   4.167  -0.604  0.00  0.00    +0.122 C 
ATOM     11  C   UNL     1       4.008   2.270  -0.306  0.00  0.00    +0.010 C 
ATOM     12  C   UNL     1      -0.318   2.165  -0.273  0.00  0.00    +0.011 C 
ENDROOT
BRANCH   7  13
ATOM     13  N   UNL     1       3.322  -0.535  -0.531  0.00  0.00    -0.312 N 
ATOM     14  C   UNL     1       3.911  -1.577  -1.150  0.00  0.00    +0.210 C 
ATOM     15  O   UNL     1       3.844  -1.684  -2.356  0.00  0.00    -0.276 OA
ATOM     16  C   UNL     1       4.653  -2.611  -0.342  0.00  0.00    +0.109 C 
ATOM     17  H   UNL     1       3.382  -0.438   0.563  0.00  0.00    +0.149 HD
ENDBRANCH   7  13
BRANCH   1  18
ATOM     18  C   UNL     1       1.016   6.540  -0.658  0.00  0.00    +0.078 C 
ATOM     19  C   UNL     1       0.189   6.374   0.619  0.00  0.00    +0.017 C 
BRANCH  18  21
ATOM     20  N   UNL     1       1.167   8.583  -2.045  0.00  0.00    -0.302 N 
ATOM     21  C   UNL     1       0.396   7.609  -1.521  0.00  0.00    +0.219 C 
ATOM     22  O   UNL     1      -0.796   7.592  -1.745  0.00  0.00    -0.275 OA
BRANCH  20  24
ATOM     23  C   UNL     1       3.238   7.651  -2.952  0.00  0.00    +0.024 C 
ATOM     24  C   UNL     1       2.621   8.540  -1.871  0.00  0.00    +0.104 C 
ENDBRANCH  20  24
BRANCH  20  25
ATOM     25  C   UNL     1       0.550   9.684  -2.789  0.00  0.00    +0.104 C 
ATOM     26  C   UNL     1       0.211  10.823  -1.825  0.00  0.00    +0.024 C 
ENDBRANCH  20  25
ENDBRANCH  18  21
ENDBRANCH   1  18
BRANCH  10  27
ATOM     27  O   UNL     1       3.134   4.612  -0.376  0.00  0.00    -0.391 OA
ATOM     28  H   UNL     1       3.831   3.985   0.200  0.00  0.00    +0.210 HD
ENDBRANCH  10  27
TORSDOF 6
