REMARK  Name = ZINC44699081
REMARK  6 active torsions:
REMARK  status: ('A' for Active; 'I' for Inactive)
REMARK    1  A    between atoms: C_1  and  C_2
REMARK    2  A    between atoms: C_5  and  S_8
REMARK    3  A    between atoms: S_8  and  O_11
REMARK    4  A    between atoms: O_11  and  C_12
REMARK    5  A    between atoms: C_21  and  O_26
REMARK    6  A    between atoms: C_23  and  O_25
REMARK                            x       y       z     vdW  Elec       q    Type
REMARK                         _______ _______ _______ _____ _____    ______ ____
ROOT
ATOM      1  C   UNL     1       2.183  -4.809   1.225  0.00  0.00    +0.212 C 
ATOM      2  C   UNL     1       3.651  -4.417   0.993  0.00  0.00    +0.181 C 
ATOM      3  C   UNL     1       4.401  -5.674   0.495  0.00  0.00    +0.197 C 
ATOM      4  O   UNL     1       4.881  -6.317   1.689  0.00  0.00    -0.346 OA
ATOM      5  C   UNL     1       4.419  -5.532   2.803  0.00  0.00    +0.282 C 
ATOM      6  O   UNL     1       4.239  -4.172   2.296  0.00  0.00    -0.340 OA
ATOM      7  C   UNL     1       3.045  -6.069   3.232  0.00  0.00    +0.201 C 
ATOM      8  C   UNL     1       2.143  -6.136   1.991  0.00  0.00    +0.181 C 
ENDROOT
BRANCH   8   9
ATOM      9  O   UNL     1       0.799  -6.422   2.381  0.00  0.00    -0.386 OA
ATOM     10  H   UNL     1       0.699  -7.250   2.872  0.00  0.00    +0.210 HD
ENDBRANCH   8   9
BRANCH   7  11
ATOM     11  O   UNL     1       3.199  -7.358   3.829  0.00  0.00    -0.384 OA
ATOM     12  H   UNL     1       3.764  -7.363   4.614  0.00  0.00    +0.210 HD
ENDBRANCH   7  11
BRANCH   1  13
ATOM     13  O   UNL     1       1.522  -4.962  -0.033  0.00  0.00    -0.226 OA
BRANCH  13  14
ATOM     14  S   UNL     1       0.063  -4.530  -0.023  0.00  0.00    +0.112 S 
ATOM     15  O   UNL     1      -0.476  -4.950   1.223  0.00  0.00    -0.142 OA
ATOM     16  O   UNL     1      -0.490  -4.937  -1.267  0.00  0.00    -0.142 OA
BRANCH  14  21
ATOM     17  C   UNL     1      -0.018   1.503   0.010  0.00  0.00    +0.044 C 
ATOM     18  C   UNL     1       0.002  -0.004   0.002  0.00  0.00    -0.050 A 
ATOM     19  C   UNL     1       0.006  -0.689  -1.199  0.00  0.00    +0.005 A 
ATOM     20  C   UNL     1       0.025  -2.071  -1.206  0.00  0.00    +0.030 A 
ATOM     21  C   UNL     1       0.040  -2.768  -0.013  0.00  0.00    +0.117 A 
ATOM     22  C   UNL     1       0.037  -2.084   1.188  0.00  0.00    +0.030 A 
ATOM     23  C   UNL     1       0.023  -0.702   1.195  0.00  0.00    +0.005 A 
ENDBRANCH  14  21
ENDBRANCH  13  14
ENDBRANCH   1  13
TORSDOF 5
