REMARK  Name = ZINC59888875
REMARK  12 active torsions:
REMARK  status: ('A' for Active; 'I' for Inactive)
REMARK    1  A    between atoms: C_1  and  C_2
REMARK    2  A    between atoms: C_2  and  C_3
REMARK    3  A    between atoms: C_3  and  C_26
REMARK    4  A    between atoms: N_4  and  N_5
REMARK    5  A    between atoms: C_8  and  S_11
REMARK    6  A    between atoms: S_11  and  C_12
REMARK    7  A    between atoms: C_12  and  C_13
REMARK    8  A    between atoms: C_19  and  S_21
REMARK    9  A    between atoms: S_21  and  C_22
REMARK   10  A    between atoms: C_22  and  C_23
REMARK   11  A    between atoms: C_23  and  C_24
REMARK   12  A    between atoms: C_23  and  C_25
REMARK                            x       y       z     vdW  Elec       q    Type
REMARK                         _______ _______ _______ _____ _____    ______ ____
ROOT
ATOM      1  C   UNL     1      -2.853  -4.854   7.258  0.00  0.00    +0.173 C 
ENDROOT
BRANCH   1   2
ATOM      2  C   UNL     1      -4.160  -5.454   7.707  0.00  0.00    +0.229 C 
ATOM      3  O   UNL     1      -5.152  -5.332   7.019  0.00  0.00    -0.275 OA
ATOM      4  N   UNL     1      -4.228  -6.127   8.872  0.00  0.00    -0.263 N 
ATOM      5  C   UNL     1      -5.436  -6.681   9.287  0.00  0.00    +0.189 A 
ATOM      6  N   UNL     1      -6.622  -6.674   8.700  0.00  0.00    -0.125 NA
ATOM      7  N   UNL     1      -7.628  -7.232   9.217  0.00  0.00    -0.133 NA
ATOM      8  C   UNL     1      -7.559  -7.860  10.382  0.00  0.00    +0.160 A 
ATOM      9  S   UNL     1      -5.827  -7.615  10.765  0.00  0.00    -0.024 S 
ATOM     10  H   UNL     1      -3.435  -6.224   9.423  0.00  0.00    +0.157 HD
BRANCH   8  11
ATOM     11  S   UNL     1      -8.812  -8.700  11.291  0.00  0.00    -0.097 S 
BRANCH  11  12
ATOM     12  C   UNL     1     -10.294  -8.526  10.260  0.00  0.00    +0.079 C 
BRANCH  12  13
ATOM     13  C   UNL     1     -11.475  -9.221  10.942  0.00  0.00    -0.007 C 
ATOM     14  C   UNL     1     -11.805  -8.500  12.250  0.00  0.00    +0.008 C 
ATOM     15  C   UNL     1     -12.693  -9.183  10.017  0.00  0.00    +0.008 C 
ENDBRANCH  12  13
ENDBRANCH  11  12
ENDBRANCH   8  11
ENDBRANCH   1   2
BRANCH   1  16
ATOM     16  S   UNL     1      -3.086  -4.021   5.663  0.00  0.00    -0.075 S 
BRANCH  16  20
ATOM     17  N   UNL     1       0.779  -1.636   3.250  0.00  0.00    -0.205 N 
ATOM     18  C   UNL     1       0.100  -2.358   4.214  0.00  0.00    +0.232 A 
ATOM     19  N   UNL     1      -1.176  -2.681   4.183  0.00  0.00    -0.186 NA
ATOM     20  C   UNL     1      -1.490  -3.380   5.279  0.00  0.00    +0.211 A 
ATOM     21  N   UNL     1      -0.417  -3.512   6.023  0.00  0.00    -0.144 NA
ATOM     22  N   UNL     1       0.629  -2.861   5.349  0.00  0.00    -0.245 N 
ATOM     23  H   UNL     1       1.725  -1.451   3.360  0.00  0.00    +0.177 HD
ATOM     24  H   UNL     1       1.551  -2.786   5.643  0.00  0.00    +0.192 HD
BRANCH  17  26
ATOM     25  C   UNL     1       0.731  -0.503   1.223  0.00  0.00    +0.034 C 
ATOM     26  N   UNL     1       0.102  -1.172   2.115  0.00  0.00    -0.189 NA
ATOM     27  C   UNL     1       2.200  -0.215   1.393  0.00  0.00    +0.062 C 
BRANCH  25  29
ATOM     28  C   UNL     1      -0.019   1.526   0.010  0.00  0.00    +0.010 C 
ATOM     29  C   UNL     1       0.002  -0.004   0.002  0.00  0.00    +0.049 C 
ENDBRANCH  25  29
ENDBRANCH  17  26
ENDBRANCH  16  20
ENDBRANCH   1  16
TORSDOF 8
