REMARK  Name = ZINC39685950
REMARK  6 active torsions:
REMARK  status: ('A' for Active; 'I' for Inactive)
REMARK    1  A    between atoms: C_1  and  C_2
REMARK    2  A    between atoms: C_2  and  C_3
REMARK    3  A    between atoms: C_2  and  C_4
REMARK    4  A    between atoms: C_9  and  N_12
REMARK    5  A    between atoms: C_13  and  C_15
REMARK    6  A    between atoms: C_26  and  C_28
REMARK                            x       y       z     vdW  Elec       q    Type
REMARK                         _______ _______ _______ _____ _____    ______ ____
ROOT
ATOM      1  C   UNL     1      -7.176   3.189  -2.993  0.00  0.00    +0.100 C 
ATOM      2  C   UNL     1      -7.628   3.722  -1.615  0.00  0.00    +0.121 C 
ATOM      3  N   UNL     1      -9.077   3.988  -1.772  0.00  0.00    -0.296 N 
ATOM      4  C   UNL     1      -9.571   2.861  -2.600  0.00  0.00    +0.115 C 
ATOM      5  C   UNL     1      -8.454   2.625  -3.636  0.00  0.00    -0.004 C 
ATOM      6  C   UNL     1      -8.768   3.370  -4.930  0.00  0.00    -0.010 C 
ATOM      7  C   UNL     1     -10.010   2.753  -5.580  0.00  0.00    -0.082 C 
ATOM      8  N   UNL     1      -9.765   1.333  -5.857  0.00  0.00    +0.379 N 
ATOM      9  C   UNL     1      -9.555   0.606  -4.599  0.00  0.00    -0.082 C 
ATOM     10  C   UNL     1      -8.294   1.132  -3.908  0.00  0.00    -0.010 C 
ATOM     11  C   UNL     1      -9.787   5.021  -1.276  0.00  0.00    +0.252 C 
ATOM     12  O   UNL     1     -10.980   5.099  -1.494  0.00  0.00    -0.270 OA
ATOM     13  H   UNL     1     -10.561   0.944  -6.340  0.00  0.00    -0.086 HD
ATOM     14  H   UNL     1      -8.945   1.242  -6.438  0.00  0.00    -0.086 HD
ENDROOT
BRANCH  11  15
ATOM     15  C   UNL     1      -9.115   6.056  -0.467  0.00  0.00    +0.107 A 
ATOM     16  C   UNL     1      -8.574   7.189  -1.084  0.00  0.00    +0.138 A 
ATOM     17  C   UNL     1      -7.947   8.154  -0.318  0.00  0.00    +0.039 A 
ATOM     18  C   UNL     1      -7.852   8.002   1.053  0.00  0.00    +0.006 A 
ATOM     19  C   UNL     1      -8.384   6.884   1.671  0.00  0.00    +0.039 A 
ATOM     20  C   UNL     1      -9.020   5.912   0.921  0.00  0.00    +0.138 A 
ATOM     21  F   UNL     1      -9.543   4.824   1.527  0.00  0.00    -0.205 F 
ATOM     22  F   UNL     1      -8.664   7.340  -2.423  0.00  0.00    -0.205 F 
ENDBRANCH  11  15
BRANCH   1  24
ATOM     23  N   UNL     1      -5.223   1.892  -3.781  0.00  0.00    -0.312 N 
ATOM     24  C   UNL     1      -6.149   2.100  -2.824  0.00  0.00    +0.218 C 
ATOM     25  O   UNL     1      -6.154   1.411  -1.826  0.00  0.00    -0.275 OA
ATOM     26  H   UNL     1      -5.219   2.443  -4.580  0.00  0.00    +0.149 HD
BRANCH  23  32
ATOM     27  C   UNL     1      -0.352  -0.365  -4.283  0.00  0.00    +0.218 C 
ATOM     28  O   UNL     1       0.521  -0.075  -3.493  0.00  0.00    -0.275 OA
ATOM     29  N   UNL     1      -1.646  -0.291  -3.913  0.00  0.00    -0.301 N 
ATOM     30  C   UNL     1      -2.710  -0.749  -4.818  0.00  0.00    +0.109 C 
ATOM     31  C   UNL     1      -3.728   0.382  -4.993  0.00  0.00    +0.041 C 
ATOM     32  C   UNL     1      -4.224   0.833  -3.617  0.00  0.00    +0.076 C 
ATOM     33  C   UNL     1      -3.046   1.367  -2.798  0.00  0.00    +0.041 C 
ATOM     34  C   UNL     1      -2.020   0.242  -2.596  0.00  0.00    +0.109 C 
BRANCH  27  36
ATOM     35  C   UNL     1      -0.083   0.385  -6.631  0.00  0.00    +0.017 C 
ATOM     36  C   UNL     1       0.010  -0.808  -5.677  0.00  0.00    +0.069 C 
ATOM     37  C   UNL     1       1.438  -1.356  -5.684  0.00  0.00    +0.017 C 
ENDBRANCH  27  36
ENDBRANCH  23  32
ENDBRANCH   1  24
TORSDOF 4
