REMARK  Name = ZINC36367052
REMARK  11 active torsions:
REMARK  status: ('A' for Active; 'I' for Inactive)
REMARK    1  A    between atoms: C_1  and  C_2
REMARK    2  A    between atoms: C_2  and  C_32
REMARK    3  A    between atoms: C_4  and  N_10
REMARK    4  A    between atoms: C_6  and  C_8
REMARK    5  A    between atoms: C_6  and  C_9
REMARK    6  A    between atoms: C_11  and  C_13
REMARK    7  A    between atoms: N_18  and  C_20
REMARK    8  A    between atoms: C_23  and  S_26
REMARK    9  A    between atoms: S_26  and  N_29
REMARK   10  A    between atoms: N_29  and  C_30
REMARK   11  A    between atoms: N_29  and  C_31
REMARK                            x       y       z     vdW  Elec       q    Type
REMARK                         _______ _______ _______ _____ _____    ______ ____
ROOT
ATOM      1  C   UNL     1       4.319  -0.872  -4.430  0.00  0.00    +0.101 C 
ATOM      2  C   UNL     1       3.357  -0.527  -5.591  0.00  0.00    +0.110 C 
ATOM      3  C   UNL     1       3.893   0.777  -6.141  0.00  0.00    +0.221 C 
ATOM      4  O   UNL     1       3.278   1.528  -6.868  0.00  0.00    -0.275 OA
ATOM      5  N   UNL     1       5.148   0.981  -5.706  0.00  0.00    -0.271 N 
ATOM      6  C   UNL     1       5.603  -0.122  -4.849  0.00  0.00    +0.127 C 
ENDROOT
BRANCH   5   7
ATOM      7  C   UNL     1       5.923   2.101  -6.028  0.00  0.00    +0.036 A 
ATOM      8  C   UNL     1       5.447   3.038  -6.936  0.00  0.00    +0.025 A 
ATOM      9  C   UNL     1       6.214   4.143  -7.252  0.00  0.00    +0.030 A 
ATOM     10  C   UNL     1       7.454   4.316  -6.665  0.00  0.00    +0.106 A 
ATOM     11  C   UNL     1       7.930   3.385  -5.760  0.00  0.00    +0.030 A 
ATOM     12  C   UNL     1       7.166   2.281  -5.436  0.00  0.00    +0.025 A 
BRANCH  10  13
ATOM     13  S   UNL     1       8.429   5.726  -7.070  0.00  0.00    +0.060 S 
ATOM     14  O   UNL     1       9.780   5.377  -6.801  0.00  0.00    -0.153 OA
ATOM     15  O   UNL     1       7.997   6.164  -8.351  0.00  0.00    -0.153 OA
BRANCH  13  16
ATOM     16  N   UNL     1       8.027   6.924  -6.000  0.00  0.00    -0.183 NA
ATOM     17  C   UNL     1       8.758   7.053  -4.737  0.00  0.00    +0.131 C 
ATOM     18  C   UNL     1       6.941   7.855  -6.316  0.00  0.00    +0.131 C 
ENDBRANCH  13  16
ENDBRANCH  10  13
ENDBRANCH   5   7
BRANCH   1  20
ATOM     19  N   UNL     1       2.640  -0.833  -2.614  0.00  0.00    -0.312 N 
ATOM     20  C   UNL     1       3.792  -0.348  -3.119  0.00  0.00    +0.218 C 
ATOM     21  O   UNL     1       4.404   0.511  -2.519  0.00  0.00    -0.275 OA
ATOM     22  H   UNL     1       2.151  -1.519  -3.094  0.00  0.00    +0.149 HD
BRANCH  19  26
ATOM     23  C   UNL     1       0.038   1.504   0.064  0.00  0.00    -0.010 C 
ATOM     24  C   UNL     1       0.055  -0.028   0.045  0.00  0.00    -0.072 C 
ATOM     25  C   UNL     1       0.612  -0.522  -1.286  0.00  0.00    +0.009 C 
ATOM     26  C   UNL     1       2.127  -0.322  -1.337  0.00  0.00    +0.070 C 
ATOM     27  C   UNL     1       2.750  -1.116  -0.189  0.00  0.00    +0.009 C 
ATOM     28  C   UNL     1       2.209  -0.628   1.151  0.00  0.00    -0.072 C 
ATOM     29  N   UNL     1       0.759  -0.563   1.197  0.00  0.00    +0.386 N 
ATOM     30  C   UNL     1       2.838   0.725   1.502  0.00  0.00    -0.010 C 
ATOM     31  C   UNL     1       2.669  -1.635   2.230  0.00  0.00    -0.010 C 
ATOM     32  C   UNL     1      -1.416  -0.498   0.133  0.00  0.00    -0.010 C 
ATOM     33  H   UNL     1       0.488  -0.017   2.021  0.00  0.00    -0.084 HD
ATOM     34  H   UNL     1       0.402  -1.506   1.381  0.00  0.00    -0.084 HD
ENDBRANCH  19  26
ENDBRANCH   1  20
TORSDOF 5
