REMARK  Name = ZINC39664006
REMARK  11 active torsions:
REMARK  status: ('A' for Active; 'I' for Inactive)
REMARK    1  A    between atoms: C_1  and  C_2
REMARK    2  A    between atoms: C_2  and  C_3
REMARK    3  A    between atoms: C_3  and  C_4
REMARK    4  A    between atoms: C_4  and  C_5
REMARK    5  A    between atoms: C_9  and  C_18
REMARK    6  A    between atoms: N_20  and  C_21
REMARK    7  A    between atoms: C_21  and  C_22
REMARK    8  A    between atoms: C_22  and  C_24
REMARK    9  A    between atoms: C_22  and  N_32
REMARK   10  A    between atoms: C_27  and  O_30
REMARK   11  A    between atoms: O_30  and  C_31
REMARK                            x       y       z     vdW  Elec       q    Type
REMARK                         _______ _______ _______ _____ _____    ______ ____
ROOT
ATOM      1  C   UNL     1       3.014  -5.891   0.480  0.00  0.00    +0.218 C 
ATOM      2  O   UNL     1       3.145  -4.799  -0.030  0.00  0.00    -0.275 OA
ATOM      3  N   UNL     1       3.778  -6.923   0.069  0.00  0.00    -0.316 N 
ATOM      4  H   UNL     1       3.673  -7.797   0.477  0.00  0.00    +0.149 HD
ENDROOT
BRANCH   1   9
ATOM      5  C   UNL     1       0.947  -2.658   2.010  0.00  0.00    +0.216 C 
ATOM      6  O   UNL     1       1.279  -1.825   2.827  0.00  0.00    -0.276 OA
ATOM      7  N   UNL     1       1.143  -3.967   2.264  0.00  0.00    -0.300 N 
ATOM      8  C   UNL     1       0.812  -5.120   1.395  0.00  0.00    +0.121 C 
ATOM      9  C   UNL     1       1.997  -6.096   1.573  0.00  0.00    +0.100 C 
ATOM     10  C   UNL     1       2.599  -5.736   2.942  0.00  0.00    -0.004 C 
ATOM     11  C   UNL     1       1.744  -4.577   3.474  0.00  0.00    +0.115 C 
ATOM     12  C   UNL     1       4.047  -5.284   2.780  0.00  0.00    -0.010 C 
ATOM     13  C   UNL     1       4.641  -4.986   4.160  0.00  0.00    -0.082 C 
ATOM     14  N   UNL     1       4.575  -6.192   4.993  0.00  0.00    +0.379 N 
ATOM     15  C   UNL     1       3.174  -6.567   5.221  0.00  0.00    -0.082 C 
ATOM     16  C   UNL     1       2.518  -6.931   3.886  0.00  0.00    -0.010 C 
ATOM     17  H   UNL     1       5.053  -6.949   4.527  0.00  0.00    -0.086 HD
ATOM     18  H   UNL     1       5.022  -6.012   5.880  0.00  0.00    -0.086 HD
BRANCH   5  19
ATOM     19  C   UNL     1       0.315  -2.229   0.711  0.00  0.00    +0.096 C 
BRANCH  19  20
ATOM     20  C   UNL     1       0.208  -0.703   0.675  0.00  0.00    +0.009 C 
BRANCH  20  22
ATOM     21  C   UNL     1      -0.540   1.258  -0.680  0.00  0.00    +0.004 C 
ATOM     22  C   UNL     1      -0.433  -0.268  -0.644  0.00  0.00    -0.003 C 
ENDBRANCH  20  22
ENDBRANCH  19  20
ENDBRANCH   5  19
ENDBRANCH   1   9
BRANCH   3  23
ATOM     23  C   UNL     1       4.767  -6.724  -0.994  0.00  0.00    +0.093 C 
BRANCH  23  24
ATOM     24  C   UNL     1       5.427  -8.062  -1.333  0.00  0.00    -0.020 C 
BRANCH  24  25
ATOM     25  C   UNL     1       6.224  -8.543  -0.148  0.00  0.00    -0.059 A 
ATOM     26  C   UNL     1       7.479  -8.019   0.098  0.00  0.00    +0.005 A 
ATOM     27  C   UNL     1       8.213  -8.459   1.183  0.00  0.00    +0.046 A 
ATOM     28  C   UNL     1       7.688  -9.427   2.027  0.00  0.00    +0.120 A 
ATOM     29  C   UNL     1       6.428  -9.951   1.778  0.00  0.00    +0.046 A 
ATOM     30  C   UNL     1       5.697  -9.505   0.694  0.00  0.00    +0.005 A 
BRANCH  28  31
ATOM     31  O   UNL     1       8.407  -9.862   3.095  0.00  0.00    -0.495 OA
ATOM     32  C   UNL     1       7.804 -10.861   3.920  0.00  0.00    +0.277 C 
ENDBRANCH  28  31
ENDBRANCH  24  25
BRANCH  24  33
ATOM     33  N   UNL     1       6.320  -7.889  -2.486  0.00  0.00    +0.385 N 
ATOM     34  C   UNL     1       6.940  -9.188  -2.853  0.00  0.00    -0.078 C 
ATOM     35  C   UNL     1       7.355  -8.978  -4.331  0.00  0.00    -0.020 C 
ATOM     36  C   UNL     1       6.194  -8.130  -4.899  0.00  0.00    -0.020 C 
ATOM     37  C   UNL     1       5.545  -7.463  -3.672  0.00  0.00    -0.078 C 
ATOM     38  H   UNL     1       7.034  -7.209  -2.275  0.00  0.00    -0.081 HD
ENDBRANCH  24  33
ENDBRANCH  23  24
ENDBRANCH   3  23
TORSDOF 9
