REMARK  Name = ZINC01269540
REMARK  8 active torsions:
REMARK  status: ('A' for Active; 'I' for Inactive)
REMARK    1  A    between atoms: N_9  and  C_27
REMARK    2  A    between atoms: C_10  and  S_12
REMARK    3  A    between atoms: S_12  and  C_13
REMARK    4  A    between atoms: C_13  and  C_14
REMARK    5  A    between atoms: N_16  and  N_17
REMARK    6  A    between atoms: C_18  and  C_19
REMARK    7  A    between atoms: C_22  and  O_26
REMARK    8  A    between atoms: C_23  and  O_25
REMARK                            x       y       z     vdW  Elec       q    Type
REMARK                         _______ _______ _______ _____ _____    ______ ____
ROOT
ATOM      1  C   UNL     1       2.189   1.426   0.897  0.00  0.00    +0.001 A 
ATOM      2  C   UNL     1       1.080   2.088   0.386  0.00  0.00    +0.002 A 
ATOM      3  C   UNL     1       0.004   1.393  -0.089  0.00  0.00    +0.028 A 
ATOM      4  C   UNL     1       0.016  -0.004  -0.063  0.00  0.00    +0.079 A 
ATOM      5  C   UNL     1       1.147  -0.674   0.457  0.00  0.00    +0.065 A 
ATOM      6  C   UNL     1       2.231   0.060   0.936  0.00  0.00    +0.015 A 
ATOM      7  C   UNL     1       1.136  -2.143   0.474  0.00  0.00    +0.267 A 
ATOM      8  O   UNL     1       2.081  -2.776   0.910  0.00  0.00    -0.267 OA
ATOM      9  N   UNL     1       0.038  -2.766  -0.012  0.00  0.00    -0.255 N 
ATOM     10  C   UNL     1      -1.014  -2.038  -0.497  0.00  0.00    +0.177 A 
ATOM     11  N   UNL     1      -1.025  -0.729  -0.522  0.00  0.00    -0.223 NA
ENDROOT
BRANCH   9  12
ATOM     12  C   UNL     1      -0.023  -4.166  -0.019  0.00  0.00    +0.052 A 
ATOM     13  C   UNL     1      -0.545  -4.845   1.075  0.00  0.00    +0.028 A 
ATOM     14  C   UNL     1      -0.609  -6.224   1.063  0.00  0.00    +0.022 A 
ATOM     15  C   UNL     1      -0.142  -6.931  -0.031  0.00  0.00    +0.041 A 
ATOM     16  C   UNL     1       0.383  -6.257  -1.120  0.00  0.00    +0.022 A 
ATOM     17  C   UNL     1       0.444  -4.877  -1.116  0.00  0.00    +0.028 A 
ATOM     18 CL   UNL     1      -0.217  -8.665  -0.039  0.00  0.00    -0.084 Cl
ENDBRANCH   9  12
BRANCH  10  19
ATOM     19  S   UNL     1      -2.418  -2.902  -1.118  0.00  0.00    -0.078 S 
BRANCH  19  20
ATOM     20  C   UNL     1      -3.457  -1.503  -1.608  0.00  0.00    +0.174 C 
BRANCH  20  21
ATOM     21  C   UNL     1      -4.751  -2.016  -2.185  0.00  0.00    +0.242 C 
ATOM     22  O   UNL     1      -4.952  -3.210  -2.257  0.00  0.00    -0.273 OA
ATOM     23  N   UNL     1      -5.686  -1.148  -2.619  0.00  0.00    -0.206 N 
ATOM     24  H   UNL     1      -5.525  -0.193  -2.561  0.00  0.00    +0.177 HD
BRANCH  23  25
ATOM     25  N   UNL     1      -6.889  -1.624  -3.156  0.00  0.00    -0.188 NA
ATOM     26  C   UNL     1      -7.789  -0.788  -3.574  0.00  0.00    +0.138 C 
BRANCH  26  27
ATOM     27  C   UNL     1      -9.056  -1.290  -4.138  0.00  0.00    -0.002 A 
ATOM     28  C   UNL     1      -9.286  -2.665  -4.228  0.00  0.00    +0.013 A 
ATOM     29  C   UNL     1     -10.474  -3.132  -4.751  0.00  0.00    +0.050 A 
ATOM     30  C   UNL     1     -11.437  -2.240  -5.199  0.00  0.00    +0.158 A 
ATOM     31  C   UNL     1     -11.211  -0.867  -5.118  0.00  0.00    +0.159 A 
ATOM     32  C   UNL     1     -10.026  -0.391  -4.590  0.00  0.00    +0.058 A 
BRANCH  31  33
ATOM     33  O   UNL     1     -12.158   0.005  -5.558  0.00  0.00    -0.503 OA
ATOM     34  H   UNL     1     -12.068   0.245  -6.490  0.00  0.00    +0.292 HD
ENDBRANCH  31  33
BRANCH  30  35
ATOM     35  O   UNL     1     -12.604  -2.705  -5.718  0.00  0.00    -0.503 OA
ATOM     36  H   UNL     1     -12.578  -2.852  -6.673  0.00  0.00    +0.292 HD
ENDBRANCH  30  35
ENDBRANCH  26  27
ENDBRANCH  23  25
ENDBRANCH  20  21
ENDBRANCH  19  20
ENDBRANCH  10  19
TORSDOF 8
