REMARK  Name = ZINC64152257
REMARK  6 active torsions:
REMARK  status: ('A' for Active; 'I' for Inactive)
REMARK    1  A    between atoms: C_7  and  C_10
REMARK    2  A    between atoms: C_10  and  C_11
REMARK    3  A    between atoms: C_11  and  N_12
REMARK    4  A    between atoms: N_12  and  C_13
REMARK    5  A    between atoms: N_27  and  C_30
REMARK    6  A    between atoms: C_30  and  C_31
REMARK                            x       y       z     vdW  Elec       q    Type
REMARK                         _______ _______ _______ _____ _____    ______ ____
ROOT
ATOM      1  C   UNL     1      -0.685  -5.250  -2.841  0.00  0.00    -0.067 C 
ATOM      2  C   UNL     1      -1.730  -6.370  -2.853  0.00  0.00    -0.011 C 
ATOM      3  C   UNL     1      -2.132  -6.678  -4.295  0.00  0.00    +0.031 C 
ATOM      4  C   UNL     1      -0.874  -6.942  -5.117  0.00  0.00    -0.046 C 
ATOM      5  C   UNL     1       0.318  -6.526  -4.699  0.00  0.00    -0.014 C 
ATOM      6  C   UNL     1       0.625  -5.791  -3.426  0.00  0.00    +0.026 C 
ATOM      7  S   UNL     1       1.495  -6.984  -5.954  0.00  0.00    -0.102 S 
ATOM      8  C   UNL     1       0.286  -7.301  -7.317  0.00  0.00    +0.184 C 
ATOM      9  C   UNL     1      -0.917  -7.699  -6.422  0.00  0.00    +0.137 C 
ATOM     10  C   UNL     1      -2.201  -7.431  -7.151  0.00  0.00    +0.231 C 
ATOM     11  O   UNL     1      -3.186  -8.093  -6.902  0.00  0.00    -0.274 OA
ATOM     12  N   UNL     1      -2.265  -6.458  -8.082  0.00  0.00    -0.257 N 
ATOM     13  C   UNL     1      -1.171  -5.660  -8.314  0.00  0.00    +0.186 C 
ATOM     14  N   UNL     1       0.028  -6.031  -7.989  0.00  0.00    -0.261 NA
ENDROOT
BRANCH   1  15
ATOM     15  N   UNL     1      -0.461  -4.801  -1.460  0.00  0.00    +0.381 N 
ATOM     16  H   UNL     1      -0.057  -5.553  -0.923  0.00  0.00    -0.086 HD
ATOM     17  H   UNL     1      -1.340  -4.528  -1.048  0.00  0.00    -0.086 HD
BRANCH  15  18
ATOM     18  C   UNL     1       0.457  -3.653  -1.462  0.00  0.00    -0.078 C 
BRANCH  18  19
ATOM     19  C   UNL     1       0.691  -3.186  -0.024  0.00  0.00    +0.014 C 
BRANCH  19  26
ATOM     20  C   UNL     1      -0.016   1.348   0.009  0.00  0.00    +0.001 A 
ATOM     21  C   UNL     1       1.166   2.101   0.002  0.00  0.00    +0.002 A 
ATOM     22  C   UNL     1       2.391   1.535  -0.013  0.00  0.00    +0.026 A 
ATOM     23  C   UNL     1       2.529   0.120  -0.022  0.00  0.00    +0.043 A 
ATOM     24  N   UNL     1       3.587  -0.654  -0.037  0.00  0.00    -0.380 N 
ATOM     25  C   UNL     1       3.143  -2.053  -0.041  0.00  0.00    +0.144 C 
ATOM     26  C   UNL     1       1.631  -2.008  -0.025  0.00  0.00    -0.043 C 
ATOM     27  C   UNL     1       1.295  -0.698  -0.014  0.00  0.00    -0.001 A 
ATOM     28  C   UNL     1       0.002  -0.004   0.002  0.00  0.00    +0.010 A 
ATOM     29  H   UNL     1       4.509  -0.353  -0.045  0.00  0.00    +0.160 HD
ENDBRANCH  19  26
ENDBRANCH  18  19
ENDBRANCH  15  18
ENDBRANCH   1  15
BRANCH  12  30
ATOM     30  C   UNL     1      -3.499  -6.252  -8.844  0.00  0.00    +0.149 C 
BRANCH  30  31
ATOM     31  C   UNL     1      -4.380  -5.268  -8.118  0.00  0.00    -0.027 A 
ATOM     32  C   UNL     1      -5.297  -5.718  -7.187  0.00  0.00    +0.005 A 
ATOM     33  C   UNL     1      -6.106  -4.816  -6.521  0.00  0.00    +0.003 A 
ATOM     34  C   UNL     1      -5.998  -3.463  -6.785  0.00  0.00    +0.038 A 
ATOM     35  C   UNL     1      -5.079  -3.012  -7.718  0.00  0.00    +0.124 A 
ATOM     36  C   UNL     1      -4.266  -3.916  -8.380  0.00  0.00    +0.043 A 
ATOM     37  F   UNL     1      -4.973  -1.690  -7.977  0.00  0.00    -0.205 F 
ENDBRANCH  30  31
ENDBRANCH  12  30
TORSDOF 6
