REMARK  Name = ZINC21258648
REMARK  10 active torsions:
REMARK  status: ('A' for Active; 'I' for Inactive)
REMARK    1  A    between atoms: C_1  and  C_2
REMARK    2  A    between atoms: C_2  and  C_3
REMARK    3  A    between atoms: C_3  and  C_4
REMARK    4  A    between atoms: C_4  and  O_5
REMARK    5  A    between atoms: O_5  and  C_6
REMARK    6  A    between atoms: C_11  and  C_12
REMARK    7  A    between atoms: C_17  and  C_22
REMARK    8  A    between atoms: C_25  and  N_28
REMARK    9  A    between atoms: N_28  and  C_29
REMARK   10  A    between atoms: N_28  and  C_30
REMARK                            x       y       z     vdW  Elec       q    Type
REMARK                         _______ _______ _______ _____ _____    ______ ____
ROOT
ATOM      1  C   UNL     1      -0.001   5.365   0.022  0.00  0.00    +0.139 C 
ATOM      2  C   UNL     1      -0.154   5.850  -1.400  0.00  0.00    +0.037 C 
ATOM      3  C   UNL     1       0.789   6.473  -2.126  0.00  0.00    +0.017 C 
ATOM      4  C   UNL     1       0.511   6.870  -3.567  0.00  0.00    +0.059 C 
ATOM      5  C   UNL     1      -0.962   7.240  -3.729  0.00  0.00    +0.032 C 
ATOM      6  C   UNL     1      -1.796   6.011  -3.349  0.00  0.00    +0.088 C 
ATOM      7  C   UNL     1      -1.430   5.595  -1.956  0.00  0.00    +0.163 C 
ATOM      8  O   UNL     1      -2.259   5.019  -1.280  0.00  0.00    -0.292 OA
ATOM      9  N   UNL     1       2.033   6.785  -1.682  0.00  0.00    -0.316 N 
ATOM     10  C   UNL     1       2.871   5.913  -0.997  0.00  0.00    +0.052 A 
ATOM     11  C   UNL     1       4.076   5.480  -1.523  0.00  0.00    +0.025 A 
ATOM     12  C   UNL     1       4.885   4.647  -0.769  0.00  0.00    +0.002 A 
ATOM     13  C   UNL     1       4.494   4.254   0.498  0.00  0.00    +0.002 A 
ATOM     14  C   UNL     1       3.281   4.673   1.018  0.00  0.00    +0.025 A 
ATOM     15  C   UNL     1       2.460   5.490   0.258  0.00  0.00    +0.049 A 
ATOM     16  N   UNL     1       1.186   5.849   0.695  0.00  0.00    -0.331 N 
ATOM     17  H   UNL     1       2.443   7.791  -1.857  0.00  0.00    +0.152 HD
ATOM     18  H   UNL     1       1.092   6.513   1.567  0.00  0.00    +0.147 HD
ENDROOT
BRANCH   1  24
ATOM     19  C   UNL     1      -0.187   3.152   1.186  0.00  0.00    +0.126 A 
ATOM     20  C   UNL     1      -0.159   1.765   1.173  0.00  0.00    +0.046 A 
ATOM     21  C   UNL     1       0.101   1.091  -0.005  0.00  0.00    +0.004 A 
ATOM     22  C   UNL     1       0.323   1.799  -1.173  0.00  0.00    +0.001 A 
ATOM     23  C   UNL     1       0.289   3.181  -1.164  0.00  0.00    +0.009 A 
ATOM     24  C   UNL     1       0.035   3.859   0.013  0.00  0.00    +0.019 A 
BRANCH  19  25
ATOM     25  O   UNL     1      -0.437   3.817   2.344  0.00  0.00    -0.492 OA
BRANCH  25  26
ATOM     26  C   UNL     1      -0.657   3.024   3.513  0.00  0.00    +0.229 C 
BRANCH  26  27
ATOM     27  C   UNL     1      -0.921   3.941   4.709  0.00  0.00    +0.041 C 
BRANCH  27  29
ATOM     28  C   UNL     1      -1.420   4.009   7.156  0.00  0.00    +0.004 C 
ATOM     29  C   UNL     1      -1.155   3.092   5.960  0.00  0.00    -0.000 C 
ENDBRANCH  27  29
ENDBRANCH  26  27
ENDBRANCH  25  26
ENDBRANCH  19  25
ENDBRANCH   1  24
BRANCH   5  30
ATOM     30  C   UNL     1      -1.238   7.622  -5.161  0.00  0.00    -0.043 A 
ATOM     31  C   UNL     1      -1.008   6.710  -6.175  0.00  0.00    +0.006 A 
ATOM     32  C   UNL     1      -1.265   7.055  -7.487  0.00  0.00    +0.023 A 
ATOM     33  C   UNL     1      -1.745   8.323  -7.789  0.00  0.00    +0.029 A 
ATOM     34  C   UNL     1      -1.969   9.238  -6.769  0.00  0.00    +0.023 A 
ATOM     35  C   UNL     1      -1.715   8.885  -5.458  0.00  0.00    +0.006 A 
BRANCH  33  36
ATOM     36  N   UNL     1      -2.001   8.677  -9.116  0.00  0.00    -0.336 N 
ATOM     37  C   UNL     1      -2.390  10.050  -9.446  0.00  0.00    +0.129 C 
ATOM     38  C   UNL     1      -1.880   7.674 -10.178  0.00  0.00    +0.129 C 
ENDBRANCH  33  36
ENDBRANCH   5  30
TORSDOF 7
