REMARK  Name = ZINC21796155
REMARK  10 active torsions:
REMARK  status: ('A' for Active; 'I' for Inactive)
REMARK    1  A    between atoms: C_1  and  C_2
REMARK    2  A    between atoms: C_5  and  C_9
REMARK    3  A    between atoms: C_7  and  C_8
REMARK    4  A    between atoms: C_12  and  C_14
REMARK    5  A    between atoms: C_14  and  C_15
REMARK    6  A    between atoms: C_15  and  C_16
REMARK    7  A    between atoms: C_16  and  O_18
REMARK    8  A    between atoms: O_18  and  C_19
REMARK    9  A    between atoms: C_19  and  C_20
REMARK   10  A    between atoms: N_22  and  C_23
REMARK                            x       y       z     vdW  Elec       q    Type
REMARK                         _______ _______ _______ _____ _____    ______ ____
ROOT
ATOM      1  O   UNL     1       0.698  -2.256   0.262  0.00  0.00    -0.455 OA
ENDROOT
BRANCH   1   2
ATOM      2  C   UNL     1       1.670  -3.178   0.179  0.00  0.00    +0.308 C 
ATOM      3  O   UNL     1       2.804  -2.841  -0.068  0.00  0.00    -0.251 OA
BRANCH   2   4
ATOM      4  C   UNL     1       1.348  -4.635   0.395  0.00  0.00    +0.130 C 
BRANCH   4   5
ATOM      5  C   UNL     1       2.624  -5.466   0.246  0.00  0.00    +0.107 C 
BRANCH   5   9
ATOM      6  C   UNL     1       1.983  -8.847   1.421  0.00  0.00    +0.155 A 
ATOM      7  C   UNL     1       1.740  -8.967   0.091  0.00  0.00    +0.161 A 
ATOM      8  N   UNL     1       1.941  -7.764  -0.467  0.00  0.00    -0.221 NA
ATOM      9  C   UNL     1       2.301  -6.923   0.462  0.00  0.00    +0.197 A 
ATOM     10  O   UNL     1       2.334  -7.560   1.640  0.00  0.00    -0.440 OA
BRANCH   6  15
ATOM     11  C   UNL     1       1.593 -13.014   5.370  0.00  0.00    +0.044 C 
ATOM     12  C   UNL     1       1.695 -11.923   4.336  0.00  0.00    -0.047 A 
ATOM     13  C   UNL     1       1.413 -12.201   3.010  0.00  0.00    +0.004 A 
ATOM     14  C   UNL     1       1.505 -11.207   2.058  0.00  0.00    +0.012 A 
ATOM     15  C   UNL     1       1.883  -9.917   2.436  0.00  0.00    +0.019 A 
ATOM     16  C   UNL     1       2.171  -9.644   3.773  0.00  0.00    +0.015 A 
ATOM     17  C   UNL     1       2.071 -10.647   4.716  0.00  0.00    -0.047 A 
ATOM     18  C   UNL     1       2.376 -10.353   6.162  0.00  0.00    +0.044 C 
ENDBRANCH   6  15
ENDBRANCH   5   9
ENDBRANCH   4   5
ENDBRANCH   2   4
ENDBRANCH   1   2
BRANCH   1  19
ATOM     19  C   UNL     1       1.081  -0.873   0.042  0.00  0.00    +0.328 C 
BRANCH  19  20
ATOM     20  C   UNL     1      -0.132   0.011   0.174  0.00  0.00    +0.255 C 
ATOM     21  O   UNL     1      -1.214  -0.477   0.427  0.00  0.00    -0.272 OA
ATOM     22  N   UNL     1      -0.016   1.344   0.009  0.00  0.00    -0.283 N 
ATOM     23  H   UNL     1       0.977   1.796  -0.132  0.00  0.00    +0.155 HD
BRANCH  22  24
ATOM     24  C   UNL     1      -1.160   2.153   0.019  0.00  0.00    +0.037 A 
ATOM     25  C   UNL     1      -2.358   1.667  -0.487  0.00  0.00    +0.027 A 
ATOM     26  C   UNL     1      -3.489   2.462  -0.475  0.00  0.00    +0.051 A 
ATOM     27  C   UNL     1      -3.426   3.748   0.032  0.00  0.00    +0.167 A 
ATOM     28  C   UNL     1      -2.223   4.241   0.536  0.00  0.00    +0.169 A 
ATOM     29  C   UNL     1      -1.093   3.443   0.529  0.00  0.00    +0.073 A 
ATOM     30  O   UNL     1      -2.430   5.525   0.969  0.00  0.00    -0.447 OA
ATOM     31  C   UNL     1      -3.849   5.596   1.167  0.00  0.00    +0.254 C 
ATOM     32  O   UNL     1      -4.377   4.728   0.154  0.00  0.00    -0.448 OA
ATOM     33  C   UNL     1      -4.362   7.030   0.992  0.00  0.00    +0.093 C 
ATOM     34  C   UNL     1      -5.518   7.142   2.020  0.00  0.00    +0.008 C 
ATOM     35  C   UNL     1      -4.993   6.314   3.221  0.00  0.00    +0.008 C 
ATOM     36  C   UNL     1      -4.245   5.130   2.568  0.00  0.00    +0.093 C 
ENDBRANCH  22  24
ENDBRANCH  19  20
ENDBRANCH   1  19
TORSDOF 8
