REMARK  Name = ZINC39587064
REMARK  3 active torsions:
REMARK  status: ('A' for Active; 'I' for Inactive)
REMARK    1  A    between atoms: C_3  and  C_6
REMARK    2  A    between atoms: C_8  and  C_12
REMARK    3  A    between atoms: C_15  and  C_18
REMARK                            x       y       z     vdW  Elec       q    Type
REMARK                         _______ _______ _______ _____ _____    ______ ____
ROOT
ATOM      1  C   UNL     1       6.500  -0.474   1.186  0.00  0.00    +0.322 C 
ATOM      2  N   UNL     1       7.872   0.056   1.191  0.00  0.00    -0.287 N 
ATOM      3  C   UNL     1       7.994   0.841   2.324  0.00  0.00    +0.168 C 
ATOM      4  N   UNL     1       6.893   0.859   3.000  0.00  0.00    -0.067 NA
ATOM      5  O   UNL     1       5.898   0.067   2.373  0.00  0.00    -0.367 OA
ATOM      6  H   UNL     1       8.560  -0.113   0.528  0.00  0.00    +0.151 HD
ENDROOT
BRANCH   3   7
ATOM      7  C   UNL     1       9.225   1.565   2.711  0.00  0.00    +0.018 A 
ATOM      8  C   UNL     1      10.365   1.487   1.910  0.00  0.00    +0.012 A 
ATOM      9  C   UNL     1      11.510   2.164   2.276  0.00  0.00    +0.016 A 
ATOM     10  C   UNL     1      11.529   2.920   3.435  0.00  0.00    +0.018 A 
ATOM     11  C   UNL     1      10.401   3.002   4.234  0.00  0.00    +0.016 A 
ATOM     12  C   UNL     1       9.249   2.333   3.875  0.00  0.00    +0.012 A 
ATOM     13 BR   UNL     1      13.103   3.845   3.930  0.00  0.00    -0.050 Br
ENDBRANCH   3   7
BRANCH   1  16
ATOM     14  C   UNL     1       3.574   0.619  -0.029  0.00  0.00    +0.126 C 
ATOM     15  C   UNL     1       4.318  -0.508  -0.048  0.00  0.00    +0.040 C 
ATOM     16  C   UNL     1       5.748   0.002  -0.058  0.00  0.00    +0.215 C 
ATOM     17  N   UNL     1       5.584   1.465  -0.043  0.00  0.00    -0.174 NA
ATOM     18  N   UNL     1       4.377   1.716  -0.033  0.00  0.00    -0.150 NA
BRANCH  14  21
ATOM     19  C   UNL     1      -0.016   1.343   0.009  0.00  0.00    +0.042 A 
ATOM     20  C   UNL     1       1.325   1.774  -0.001  0.00  0.00    +0.051 A 
ATOM     21  C   UNL     1       2.097   0.654  -0.014  0.00  0.00    +0.154 A 
ATOM     22  O   UNL     1       1.280  -0.417  -0.012  0.00  0.00    -0.461 OA
ATOM     23  C   UNL     1       0.002  -0.004   0.002  0.00  0.00    +0.196 A 
ENDBRANCH  14  21
ENDBRANCH   1  16
TORSDOF 3
