REMARK  Name = ZINC66467992
REMARK  5 active torsions:
REMARK  status: ('A' for Active; 'I' for Inactive)
REMARK    1  A    between atoms: C_3  and  C_6
REMARK    2  A    between atoms: C_8  and  C_12
REMARK    3  A    between atoms: C_12  and  N_13
REMARK    4  A    between atoms: N_13  and  C_14
REMARK    5  A    between atoms: C_17  and  N_21
REMARK                            x       y       z     vdW  Elec       q    Type
REMARK                         _______ _______ _______ _____ _____    ______ ____
ROOT
ATOM      1  C   UNL     1       7.333   1.339  -0.070  0.00  0.00    +0.177 C 
ENDROOT
BRANCH   1   4
ATOM      2  C   UNL     1       3.740   1.825  -0.024  0.00  0.00    +0.188 A 
ATOM      3  N   UNL     1       4.842   1.062  -0.044  0.00  0.00    -0.209 NA
ATOM      4  C   UNL     1       5.906   1.821  -0.050  0.00  0.00    +0.143 A 
ATOM      5  N   UNL     1       5.508   3.106  -0.033  0.00  0.00    -0.261 N 
ATOM      6  H   UNL     1       6.080   3.890  -0.033  0.00  0.00    +0.190 HD
ATOM      7  N   UNL     1       4.104   3.091  -0.022  0.00  0.00    -0.152 NA
BRANCH   2  10
ATOM      8  C   UNL     1      -0.016   1.353   0.009  0.00  0.00    +0.008 A 
ATOM      9  C   UNL     1       1.178   2.041   0.002  0.00  0.00    +0.019 A 
ATOM     10  C   UNL     1       2.347   1.329  -0.013  0.00  0.00    +0.058 A 
ATOM     11  S   UNL     1       1.752  -0.354  -0.017  0.00  0.00    -0.093 S 
ATOM     12  C   UNL     1       0.002  -0.004   0.002  0.00  0.00    +0.046 A 
ENDBRANCH   2  10
ENDBRANCH   1   4
BRANCH   1  13
ATOM     13  N   UNL     1       7.773   1.057   1.298  0.00  0.00    -0.336 N 
ATOM     14  H   UNL     1       7.164   1.191   2.041  0.00  0.00    +0.147 HD
BRANCH  13  15
ATOM     15  C   UNL     1       9.070   0.594   1.534  0.00  0.00    +0.046 A 
ATOM     16  C   UNL     1       9.946   0.407   0.472  0.00  0.00    +0.026 A 
ATOM     17  C   UNL     1      11.228  -0.050   0.709  0.00  0.00    +0.034 A 
ATOM     18  C   UNL     1      11.640  -0.322   2.000  0.00  0.00    +0.128 A 
ATOM     19  C   UNL     1      10.772  -0.137   3.060  0.00  0.00    +0.054 A 
ATOM     20  C   UNL     1       9.489   0.325   2.832  0.00  0.00    +0.064 A 
ATOM     21 CL   UNL     1       8.401   0.564   4.163  0.00  0.00    -0.082 Cl
BRANCH  18  22
ATOM     22  N   UNL     1      13.014  -0.812   2.249  0.00  0.00    +0.056 N 
ATOM     23  O   UNL     1      13.775  -0.975   1.323  0.00  0.00    -0.126 OA
ATOM     24  O   UNL     1      13.376  -1.050   3.378  0.00  0.00    -0.126 OA
ENDBRANCH  18  22
ENDBRANCH  13  15
ENDBRANCH   1  13
TORSDOF 5
