REMARK  Name = ZINC14138637
REMARK  12 active torsions:
REMARK  status: ('A' for Active; 'I' for Inactive)
REMARK    1  A    between atoms: C_1  and  C_2
REMARK    2  A    between atoms: C_3  and  C_15
REMARK    3  A    between atoms: C_4  and  C_14
REMARK    4  A    between atoms: N_5  and  C_7
REMARK    5  A    between atoms: C_7  and  C_8
REMARK    6  A    between atoms: C_15  and  N_67
REMARK    7  A    between atoms: C_16  and  C_18
REMARK    8  A    between atoms: C_16  and  C_19
REMARK    9  A    between atoms: C_16  and  N_67
REMARK   10  A    between atoms: N_21  and  C_22
REMARK   11  A    between atoms: C_25  and  S_28
REMARK   12  A    between atoms: S_28  and  N_31
REMARK                            x       y       z     vdW  Elec       q    Type
REMARK                         _______ _______ _______ _____ _____    ______ ____
ROOT
ATOM      1  C   UNL     1      -4.182   7.994  -5.371  0.00  0.00    +0.014 C 
ATOM      2  C   UNL     1      -5.005   7.283  -6.446  0.00  0.00    -0.004 C 
ENDROOT
BRANCH   1   3
ATOM      3  C   UNL     1      -4.878   9.269  -4.967  0.00  0.00    +0.203 C 
ATOM      4  O   UNL     1      -5.225   9.431  -3.816  0.00  0.00    -0.277 OA
ATOM      5  N   UNL     1      -5.114  10.227  -5.884  0.00  0.00    -0.287 N 
ATOM      6  H   UNL     1      -4.769  10.132  -6.785  0.00  0.00    +0.155 HD
BRANCH   5   7
ATOM      7  C   UNL     1      -5.856  11.361  -5.535  0.00  0.00    +0.033 A 
ATOM      8  C   UNL     1      -6.887  11.261  -4.610  0.00  0.00    +0.025 A 
ATOM      9  C   UNL     1      -7.615  12.383  -4.265  0.00  0.00    +0.030 A 
ATOM     10  C   UNL     1      -7.325  13.603  -4.847  0.00  0.00    +0.106 A 
ATOM     11  C   UNL     1      -6.303  13.705  -5.773  0.00  0.00    +0.030 A 
ATOM     12  C   UNL     1      -5.568  12.588  -6.118  0.00  0.00    +0.025 A 
BRANCH  10  13
ATOM     13  S   UNL     1      -8.260  15.030  -4.409  0.00  0.00    +0.061 S 
ATOM     14  O   UNL     1      -8.801  14.781  -3.119  0.00  0.00    -0.153 OA
ATOM     15  O   UNL     1      -7.438  16.156  -4.686  0.00  0.00    -0.153 OA
BRANCH  13  16
ATOM     16  N   UNL     1      -9.544  15.114  -5.452  0.00  0.00    -0.177 NA
ATOM     17  C   UNL     1      -9.556  15.822  -6.741  0.00  0.00    +0.109 C 
ATOM     18  C   UNL     1     -10.964  15.646  -7.347  0.00  0.00    +0.018 C 
ATOM     19  C   UNL     1     -11.839  15.336  -6.103  0.00  0.00    +0.018 C 
ATOM     20  C   UNL     1     -10.865  14.496  -5.239  0.00  0.00    +0.109 C 
ENDBRANCH  13  16
ENDBRANCH  10  13
ENDBRANCH   5   7
ENDBRANCH   1   3
BRANCH   1  21
ATOM     21  N   UNL     1      -4.051   7.119  -4.191  0.00  0.00    +0.389 N 
ATOM     22  H   UNL     1      -3.894   7.696  -3.356  0.00  0.00    -0.084 HD
ATOM     23  H   UNL     1      -4.915   6.577  -4.074  0.00  0.00    -0.084 HD
BRANCH  21  24
ATOM     24  C   UNL     1      -2.915   6.194  -4.363  0.00  0.00    -0.042 C 
BRANCH  24  27
ATOM     25  C   UNL     1      -4.342   3.394  -3.954  0.00  0.00    +0.068 C 
ATOM     26  C   UNL     1      -3.436   4.078  -2.963  0.00  0.00    +0.062 A 
ATOM     27  C   UNL     1      -2.806   5.314  -3.144  0.00  0.00    -0.021 A 
ATOM     28  C   UNL     1      -2.087   5.582  -2.030  0.00  0.00    +0.038 A 
ATOM     29  N   UNL     1      -2.248   4.548  -1.178  0.00  0.00    -0.264 N 
ATOM     30  N   UNL     1      -3.102   3.618  -1.784  0.00  0.00    -0.176 NA
ATOM     31  C   UNL     1      -1.253   6.813  -1.786  0.00  0.00    +0.065 C 
BRANCH  29  32
ATOM     32  C   UNL     1      -1.641   4.424   0.150  0.00  0.00    +0.178 C 
BRANCH  32  33
ATOM     33  C   UNL     1      -0.311   3.726   0.032  0.00  0.00    -0.026 A 
ATOM     34  C   UNL     1      -0.243   2.348   0.119  0.00  0.00    +0.005 A 
ATOM     35  C   UNL     1       0.978   1.708   0.015  0.00  0.00    +0.000 A 
ATOM     36  C   UNL     1       2.129   2.445  -0.187  0.00  0.00    +0.000 A 
ATOM     37  C   UNL     1       2.061   3.823  -0.280  0.00  0.00    +0.000 A 
ATOM     38  C   UNL     1       0.841   4.463  -0.171  0.00  0.00    +0.005 A 
ENDBRANCH  32  33
ENDBRANCH  29  32
ENDBRANCH  24  27
ENDBRANCH  21  24
ENDBRANCH   1  21
TORSDOF 9
