REMARK  Name = ZINC63980894
REMARK  5 active torsions:
REMARK  status: ('A' for Active; 'I' for Inactive)
REMARK    1  A    between atoms: C_1  and  N_2
REMARK    2  A    between atoms: N_2  and  C_3
REMARK    3  A    between atoms: C_9  and  C_12
REMARK    4  A    between atoms: N_14  and  C_15
REMARK    5  A    between atoms: C_22  and  C_24
REMARK                            x       y       z     vdW  Elec       q    Type
REMARK                         _______ _______ _______ _____ _____    ______ ____
ROOT
ATOM      1  C   UNL     1       2.708  -5.506  -1.050  0.00  0.00    +0.220 C 
ATOM      2  O   UNL     1       3.386  -5.530  -0.045  0.00  0.00    -0.275 OA
ATOM      3  N   UNL     1       3.026  -6.294  -2.096  0.00  0.00    -0.285 N 
ATOM      4  H   UNL     1       2.438  -6.338  -2.866  0.00  0.00    +0.155 HD
ENDROOT
BRANCH   1  13
ATOM      5  C   UNL     1      -0.053   1.459  -2.047  0.00  0.00    +0.133 C 
ATOM      6  N   UNL     1      -0.170  -0.001  -2.088  0.00  0.00    -0.292 N 
ATOM      7  C   UNL     1      -0.605  -0.667  -3.319  0.00  0.00    +0.133 C 
ATOM      8  C   UNL     1       0.122  -0.731  -0.994  0.00  0.00    +0.304 C 
ATOM      9  O   UNL     1       0.284  -0.182   0.078  0.00  0.00    -0.252 OA
ATOM     10  N   UNL     1       0.234  -2.071  -1.088  0.00  0.00    -0.285 N 
ATOM     11  C   UNL     1       0.136  -2.917   0.109  0.00  0.00    +0.110 C 
ATOM     12  C   UNL     1       1.374  -3.816   0.180  0.00  0.00    +0.032 C 
ATOM     13  C   UNL     1       1.510  -4.595  -1.130  0.00  0.00    +0.078 C 
ATOM     14  C   UNL     1       1.691  -3.615  -2.291  0.00  0.00    +0.032 C 
ATOM     15  C   UNL     1       0.451  -2.714  -2.392  0.00  0.00    +0.110 C 
ENDBRANCH   1  13
BRANCH   3  16
ATOM     16  C   UNL     1       4.205  -7.050  -2.071  0.00  0.00    +0.035 A 
ATOM     17  C   UNL     1       4.286  -8.252  -2.772  0.00  0.00    +0.025 A 
ATOM     18  C   UNL     1       5.418  -9.005  -2.764  0.00  0.00    +0.031 A 
ATOM     19  C   UNL     1       6.555  -8.588  -2.039  0.00  0.00    +0.079 A 
ATOM     20  C   UNL     1       6.449  -7.366  -1.337  0.00  0.00    +0.041 A 
ATOM     21  C   UNL     1       5.306  -6.605  -1.352  0.00  0.00    +0.040 A 
ATOM     22  S   UNL     1       8.053  -7.231  -0.591  0.00  0.00    -0.072 S 
ATOM     23  C   UNL     1       8.713  -8.659  -1.190  0.00  0.00    +0.083 A 
ATOM     24  N   UNL     1       7.759  -9.181  -1.904  0.00  0.00    -0.244 NA
BRANCH  23  25
ATOM     25  C   UNL     1      10.096  -9.208  -0.954  0.00  0.00    +0.045 C 
ATOM     26  C   UNL     1      10.523 -10.427  -1.774  0.00  0.00    +0.011 C 
ATOM     27  C   UNL     1      10.207 -10.579  -0.285  0.00  0.00    +0.011 C 
ENDBRANCH  23  25
ENDBRANCH   3  16
TORSDOF 3
