REMARK  Name = ZINC67255216
REMARK  9 active torsions:
REMARK  status: ('A' for Active; 'I' for Inactive)
REMARK    1  A    between atoms: C_1  and  C_2
REMARK    2  A    between atoms: C_2  and  N_3
REMARK    3  A    between atoms: N_3  and  C_4
REMARK    4  A    between atoms: C_4  and  C_5
REMARK    5  A    between atoms: C_8  and  C_11
REMARK    6  A    between atoms: C_11  and  N_12
REMARK    7  A    between atoms: N_12  and  C_13
REMARK    8  A    between atoms: N_12  and  C_14
REMARK    9  A    between atoms: N_17  and  C_18
REMARK                            x       y       z     vdW  Elec       q    Type
REMARK                         _______ _______ _______ _____ _____    ______ ____
ROOT
ATOM      1  N   UNL     1      -1.331  -0.669   0.017  0.00  0.00    -0.281 N 
ATOM      2  C   UNL     1      -1.937  -0.909   1.196  0.00  0.00    +0.307 C 
ATOM      3  O   UNL     1      -3.014  -1.473   1.223  0.00  0.00    -0.252 OA
ATOM      4  N   UNL     1      -1.350  -0.524   2.347  0.00  0.00    -0.269 N 
ATOM      5  H   UNL     1      -0.458  -0.143   2.332  0.00  0.00    +0.156 HD
ENDROOT
BRANCH   4   6
ATOM      6  C   UNL     1      -2.029  -0.672   3.564  0.00  0.00    +0.037 A 
ATOM      7  C   UNL     1      -1.319  -0.950   4.724  0.00  0.00    +0.027 A 
ATOM      8  C   UNL     1      -1.984  -1.096   5.928  0.00  0.00    +0.049 A 
ATOM      9  C   UNL     1      -3.361  -0.966   5.977  0.00  0.00    +0.142 A 
ATOM     10  C   UNL     1      -4.076  -0.688   4.813  0.00  0.00    +0.077 A 
ATOM     11  C   UNL     1      -3.410  -0.536   3.609  0.00  0.00    +0.050 A 
ATOM     12  N   UNL     1      -5.471  -0.561   4.880  0.00  0.00    -0.280 N 
ATOM     13  C   UNL     1      -6.057  -0.395   6.085  0.00  0.00    +0.255 C 
ATOM     14  O   UNL     1      -7.264  -0.312   6.170  0.00  0.00    -0.272 OA
ATOM     15  C   UNL     1      -5.204  -0.311   7.326  0.00  0.00    +0.325 C 
ATOM     16  O   UNL     1      -4.028  -1.107   7.154  0.00  0.00    -0.481 OA
ATOM     17  H   UNL     1      -6.007  -0.592   4.072  0.00  0.00    +0.155 HD
ENDBRANCH   4   6
BRANCH   1  19
ATOM     18  C   UNL     1      -0.252   1.522  -0.111  0.00  0.00    +0.024 C 
ATOM     19  C   UNL     1      -0.033   0.010  -0.015  0.00  0.00    +0.106 C 
ENDBRANCH   1  19
BRANCH   1  20
ATOM     20  C   UNL     1      -1.969  -1.088  -1.233  0.00  0.00    +0.144 C 
BRANCH  20  21
ATOM     21  C   UNL     1      -1.528  -2.488  -1.578  0.00  0.00    -0.030 A 
ATOM     22  C   UNL     1      -0.399  -2.686  -2.351  0.00  0.00    +0.005 A 
ATOM     23  C   UNL     1       0.005  -3.969  -2.668  0.00  0.00    +0.002 A 
ATOM     24  C   UNL     1      -0.718  -5.054  -2.210  0.00  0.00    -0.064 A 
ATOM     25  C   UNL     1      -1.846  -4.856  -1.436  0.00  0.00    +0.002 A 
ATOM     26  C   UNL     1      -2.248  -3.573  -1.117  0.00  0.00    +0.005 A 
BRANCH  24  27
ATOM     27  C   UNL     1      -0.278  -6.454  -2.556  0.00  0.00    -0.044 C 
BRANCH  27  28
ATOM     28  N   UNL     1       0.645  -6.946  -1.524  0.00  0.00    +0.379 N 
ATOM     29  C   UNL     1      -0.070  -7.067  -0.246  0.00  0.00    -0.096 C 
ATOM     30  C   UNL     1       1.167  -8.260  -1.920  0.00  0.00    -0.096 C 
ATOM     31  H   UNL     1       1.410  -6.297  -1.420  0.00  0.00    -0.082 HD
ENDBRANCH  27  28
ENDBRANCH  24  27
ENDBRANCH  20  21
ENDBRANCH   1  20
TORSDOF 6
