REMARK  Name = ZINC03406786
REMARK  7 active torsions:
REMARK  status: ('A' for Active; 'I' for Inactive)
REMARK    1  A    between atoms: C_6  and  C_7
REMARK    2  A    between atoms: C_10  and  S_13
REMARK    3  A    between atoms: N_11  and  N_12
REMARK    4  A    between atoms: S_13  and  C_14
REMARK    5  A    between atoms: C_14  and  C_15
REMARK    6  A    between atoms: N_17  and  C_18
REMARK    7  A    between atoms: C_23  and  C_24
REMARK                            x       y       z     vdW  Elec       q    Type
REMARK                         _______ _______ _______ _____ _____    ______ ____
ROOT
ATOM      1  S   UNL     1      -0.064   1.969  -0.279  0.00  0.00    -0.075 S 
ENDROOT
BRANCH   1   5
ATOM      2  C   UNL     1       3.661   3.128  -0.067  0.00  0.00    +0.182 A 
ATOM      3  N   UNL     1       3.756   1.826   0.072  0.00  0.00    -0.127 NA
ATOM      4  N   UNL     1       2.587   1.294   0.028  0.00  0.00    -0.121 NA
ATOM      5  C   UNL     1       1.675   2.223  -0.152  0.00  0.00    +0.209 A 
ATOM      6  N   UNL     1       2.325   3.422  -0.215  0.00  0.00    -0.224 N 
BRANCH   2  12
ATOM      7  C   UNL     1       6.088   3.653  -0.258  0.00  0.00    +0.014 A 
ATOM      8  C   UNL     1       7.127   4.561  -0.259  0.00  0.00    +0.039 A 
ATOM      9  C   UNL     1       6.873   5.908  -0.060  0.00  0.00    +0.123 A 
ATOM     10  C   UNL     1       5.575   6.353   0.137  0.00  0.00    +0.039 A 
ATOM     11  C   UNL     1       4.529   5.454   0.135  0.00  0.00    +0.014 A 
ATOM     12  C   UNL     1       4.779   4.096  -0.065  0.00  0.00    +0.021 A 
ATOM     13  F   UNL     1       7.894   6.793  -0.057  0.00  0.00    -0.205 F 
ENDBRANCH   2  12
BRANCH   6  14
ATOM     14  N   UNL     1       1.766   4.656  -0.389  0.00  0.00    -0.295 N 
ATOM     15  H   UNL     1       1.619   5.115   0.498  0.00  0.00    +0.163 HD
ATOM     16  H   UNL     1       2.330   5.225  -1.002  0.00  0.00    +0.163 HD
ENDBRANCH   6  14
ENDBRANCH   1   5
BRANCH   1  17
ATOM     17  C   UNL     1      -0.133   0.168  -0.104  0.00  0.00    +0.173 C 
BRANCH  17  18
ATOM     18  C   UNL     1      -1.566  -0.290  -0.185  0.00  0.00    +0.227 C 
ATOM     19  O   UNL     1      -2.454   0.521  -0.345  0.00  0.00    -0.275 OA
ATOM     20  N   UNL     1      -1.861  -1.601  -0.079  0.00  0.00    -0.284 N 
ATOM     21  H   UNL     1      -1.148  -2.256  -0.023  0.00  0.00    +0.155 HD
BRANCH  20  22
ATOM     22  C   UNL     1      -3.197  -2.017  -0.050  0.00  0.00    +0.045 A 
ATOM     23  C   UNL     1      -4.156  -1.330  -0.783  0.00  0.00    +0.025 A 
ATOM     24  C   UNL     1      -5.474  -1.743  -0.752  0.00  0.00    +0.022 A 
ATOM     25  C   UNL     1      -5.839  -2.841   0.007  0.00  0.00    +0.042 A 
ATOM     26  C   UNL     1      -4.885  -3.527   0.739  0.00  0.00    +0.034 A 
ATOM     27  C   UNL     1      -3.565  -3.121   0.707  0.00  0.00    +0.077 A 
ATOM     28 CL   UNL     1      -7.496  -3.357   0.043  0.00  0.00    -0.084 Cl
BRANCH  27  29
ATOM     29  C   UNL     1      -2.526  -3.873   1.500  0.00  0.00    +0.419 C 
ATOM     30  F   UNL     1      -3.134  -4.936   2.175  0.00  0.00    -0.166 F 
ATOM     31  F   UNL     1      -1.548  -4.369   0.632  0.00  0.00    -0.166 F 
ATOM     32  F   UNL     1      -1.933  -3.010   2.427  0.00  0.00    -0.166 F 
ENDBRANCH  27  29
ENDBRANCH  20  22
ENDBRANCH  17  18
ENDBRANCH   1  17
TORSDOF 7
