REMARK  Name = ZINC04572444
REMARK  10 active torsions:
REMARK  status: ('A' for Active; 'I' for Inactive)
REMARK    1  A    between atoms: C_1  and  O_2
REMARK    2  A    between atoms: O_2  and  C_3
REMARK    3  A    between atoms: C_3  and  C_4
REMARK    4  A    between atoms: C_4  and  N_5
REMARK    5  A    between atoms: N_5  and  C_6
REMARK    6  A    between atoms: C_6  and  C_7
REMARK    7  A    between atoms: C_9  and  C_12
REMARK    8  A    between atoms: C_12  and  O_14
REMARK    9  A    between atoms: O_14  and  C_15
REMARK   10  A    between atoms: N_18  and  C_19
REMARK                            x       y       z     vdW  Elec       q    Type
REMARK                         _______ _______ _______ _____ _____    ______ ____
ROOT
ATOM      1  N   UNL     1      -0.741  -2.714  -1.100  0.00  0.00    -0.277 N 
ATOM      2  C   UNL     1      -1.456  -2.850   0.034  0.00  0.00    +0.307 C 
ATOM      3  O   UNL     1      -2.553  -3.375   0.003  0.00  0.00    -0.252 OA
ATOM      4  N   UNL     1      -0.956  -2.404   1.204  0.00  0.00    -0.269 N 
ATOM      5  H   UNL     1      -0.052  -2.056   1.243  0.00  0.00    +0.156 HD
ENDROOT
BRANCH   4   6
ATOM      6  C   UNL     1      -1.742  -2.443   2.362  0.00  0.00    +0.036 A 
ATOM      7  C   UNL     1      -1.149  -2.662   3.598  0.00  0.00    +0.026 A 
ATOM      8  C   UNL     1      -1.925  -2.700   4.740  0.00  0.00    +0.041 A 
ATOM      9  C   UNL     1      -3.295  -2.522   4.653  0.00  0.00    +0.142 A 
ATOM     10  C   UNL     1      -3.890  -2.304   3.420  0.00  0.00    +0.078 A 
ATOM     11  C   UNL     1      -3.115  -2.259   2.276  0.00  0.00    +0.046 A 
ATOM     12 CL   UNL     1      -5.609  -2.081   3.314  0.00  0.00    -0.081 Cl
ATOM     13  F   UNL     1      -4.053  -2.560   5.771  0.00  0.00    -0.204 F 
ENDBRANCH   4   6
BRANCH   1  14
ATOM     14  C   UNL     1       0.580  -2.082  -1.062  0.00  0.00    +0.138 C 
BRANCH  14  15
ATOM     15  C   UNL     1       0.430  -0.575  -1.279  0.00  0.00    +0.178 C 
BRANCH  15  17
ATOM     16  C   UNL     1      -0.489   1.406  -0.290  0.00  0.00    +0.194 C 
ATOM     17  O   UNL     1      -0.293  -0.006  -0.185  0.00  0.00    -0.381 OA
ENDBRANCH  15  17
ENDBRANCH  14  15
ENDBRANCH   1  14
BRANCH   1  18
ATOM     18  C   UNL     1      -1.285  -3.199  -2.371  0.00  0.00    +0.172 C 
BRANCH  18  19
ATOM     19  C   UNL     1      -0.871  -4.633  -2.580  0.00  0.00    +0.097 A 
ATOM     20  N   UNL     1      -1.502  -5.714  -2.213  0.00  0.00    -0.236 NA
ATOM     21  C   UNL     1      -0.953  -6.899  -2.501  0.00  0.00    +0.155 A 
ATOM     22  C   UNL     1       0.243  -6.861  -3.168  0.00  0.00    +0.082 A 
ATOM     23  S   UNL     1       0.506  -5.212  -3.347  0.00  0.00    -0.078 S 
BRANCH  21  24
ATOM     24  C   UNL     1      -1.595  -8.168  -2.124  0.00  0.00    +0.358 C 
ATOM     25  O   UNL     1      -1.064  -9.225  -2.404  0.00  0.00    -0.243 OA
BRANCH  24  26
ATOM     26  O   UNL     1      -2.772  -8.158  -1.468  0.00  0.00    -0.463 OA
ATOM     27  C   UNL     1      -3.339  -9.427  -1.133  0.00  0.00    +0.280 C 
ENDBRANCH  24  26
ENDBRANCH  21  24
ENDBRANCH  18  19
ENDBRANCH   1  18
TORSDOF 8
