REMARK  Name = ZINC12778143
REMARK  9 active torsions:
REMARK  status: ('A' for Active; 'I' for Inactive)
REMARK    1  A    between atoms: C_1  and  C_2
REMARK    2  A    between atoms: C_2  and  C_3
REMARK    3  A    between atoms: C_2  and  C_4
REMARK    4  A    between atoms: C_2  and  C_5
REMARK    5  A    between atoms: C_8  and  O_30
REMARK    6  A    between atoms: C_9  and  N_11
REMARK    7  A    between atoms: C_12  and  C_14
REMARK    8  A    between atoms: C_14  and  C_15
REMARK    9  A    between atoms: C_15  and  N_16
REMARK                            x       y       z     vdW  Elec       q    Type
REMARK                         _______ _______ _______ _____ _____    ______ ____
ROOT
ATOM      1  N   UNL     1      -1.640  -1.854   0.008  0.00  0.00    -0.283 N 
ATOM      2  C   UNL     1      -1.412  -0.526   0.005  0.00  0.00    +0.219 C 
ATOM      3  O   UNL     1      -2.345   0.250   0.022  0.00  0.00    -0.275 OA
ATOM      4  H   UNL     1      -0.898  -2.473  -0.070  0.00  0.00    +0.155 HD
ENDROOT
BRANCH   1   9
ATOM      5  C   UNL     1      -5.292  -2.131  -0.343  0.00  0.00    -0.040 A 
ATOM      6  C   UNL     1      -5.537  -3.301   0.351  0.00  0.00    +0.008 A 
ATOM      7  C   UNL     1      -4.493  -3.995   0.934  0.00  0.00    +0.047 A 
ATOM      8  C   UNL     1      -3.197  -3.519   0.823  0.00  0.00    +0.138 A 
ATOM      9  C   UNL     1      -2.949  -2.340   0.123  0.00  0.00    +0.076 A 
ATOM     10  C   UNL     1      -4.003  -1.646  -0.453  0.00  0.00    +0.031 A 
BRANCH   5  12
ATOM     11  C   UNL     1      -7.746  -2.118  -0.701  0.00  0.00    +0.015 C 
ATOM     12  C   UNL     1      -6.434  -1.378  -0.975  0.00  0.00    -0.013 C 
ATOM     13  C   UNL     1      -6.509   0.029  -0.380  0.00  0.00    +0.015 C 
ATOM     14  C   UNL     1      -6.209  -1.282  -2.485  0.00  0.00    +0.015 C 
ENDBRANCH   5  12
BRANCH   8  15
ATOM     15  O   UNL     1      -2.169  -4.201   1.395  0.00  0.00    -0.505 OA
ATOM     16  H   UNL     1      -1.979  -3.934   2.305  0.00  0.00    +0.292 HD
ENDBRANCH   8  15
ENDBRANCH   1   9
BRANCH   2  17
ATOM     17  C   UNL     1       0.001  -0.003  -0.018  0.00  0.00    +0.118 C 
BRANCH  17  18
ATOM     18  C   UNL     1      -0.021   1.527  -0.016  0.00  0.00    +0.135 C 
BRANCH  18  19
ATOM     19  N   UNL     1       1.353   2.034  -0.038  0.00  0.00    -0.298 N 
ATOM     20  C   UNL     1       1.995   2.269   1.135  0.00  0.00    +0.203 A 
ATOM     21  N   UNL     1       3.222   2.717   1.157  0.00  0.00    -0.230 NA
ATOM     22  C   UNL     1       3.878   2.968   0.028  0.00  0.00    +0.116 A 
ATOM     23  C   UNL     1       3.296   2.762  -1.233  0.00  0.00    +0.076 A 
ATOM     24  C   UNL     1       1.952   2.264  -1.222  0.00  0.00    +0.262 A 
ATOM     25  O   UNL     1       1.361   2.052  -2.267  0.00  0.00    -0.267 OA
ATOM     26  C   UNL     1       4.137   3.080  -2.386  0.00  0.00    -0.023 A 
ATOM     27  C   UNL     1       5.381   3.539  -2.129  0.00  0.00    -0.004 A 
ATOM     28  S   UNL     1       5.502   3.571  -0.361  0.00  0.00    -0.073 S 
ATOM     29  C   UNL     1       6.427   3.932  -3.126  0.00  0.00    +0.043 C 
ATOM     30  C   UNL     1       6.014   3.389  -4.502  0.00  0.00    +0.005 C 
ATOM     31  C   UNL     1       4.543   3.739  -4.747  0.00  0.00    +0.005 C 
ATOM     32  C   UNL     1       3.650   2.911  -3.822  0.00  0.00    +0.037 C 
ENDBRANCH  18  19
ENDBRANCH  17  18
ENDBRANCH   2  17
TORSDOF 6
