REMARK  Name = ZINC13951027
REMARK  3 active torsions:
REMARK  status: ('A' for Active; 'I' for Inactive)
REMARK    1  A    between atoms: C_3  and  N_22
REMARK    2  A    between atoms: C_5  and  C_6
REMARK    3  A    between atoms: C_7  and  C_8
REMARK                            x       y       z     vdW  Elec       q    Type
REMARK                         _______ _______ _______ _____ _____    ______ ____
ROOT
ATOM      1  C   UNL     1       0.470  -2.735  -0.120  0.00  0.00    +0.243 C 
ATOM      2  O   UNL     1       1.403  -1.974   0.058  0.00  0.00    -0.270 OA
ATOM      3  N   UNL     1       0.700  -4.046  -0.332  0.00  0.00    -0.261 N 
ATOM      4  C   UNL     1       1.998  -4.527  -0.347  0.00  0.00    +0.166 A 
ATOM      5  N   UNL     1       3.121  -3.871  -0.171  0.00  0.00    -0.222 NA
ATOM      6  C   UNL     1       4.330  -4.476  -0.212  0.00  0.00    +0.116 A 
ATOM      7  C   UNL     1       5.606  -3.889  -0.041  0.00  0.00    +0.152 A 
ATOM      8  C   UNL     1       6.745  -4.652  -0.114  0.00  0.00    +0.079 A 
ATOM      9  C   UNL     1       6.686  -6.018  -0.358  0.00  0.00    +0.127 A 
ATOM     10  C   UNL     1       5.454  -6.624  -0.530  0.00  0.00    +0.055 A 
ATOM     11  C   UNL     1       4.310  -5.867  -0.458  0.00  0.00    +0.046 A 
ATOM     12  S   UNL     1       2.571  -6.201  -0.603  0.00  0.00    -0.052 S 
ATOM     13  F   UNL     1       7.821  -6.748  -0.427  0.00  0.00    -0.205 F 
ATOM     14  F   UNL     1       5.706  -2.563   0.198  0.00  0.00    -0.203 F 
ATOM     15  H   UNL     1      -0.043  -4.653  -0.474  0.00  0.00    +0.157 HD
ENDROOT
BRANCH   1  17
ATOM     16  C   UNL     1      -1.084  -0.909  -0.031  0.00  0.00    +0.020 C 
ATOM     17  C   UNL     1      -0.856  -2.244  -0.104  0.00  0.00    +0.069 C 
BRANCH  16  22
ATOM     18  C   UNL     1       0.282   1.149   0.536  0.00  0.00    +0.018 A 
ATOM     19  C   UNL     1       1.403   1.836   0.137  0.00  0.00    +0.041 A 
ATOM     20  C   UNL     1       2.127   1.368  -0.910  0.00  0.00    +0.164 A 
ATOM     21  S   UNL     1       1.311  -0.021  -1.388  0.00  0.00    -0.065 S 
ATOM     22  C   UNL     1      -0.013   0.002  -0.194  0.00  0.00    +0.015 A 
BRANCH  20  23
ATOM     23  N   UNL     1       3.355   1.948  -1.498  0.00  0.00    +0.063 N 
ATOM     24  O   UNL     1       3.824   2.963  -1.038  0.00  0.00    -0.126 OA
ATOM     25  O   UNL     1       3.889   1.408  -2.438  0.00  0.00    -0.126 OA
ENDBRANCH  20  23
ENDBRANCH  16  22
ENDBRANCH   1  17
TORSDOF 3
