REMARK  Name = ZINC38636179
REMARK  13 active torsions:
REMARK  status: ('A' for Active; 'I' for Inactive)
REMARK    1  A    between atoms: C_1  and  C_2
REMARK    2  A    between atoms: C_2  and  C_3
REMARK    3  A    between atoms: N_5  and  C_6
REMARK    4  A    between atoms: C_9  and  S_13
REMARK    5  A    between atoms: C_10  and  C_12
REMARK    6  A    between atoms: S_13  and  N_16
REMARK    7  A    between atoms: N_16  and  C_17
REMARK    8  A    between atoms: C_17  and  C_18
REMARK    9  A    between atoms: C_18  and  C_20
REMARK   10  A    between atoms: C_18  and  N_29
REMARK   11  A    between atoms: C_23  and  N_26
REMARK   12  A    between atoms: N_26  and  C_27
REMARK   13  A    between atoms: N_26  and  C_28
REMARK                            x       y       z     vdW  Elec       q    Type
REMARK                         _______ _______ _______ _____ _____    ______ ____
ROOT
ATOM      1  N   UNL     1       4.386  -4.840  -3.831  0.00  0.00    -0.191 NA
ATOM      2  H   UNL     1       4.795  -5.505  -3.255  0.00  0.00    +0.148 HD
ENDROOT
BRANCH   1   3
ATOM      3  S   UNL     1       3.178  -3.869  -3.246  0.00  0.00    +0.059 S 
ATOM      4  O   UNL     1       3.516  -2.537  -3.609  0.00  0.00    -0.153 OA
ATOM      5  O   UNL     1       2.961  -4.259  -1.897  0.00  0.00    -0.153 OA
BRANCH   3   9
ATOM      6  C   UNL     1      -0.597  -4.912  -5.520  0.00  0.00    +0.034 A 
ATOM      7  C   UNL     1      -0.026  -3.654  -5.659  0.00  0.00    +0.025 A 
ATOM      8  C   UNL     1       1.125  -3.338  -4.964  0.00  0.00    +0.030 A 
ATOM      9  C   UNL     1       1.710  -4.275  -4.131  0.00  0.00    +0.108 A 
ATOM     10  C   UNL     1       1.144  -5.528  -3.990  0.00  0.00    -0.022 A 
ATOM     11  C   UNL     1      -0.011  -5.847  -4.677  0.00  0.00    +0.028 A 
ATOM     12  C   UNL     1       1.784  -6.545  -3.081  0.00  0.00    +0.046 C 
BRANCH   6  15
ATOM     13  C   UNL     1      -2.692  -6.030  -5.657  0.00  0.00    +0.217 C 
ATOM     14  O   UNL     1      -2.479  -6.540  -4.578  0.00  0.00    -0.275 OA
ATOM     15  N   UNL     1      -1.763  -5.234  -6.223  0.00  0.00    -0.285 N 
ATOM     16  H   UNL     1      -1.903  -4.885  -7.117  0.00  0.00    +0.155 HD
BRANCH  13  18
ATOM     17  C   UNL     1      -4.866  -7.215  -5.516  0.00  0.00    +0.013 C 
ATOM     18  C   UNL     1      -3.997  -6.286  -6.366  0.00  0.00    +0.093 C 
ENDBRANCH  13  18
ENDBRANCH   6  15
ENDBRANCH   3   9
ENDBRANCH   1   3
BRANCH   1  19
ATOM     19  C   UNL     1       4.836  -4.694  -5.217  0.00  0.00    +0.095 C 
BRANCH  19  20
ATOM     20  C   UNL     1       6.202  -5.364  -5.383  0.00  0.00    -0.022 C 
BRANCH  20  21
ATOM     21  C   UNL     1       6.060  -6.851  -5.181  0.00  0.00    -0.060 A 
ATOM     22  C   UNL     1       5.589  -7.645  -6.210  0.00  0.00    +0.004 A 
ATOM     23  C   UNL     1       5.458  -9.008  -6.028  0.00  0.00    +0.023 A 
ATOM     24  C   UNL     1       5.800  -9.580  -4.809  0.00  0.00    +0.029 A 
ATOM     25  C   UNL     1       6.272  -8.779  -3.777  0.00  0.00    +0.023 A 
ATOM     26  C   UNL     1       6.406  -7.418  -3.968  0.00  0.00    +0.004 A 
BRANCH  24  27
ATOM     27  N   UNL     1       5.668 -10.958  -4.621  0.00  0.00    -0.336 N 
ATOM     28  C   UNL     1       5.289 -11.818  -5.746  0.00  0.00    +0.129 C 
ATOM     29  C   UNL     1       5.909 -11.544  -3.300  0.00  0.00    +0.129 C 
ENDBRANCH  24  27
ENDBRANCH  20  21
BRANCH  20  30
ATOM     30  N   UNL     1       6.715  -5.101  -6.734  0.00  0.00    +0.385 N 
ATOM     31  C   UNL     1       7.038  -3.659  -6.887  0.00  0.00    -0.078 C 
ATOM     32  C   UNL     1       8.045  -3.644  -8.064  0.00  0.00    -0.020 C 
ATOM     33  C   UNL     1       8.878  -4.923  -7.822  0.00  0.00    -0.020 C 
ATOM     34  C   UNL     1       7.989  -5.823  -6.945  0.00  0.00    -0.078 C 
ATOM     35  H   UNL     1       6.037  -5.382  -7.426  0.00  0.00    -0.081 HD
ENDBRANCH  20  30
ENDBRANCH  19  20
ENDBRANCH   1  19
TORSDOF 9
