REMARK  Name = ZINC06408558
REMARK  6 active torsions:
REMARK  status: ('A' for Active; 'I' for Inactive)
REMARK    1  A    between atoms: C_1  and  C_2
REMARK    2  A    between atoms: C_2  and  C_4
REMARK    3  A    between atoms: C_2  and  N_13
REMARK    4  A    between atoms: N_6  and  C_7
REMARK    5  A    between atoms: N_13  and  S_14
REMARK    6  A    between atoms: S_14  and  C_17
REMARK                            x       y       z     vdW  Elec       q    Type
REMARK                         _______ _______ _______ _____ _____    ______ ____
ROOT
ATOM      1  C   UNL     1       3.327  -3.793  -2.498  0.00  0.00    +0.035 C 
ATOM      2  C   UNL     1       2.361  -2.607  -2.474  0.00  0.00    +0.159 C 
ENDROOT
BRANCH   2   3
ATOM      3  C   UNL     1       1.867  -2.333  -3.870  0.00  0.00    +0.232 C 
ATOM      4  O   UNL     1       0.681  -2.394  -4.117  0.00  0.00    -0.274 OA
ATOM      5  N   UNL     1       2.743  -2.019  -4.846  0.00  0.00    -0.311 N 
ATOM      6  H   UNL     1       3.818  -1.963  -4.622  0.00  0.00    +0.149 HD
BRANCH   5   7
ATOM      7  C   UNL     1       2.262  -1.752  -6.204  0.00  0.00    +0.073 C 
ATOM      8  C   UNL     1       2.116  -3.072  -6.962  0.00  0.00    +0.022 C 
ATOM      9  C   UNL     1       1.615  -2.794  -8.380  0.00  0.00    +0.002 C 
ATOM     10  C   UNL     1       2.617  -1.895  -9.108  0.00  0.00    +0.000 C 
ATOM     11  C   UNL     1       2.763  -0.575  -8.350  0.00  0.00    +0.002 C 
ATOM     12  C   UNL     1       3.264  -0.854  -6.932  0.00  0.00    +0.022 C 
ENDBRANCH   5   7
ENDBRANCH   2   3
BRANCH   2  13
ATOM     13  N   UNL     1       1.223  -2.922  -1.606  0.00  0.00    -0.178 NA
ATOM     14  H   UNL     1       0.298  -3.330  -2.039  0.00  0.00    +0.149 HD
BRANCH  13  15
ATOM     15  S   UNL     1       1.232  -2.441  -0.022  0.00  0.00    +0.059 S 
ATOM     16  O   UNL     1       2.487  -2.833   0.515  0.00  0.00    -0.153 OA
ATOM     17  O   UNL     1      -0.003  -2.866   0.538  0.00  0.00    -0.153 OA
BRANCH  15  18
ATOM     18  C   UNL     1       1.208  -0.679  -0.013  0.00  0.00    +0.105 A 
ATOM     19  C   UNL     1       0.002  -0.004   0.002  0.00  0.00    +0.029 A 
ATOM     20  C   UNL     1      -0.017   1.378   0.010  0.00  0.00    +0.017 A 
ATOM     21  C   UNL     1       1.172   2.086   0.002  0.00  0.00    +0.018 A 
ATOM     22  C   UNL     1       2.379   1.410  -0.013  0.00  0.00    +0.017 A 
ATOM     23  C   UNL     1       2.396   0.028  -0.020  0.00  0.00    +0.029 A 
ATOM     24 BR   UNL     1       1.147   3.976   0.013  0.00  0.00    -0.050 Br
ENDBRANCH  15  18
ENDBRANCH  13  15
ENDBRANCH   2  13
TORSDOF 5
