REMARK  Name = ZINC03830746
REMARK  12 active torsions:
REMARK  status: ('A' for Active; 'I' for Inactive)
REMARK    1  A    between atoms: C_1  and  C_2
REMARK    2  A    between atoms: C_2  and  C_3
REMARK    3  A    between atoms: C_11  and  O_38
REMARK    4  A    between atoms: C_12  and  O_36
REMARK    5  A    between atoms: C_18  and  C_20
REMARK    6  A    between atoms: C_20  and  C_21
REMARK    7  A    between atoms: C_25  and  O_34
REMARK    8  A    between atoms: C_26  and  O_32
REMARK    9  A    between atoms: O_32  and  C_33
REMARK   10  A    between atoms: O_34  and  C_35
REMARK   11  A    between atoms: O_36  and  C_37
REMARK   12  A    between atoms: O_38  and  C_39
REMARK                            x       y       z     vdW  Elec       q    Type
REMARK                         _______ _______ _______ _____ _____    ______ ____
ROOT
ATOM      1  C   UNL     1       0.718  -0.497  -1.257  0.00  0.00    -0.025 C 
ATOM      2  C   UNL     1      -0.090  -0.097  -2.494  0.00  0.00    -0.074 C 
ATOM      3  N   UNL     1      -1.422  -0.708  -2.424  0.00  0.00    +0.385 N 
ATOM      4  C   UNL     1      -2.239  -0.263  -3.560  0.00  0.00    -0.073 C 
ATOM      5  C   UNL     1      -3.695  -0.652  -3.297  0.00  0.00    +0.017 C 
ATOM      6  C   UNL     1      -3.777  -2.109  -2.917  0.00  0.00    -0.044 A 
ATOM      7  C   UNL     1      -5.010  -2.740  -2.973  0.00  0.00    +0.053 A 
ATOM      8  C   UNL     1      -5.129  -4.075  -2.628  0.00  0.00    +0.162 A 
ATOM      9  C   UNL     1      -4.002  -4.785  -2.225  0.00  0.00    +0.162 A 
ATOM     10  C   UNL     1      -2.774  -4.151  -2.173  0.00  0.00    +0.051 A 
ATOM     11  C   UNL     1      -2.659  -2.813  -2.521  0.00  0.00    -0.054 A 
ATOM     12  C   UNL     1      -1.302  -2.167  -2.459  0.00  0.00    -0.037 C 
ATOM     13  C   UNL     1      -0.549  -2.649  -1.217  0.00  0.00    -0.007 C 
ATOM     14  C   UNL     1       0.849  -2.022  -1.205  0.00  0.00    -0.012 C 
ATOM     15  H   UNL     1      -1.873  -0.430  -1.565  0.00  0.00    -0.081 HD
ENDROOT
BRANCH   1  17
ATOM     16  C   UNL     1      -0.019   1.526   0.010  0.00  0.00    +0.004 C 
ATOM     17  C   UNL     1       0.002  -0.004   0.002  0.00  0.00    -0.002 C 
ENDBRANCH   1  17
BRANCH   9  18
ATOM     18  O   UNL     1      -4.109  -6.097  -1.883  0.00  0.00    -0.491 OA
ATOM     19  C   UNL     1      -2.910  -6.761  -1.478  0.00  0.00    +0.277 C 
ENDBRANCH   9  18
BRANCH   8  20
ATOM     20  O   UNL     1      -6.341  -4.689  -2.684  0.00  0.00    -0.491 OA
ATOM     21  C   UNL     1      -7.452  -3.897  -3.107  0.00  0.00    +0.277 C 
ENDBRANCH   8  20
BRANCH  14  22
ATOM     22  C   UNL     1       1.581  -2.429   0.075  0.00  0.00    -0.008 C 
BRANCH  22  23
ATOM     23  C   UNL     1       1.822  -3.940   0.066  0.00  0.00    -0.040 C 
ATOM     24  C   UNL     1       2.420  -4.355   1.385  0.00  0.00    -0.055 A 
ATOM     25  C   UNL     1       1.922  -3.782   2.546  0.00  0.00    +0.051 A 
ATOM     26  C   UNL     1       2.439  -4.136   3.779  0.00  0.00    +0.162 A 
ATOM     27  C   UNL     1       3.465  -5.074   3.853  0.00  0.00    +0.162 A 
ATOM     28  C   UNL     1       3.959  -5.642   2.693  0.00  0.00    +0.053 A 
ATOM     29  C   UNL     1       3.438  -5.283   1.460  0.00  0.00    -0.044 A 
ATOM     30  C   UNL     1       4.011  -5.921   0.220  0.00  0.00    +0.016 C 
ATOM     31  C   UNL     1       3.061  -5.709  -0.959  0.00  0.00    -0.077 C 
ATOM     32  N   UNL     1       2.724  -4.279  -1.038  0.00  0.00    +0.384 N 
ATOM     33  H   UNL     1       2.268  -4.088  -1.917  0.00  0.00    -0.085 HD
ATOM     34  H   UNL     1       3.567  -3.729  -0.966  0.00  0.00    -0.085 HD
BRANCH  27  35
ATOM     35  O   UNL     1       3.979  -5.430   5.061  0.00  0.00    -0.491 OA
ATOM     36  C   UNL     1       5.030  -6.399   5.059  0.00  0.00    +0.277 C 
ENDBRANCH  27  35
BRANCH  26  37
ATOM     37  O   UNL     1       1.947  -3.571   4.914  0.00  0.00    -0.491 OA
ATOM     38  C   UNL     1       0.895  -2.617   4.760  0.00  0.00    +0.277 C 
ENDBRANCH  26  37
ENDBRANCH  22  23
ENDBRANCH  14  22
TORSDOF 7
