REMARK  Name = ZINC35753708
REMARK  14 active torsions:
REMARK  status: ('A' for Active; 'I' for Inactive)
REMARK    1  A    between atoms: C_1  and  C_2
REMARK    2  A    between atoms: C_2  and  C_3
REMARK    3  A    between atoms: C_2  and  C_4
REMARK    4  A    between atoms: C_4  and  C_5
REMARK    5  A    between atoms: N_7  and  C_8
REMARK    6  A    between atoms: C_12  and  C_14
REMARK    7  A    between atoms: C_16  and  C_30
REMARK    8  A    between atoms: N_18  and  C_22
REMARK    9  A    between atoms: C_22  and  C_23
REMARK   10  A    between atoms: N_32  and  C_33
REMARK   11  A    between atoms: C_33  and  C_34
REMARK   12  A    between atoms: C_34  and  N_35
REMARK   13  A    between atoms: N_35  and  C_36
REMARK   14  A    between atoms: N_35  and  C_37
REMARK                            x       y       z     vdW  Elec       q    Type
REMARK                         _______ _______ _______ _____ _____    ______ ____
ROOT
ATOM      1  C   UNL     1      -7.633  -0.307  -3.983  0.00  0.00    +0.238 C 
ATOM      2  C   UNL     1      -8.513   0.924  -3.661  0.00  0.00    +0.210 C 
ATOM      3  N   UNL     1      -8.734   1.508  -4.998  0.00  0.00    -0.248 N 
ATOM      4  C   UNL     1      -8.380   0.586  -5.913  0.00  0.00    +0.405 C 
ATOM      5  O   UNL     1      -8.422   0.777  -7.112  0.00  0.00    -0.226 OA
ATOM      6  O   UNL     1      -7.975  -0.570  -5.358  0.00  0.00    -0.440 OA
ENDROOT
BRANCH   1  11
ATOM      7  C   UNL     1      -4.120  -0.079  -2.608  0.00  0.00    +0.034 A 
ATOM      8  C   UNL     1      -3.481   0.647  -3.605  0.00  0.00    +0.023 A 
ATOM      9  C   UNL     1      -4.189   1.058  -4.718  0.00  0.00    +0.002 A 
ATOM     10  C   UNL     1      -5.531   0.749  -4.839  0.00  0.00    +0.007 A 
ATOM     11  C   UNL     1      -6.170   0.027  -3.847  0.00  0.00    -0.003 A 
ATOM     12  C   UNL     1      -5.466  -0.393  -2.735  0.00  0.00    +0.030 A 
BRANCH   7  15
ATOM     13  C   UNL     1      -2.436   0.286  -0.966  0.00  0.00    +0.217 C 
ATOM     14  O   UNL     1      -2.125   1.314  -1.531  0.00  0.00    -0.275 OA
ATOM     15  N   UNL     1      -3.406  -0.497  -1.479  0.00  0.00    -0.285 N 
ATOM     16  H   UNL     1      -3.609  -1.351  -1.066  0.00  0.00    +0.155 HD
BRANCH  13  17
ATOM     17  C   UNL     1      -1.740  -0.114   0.308  0.00  0.00    +0.099 C 
BRANCH  17  19
ATOM     18  C   UNL     1      -1.387   2.264   0.988  0.00  0.00    +0.008 C 
ATOM     19  C   UNL     1      -0.691   0.940   0.669  0.00  0.00    -0.008 C 
ATOM     20  C   UNL     1       0.102   0.473   1.892  0.00  0.00    +0.008 C 
ENDBRANCH  17  19
ENDBRANCH  13  17
ENDBRANCH   7  15
ENDBRANCH   1  11
BRANCH   2  21
ATOM     21  C   UNL     1      -9.816   0.502  -3.033  0.00  0.00    +0.238 C 
ATOM     22  O   UNL     1     -10.823   0.444  -3.706  0.00  0.00    -0.274 OA
ATOM     23  N   UNL     1      -9.863   0.189  -1.722  0.00  0.00    -0.315 N 
ATOM     24  H   UNL     1      -9.057   0.236  -1.184  0.00  0.00    +0.149 HD
BRANCH  23  25
ATOM     25  C   UNL     1     -11.129  -0.221  -1.112  0.00  0.00    +0.085 C 
BRANCH  25  26
ATOM     26  C   UNL     1     -10.908  -0.517   0.373  0.00  0.00    -0.061 C 
BRANCH  26  27
ATOM     27  N   UNL     1     -12.178  -0.928   0.985  0.00  0.00    +0.377 N 
ATOM     28  C   UNL     1     -11.943  -1.327   2.379  0.00  0.00    -0.097 C 
ATOM     29  C   UNL     1     -13.125   0.194   0.950  0.00  0.00    -0.097 C 
ATOM     30  H   UNL     1     -12.562  -1.708   0.472  0.00  0.00    -0.083 HD
ENDBRANCH  26  27
ENDBRANCH  25  26
ENDBRANCH  23  25
ENDBRANCH   2  21
BRANCH   3  31
ATOM     31  C   UNL     1      -9.247   2.852  -5.280  0.00  0.00    +0.147 C 
BRANCH  31  32
ATOM     32  C   UNL     1      -8.096   3.819  -5.375  0.00  0.00    -0.030 A 
ATOM     33  C   UNL     1      -7.648   4.473  -4.242  0.00  0.00    +0.008 A 
ATOM     34  C   UNL     1      -6.592   5.360  -4.327  0.00  0.00    +0.038 A 
ATOM     35  C   UNL     1      -5.982   5.594  -5.548  0.00  0.00    +0.123 A 
ATOM     36  C   UNL     1      -6.431   4.939  -6.682  0.00  0.00    +0.038 A 
ATOM     37  C   UNL     1      -7.484   4.048  -6.593  0.00  0.00    +0.008 A 
ATOM     38  F   UNL     1      -4.950   6.462  -5.633  0.00  0.00    -0.205 F 
ENDBRANCH  31  32
ENDBRANCH   3  31
TORSDOF 10
