REMARK  Name = ZINC03298722
REMARK  8 active torsions:
REMARK  status: ('A' for Active; 'I' for Inactive)
REMARK    1  A    between atoms: C_1  and  C_2
REMARK    2  A    between atoms: C_2  and  C_20
REMARK    3  A    between atoms: N_5  and  C_9
REMARK    4  A    between atoms: C_9  and  C_10
REMARK    5  A    between atoms: N_12  and  C_13
REMARK    6  A    between atoms: C_13  and  C_14
REMARK    7  A    between atoms: C_23  and  O_26
REMARK    8  A    between atoms: O_26  and  C_27
REMARK                            x       y       z     vdW  Elec       q    Type
REMARK                         _______ _______ _______ _____ _____    ______ ____
ROOT
ATOM      1  C   UNL     1       1.687   2.602  -1.258  0.00  0.00    +0.047 C 
ATOM      2  C   UNL     1       1.389   1.782  -0.002  0.00  0.00    +0.135 C 
ATOM      3  C   UNL     1       2.170   0.482  -0.016  0.00  0.00    +0.251 C 
ATOM      4  O   UNL     1       3.375   0.352  -0.029  0.00  0.00    -0.272 OA
ATOM      5  N   UNL     1       1.245  -0.498  -0.013  0.00  0.00    -0.215 N 
ATOM      6  C   UNL     1       0.002  -0.004   0.002  0.00  0.00    +0.310 C 
ATOM      7  O   UNL     1      -0.999  -0.693   0.008  0.00  0.00    -0.252 OA
ATOM      8  N   UNL     1      -0.016   1.341   0.009  0.00  0.00    -0.281 N 
ATOM      9  H   UNL     1      -0.802   1.910   0.016  0.00  0.00    +0.152 HD
ENDROOT
BRANCH   2  10
ATOM     10  C   UNL     1       1.706   2.576   1.239  0.00  0.00    -0.015 A 
ATOM     11  C   UNL     1       2.978   2.534   1.780  0.00  0.00    +0.010 A 
ATOM     12  C   UNL     1       3.272   3.266   2.914  0.00  0.00    +0.046 A 
ATOM     13  C   UNL     1       2.287   4.036   3.516  0.00  0.00    +0.127 A 
ATOM     14  C   UNL     1       1.010   4.072   2.975  0.00  0.00    +0.046 A 
ATOM     15  C   UNL     1       0.722   3.342   1.838  0.00  0.00    +0.010 A 
BRANCH  13  16
ATOM     16  O   UNL     1       2.572   4.752   4.635  0.00  0.00    -0.434 OA
BRANCH  16  17
ATOM     17  C   UNL     1       3.907   4.667   5.137  0.00  0.00    +0.541 C 
ATOM     18  F   UNL     1       4.201   3.338   5.457  0.00  0.00    -0.166 F 
ATOM     19  F   UNL     1       4.802   5.121   4.162  0.00  0.00    -0.166 F 
ENDBRANCH  16  17
ENDBRANCH  13  16
ENDBRANCH   2  10
BRANCH   5  20
ATOM     20  C   UNL     1       1.562  -1.929  -0.022  0.00  0.00    +0.213 C 
BRANCH  20  21
ATOM     21  C   UNL     1       1.658  -2.412  -1.447  0.00  0.00    +0.231 C 
ATOM     22  O   UNL     1       1.478  -1.638  -2.363  0.00  0.00    -0.274 OA
ATOM     23  N   UNL     1       1.942  -3.704  -1.702  0.00  0.00    -0.312 N 
ATOM     24  H   UNL     1       2.085  -4.323  -0.969  0.00  0.00    +0.149 HD
BRANCH  23  25
ATOM     25  C   UNL     1       2.035  -4.175  -3.086  0.00  0.00    +0.135 C 
BRANCH  25  26
ATOM     26  C   UNL     1       2.366  -5.668  -3.097  0.00  0.00    +0.135 C 
ATOM     27  C   UNL     1       2.592  -6.159  -4.544  0.00  0.00    +0.035 C 
ATOM     28  C   UNL     1       1.976  -7.576  -4.561  0.00  0.00    +0.031 C 
ATOM     29  C   UNL     1       1.450  -7.773  -3.121  0.00  0.00    +0.160 C 
ATOM     30  O   UNL     1       1.240  -6.436  -2.618  0.00  0.00    -0.375 OA
ENDBRANCH  25  26
ENDBRANCH  23  25
ENDBRANCH  20  21
ENDBRANCH   5  20
TORSDOF 7
