REMARK  Name = ZINC38850363
REMARK  6 active torsions:
REMARK  status: ('A' for Active; 'I' for Inactive)
REMARK    1  A    between atoms: C_3  and  S_26
REMARK    2  A    between atoms: C_6  and  N_7
REMARK    3  A    between atoms: C_8  and  C_10
REMARK    4  A    between atoms: N_15  and  C_17
REMARK    5  A    between atoms: C_17  and  C_18
REMARK    6  A    between atoms: S_26  and  N_29
REMARK                            x       y       z     vdW  Elec       q    Type
REMARK                         _______ _______ _______ _____ _____    ______ ____
ROOT
ATOM      1  N   UNL     1      -1.240  -0.769   0.502  0.00  0.00    -0.285 N 
ATOM      2  C   UNL     1      -1.215  -2.102   0.309  0.00  0.00    +0.218 C 
ATOM      3  O   UNL     1      -0.158  -2.698   0.326  0.00  0.00    -0.275 OA
ATOM      4  H   UNL     1      -2.089  -0.303   0.561  0.00  0.00    +0.155 HD
ENDROOT
BRANCH   2   5
ATOM      5  C   UNL     1      -2.499  -2.854   0.073  0.00  0.00    +0.059 C 
ATOM      6  C   UNL     1      -3.184  -2.313  -1.186  0.00  0.00    +0.009 C 
ATOM      7  C   UNL     1      -4.447  -3.135  -1.461  0.00  0.00    -0.018 C 
ATOM      8  C   UNL     1      -4.069  -4.611  -1.596  0.00  0.00    -0.078 C 
ATOM      9  N   UNL     1      -3.443  -5.075  -0.351  0.00  0.00    +0.383 N 
ATOM     10  C   UNL     1      -2.194  -4.341  -0.117  0.00  0.00    -0.066 C 
ATOM     11  H   UNL     1      -4.074  -4.917   0.420  0.00  0.00    -0.081 HD
BRANCH   9  12
ATOM     12  C   UNL     1      -3.153  -6.511  -0.457  0.00  0.00    -0.042 C 
BRANCH  12  13
ATOM     13  C   UNL     1      -4.446  -7.279  -0.555  0.00  0.00    -0.046 A 
ATOM     14  C   UNL     1      -4.867  -7.770  -1.777  0.00  0.00    +0.004 A 
ATOM     15  C   UNL     1      -6.053  -8.474  -1.867  0.00  0.00    +0.020 A 
ATOM     16  C   UNL     1      -6.819  -8.688  -0.735  0.00  0.00    +0.042 A 
ATOM     17  C   UNL     1      -6.399  -8.197   0.487  0.00  0.00    +0.040 A 
ATOM     18  C   UNL     1      -5.209  -7.497   0.579  0.00  0.00    +0.044 A 
ATOM     19 CL   UNL     1      -4.677  -6.886   2.114  0.00  0.00    -0.083 Cl
ATOM     20 CL   UNL     1      -8.309  -9.572  -0.850  0.00  0.00    -0.083 Cl
ENDBRANCH  12  13
ENDBRANCH   9  12
ENDBRANCH   2   5
BRANCH   1  26
ATOM     21  C   UNL     1       1.082  -0.464  -0.091  0.00  0.00    +0.025 A 
ATOM     22  C   UNL     1       2.263   0.242   0.024  0.00  0.00    +0.030 A 
ATOM     23  C   UNL     1       2.328   1.355   0.843  0.00  0.00    +0.106 A 
ATOM     24  C   UNL     1       1.212   1.764   1.548  0.00  0.00    +0.030 A 
ATOM     25  C   UNL     1       0.027   1.062   1.438  0.00  0.00    +0.025 A 
ATOM     26  C   UNL     1      -0.041  -0.056   0.617  0.00  0.00    +0.034 A 
BRANCH  23  27
ATOM     27  S   UNL     1       3.838   2.252   0.988  0.00  0.00    +0.061 S 
ATOM     28  O   UNL     1       3.789   2.930   2.236  0.00  0.00    -0.153 OA
ATOM     29  O   UNL     1       4.881   1.348   0.652  0.00  0.00    -0.153 OA
BRANCH  27  30
ATOM     30  N   UNL     1       3.827   3.420  -0.186  0.00  0.00    -0.177 NA
ATOM     31  C   UNL     1       4.372   3.144  -1.523  0.00  0.00    +0.109 C 
ATOM     32  C   UNL     1       3.307   3.488  -2.569  0.00  0.00    +0.017 C 
ATOM     33  C   UNL     1       2.846   4.933  -2.365  0.00  0.00    +0.003 C 
ATOM     34  C   UNL     1       2.222   5.080  -0.976  0.00  0.00    +0.017 C 
ATOM     35  C   UNL     1       3.268   4.751   0.087  0.00  0.00    +0.109 C 
ENDBRANCH  27  30
ENDBRANCH  23  27
ENDBRANCH   1  26
TORSDOF 6
