REMARK  Name = ZINC59849795
REMARK  11 active torsions:
REMARK  status: ('A' for Active; 'I' for Inactive)
REMARK    1  A    between atoms: C_1  and  C_2
REMARK    2  A    between atoms: C_3  and  C_28
REMARK    3  A    between atoms: C_8  and  C_9
REMARK    4  A    between atoms: N_11  and  C_12
REMARK    5  A    between atoms: C_12  and  C_13
REMARK    6  A    between atoms: C_13  and  N_20
REMARK    7  A    between atoms: C_21  and  O_23
REMARK    8  A    between atoms: O_23  and  C_24
REMARK    9  A    between atoms: C_24  and  C_25
REMARK   10  A    between atoms: C_24  and  C_26
REMARK   11  A    between atoms: C_24  and  C_27
REMARK                            x       y       z     vdW  Elec       q    Type
REMARK                         _______ _______ _______ _____ _____    ______ ____
ROOT
ATOM      1  C   UNL     1       2.647   1.788   5.041  0.00  0.00    +0.053 C 
ATOM      2  C   UNL     1       3.336   0.431   4.787  0.00  0.00    +0.027 C 
ATOM      3  C   UNL     1       4.821   0.660   4.695  0.00  0.00    +0.002 C 
ATOM      4  C   UNL     1       5.534   0.445   6.044  0.00  0.00    +0.000 C 
ATOM      5  C   UNL     1       4.755   1.039   7.233  0.00  0.00    +0.000 C 
ATOM      6  C   UNL     1       4.168   2.389   6.921  0.00  0.00    +0.002 C 
ATOM      7  C   UNL     1       2.716   2.192   6.438  0.00  0.00    +0.027 C 
ENDROOT
BRANCH   1   8
ATOM      8  N   UNL     1       3.297   2.810   4.218  0.00  0.00    -0.274 N 
ATOM      9  C   UNL     1       3.326   2.678   2.877  0.00  0.00    +0.401 C 
ATOM     10  O   UNL     1       2.731   1.762   2.344  0.00  0.00    -0.226 OA
ATOM     11  H   UNL     1       3.707   3.582   4.638  0.00  0.00    +0.153 HD
BRANCH   9  12
ATOM     12  O   UNL     1       4.014   3.560   2.128  0.00  0.00    -0.445 OA
BRANCH  12  13
ATOM     13  C   UNL     1       3.954   3.394   0.710  0.00  0.00    +0.107 C 
ATOM     14  C   UNL     1       2.497   3.466   0.249  0.00  0.00    +0.055 C 
ATOM     15  C   UNL     1       4.760   4.503   0.032  0.00  0.00    +0.055 C 
ATOM     16  C   UNL     1       4.541   2.033   0.332  0.00  0.00    +0.055 C 
ENDBRANCH  12  13
ENDBRANCH   9  12
ENDBRANCH   1   8
BRANCH   1  17
ATOM     17  C   UNL     1       1.177   1.681   4.629  0.00  0.00    +0.130 C 
BRANCH  17  20
ATOM     18  C   UNL     1      -0.739   3.163   4.360  0.00  0.00    +0.250 C 
ATOM     19  O   UNL     1      -1.388   2.209   3.978  0.00  0.00    -0.270 OA
ATOM     20  N   UNL     1       0.538   2.993   4.758  0.00  0.00    -0.309 N 
ATOM     21  H   UNL     1       1.034   3.740   5.128  0.00  0.00    +0.149 HD
BRANCH  18  29
ATOM     22  C   UNL     1      -1.959   4.203   6.829  0.00  0.00    +0.046 C 
ATOM     23  C   UNL     1      -1.933   5.014   5.559  0.00  0.00    -0.010 A 
ATOM     24  C   UNL     1      -2.481   6.286   5.511  0.00  0.00    +0.064 A 
ATOM     25  N   UNL     1      -2.448   6.979   4.390  0.00  0.00    -0.151 NA
ATOM     26  N   UNL     1      -1.922   6.526   3.312  0.00  0.00    -0.106 NA
ATOM     27  C   UNL     1      -1.371   5.323   3.246  0.00  0.00    +0.301 A 
ATOM     28  O   UNL     1      -0.826   4.885   2.086  0.00  0.00    -0.263 OA
ATOM     29  C   UNL     1      -1.350   4.508   4.390  0.00  0.00    +0.109 A 
ATOM     30  C   UNL     1      -3.115   6.878   6.744  0.00  0.00    +0.068 C 
ENDBRANCH  18  29
ENDBRANCH  17  20
ENDBRANCH   1  17
TORSDOF 6
