REMARK  Name = ZINC63385760
REMARK  4 active torsions:
REMARK  status: ('A' for Active; 'I' for Inactive)
REMARK    1  A    between atoms: C_1  and  O_2
REMARK    2  A    between atoms: O_2  and  C_3
REMARK    3  A    between atoms: N_23  and  C_26
REMARK    4  A    between atoms: C_26  and  C_27
REMARK                            x       y       z     vdW  Elec       q    Type
REMARK                         _______ _______ _______ _____ _____    ______ ____
ROOT
ATOM      1  C   UNL     1      -1.200  -0.637   0.010  0.00  0.00    +0.121 A 
ATOM      2  C   UNL     1      -2.360   0.151   0.020  0.00  0.00    +0.047 A 
ATOM      3  C   UNL     1      -3.623  -0.348   0.035  0.00  0.00    +0.029 A 
ATOM      4  C   UNL     1      -3.759  -1.811   0.041  0.00  0.00    +0.043 A 
ATOM      5  N   UNL     1      -4.821  -2.559   0.035  0.00  0.00    -0.375 N 
ATOM      6  C   UNL     1      -4.398  -3.956   0.135  0.00  0.00    +0.140 C 
ATOM      7  C   UNL     1      -2.878  -3.931   0.009  0.00  0.00    -0.035 C 
ATOM      8  C   UNL     1      -2.523  -2.654   0.018  0.00  0.00    +0.003 A 
ATOM      9  C   UNL     1      -1.206  -1.999   0.003  0.00  0.00    +0.055 A 
ATOM     10  C   UNL     1      -2.078  -5.196  -0.184  0.00  0.00    +0.048 C 
ATOM     11  C   UNL     1      -2.779  -5.985  -1.305  0.00  0.00    +0.086 C 
ATOM     12  N   UNL     1      -4.212  -6.103  -1.019  0.00  0.00    -0.297 NA
ATOM     13  C   UNL     1      -4.929  -4.820  -1.004  0.00  0.00    +0.148 C 
ATOM     14  C   UNL     1      -6.409  -5.010  -0.892  0.00  0.00    +0.006 A 
ATOM     15  C   UNL     1      -7.184  -5.591   0.089  0.00  0.00    +0.023 A 
ATOM     16  C   UNL     1      -8.559  -5.605  -0.119  0.00  0.00    +0.018 A 
ATOM     17  C   UNL     1      -9.119  -5.062  -1.258  0.00  0.00    +0.017 A 
ATOM     18  C   UNL     1      -8.346  -4.477  -2.249  0.00  0.00    +0.025 A 
ATOM     19  C   UNL     1      -6.964  -4.456  -2.052  0.00  0.00    +0.042 A 
ATOM     20  N   UNL     1      -5.968  -3.944  -2.865  0.00  0.00    -0.265 N 
ATOM     21  C   UNL     1      -4.741  -4.114  -2.329  0.00  0.00    +0.247 C 
ATOM     22  O   UNL     1      -3.687  -3.765  -2.817  0.00  0.00    -0.273 OA
ATOM     23 BR   UNL     1      -9.685  -6.385   1.185  0.00  0.00    -0.050 Br
ATOM     24  H   UNL     1      -4.655  -6.753  -1.652  0.00  0.00    +0.123 HD
ATOM     25  H   UNL     1      -5.737  -2.246  -0.025  0.00  0.00    +0.160 HD
ENDROOT
BRANCH   1  27
ATOM     26  C   UNL     1      -0.017   1.425   0.010  0.00  0.00    +0.277 C 
ATOM     27  O   UNL     1       0.002  -0.004   0.002  0.00  0.00    -0.495 OA
ENDBRANCH   1  27
BRANCH  20  28
ATOM     28  C   UNL     1      -6.217  -3.295  -4.155  0.00  0.00    +0.140 C 
BRANCH  28  29
ATOM     29  C   UNL     1      -6.414  -1.816  -3.943  0.00  0.00    -0.015 C 
ATOM     30  C   UNL     1      -5.673  -0.957  -4.598  0.00  0.00    +0.005 C 
ENDBRANCH  28  29
ENDBRANCH  20  28
TORSDOF 3
