REMARK  Name = ZINC30056812
REMARK  10 active torsions:
REMARK  status: ('A' for Active; 'I' for Inactive)
REMARK    1  A    between atoms: C_1  and  C_2
REMARK    2  A    between atoms: C_5  and  O_25
REMARK    3  A    between atoms: C_6  and  N_8
REMARK    4  A    between atoms: C_9  and  C_11
REMARK    5  A    between atoms: C_18  and  O_20
REMARK    6  A    between atoms: O_20  and  C_21
REMARK    7  A    between atoms: C_21  and  C_22
REMARK    8  A    between atoms: C_21  and  C_23
REMARK    9  A    between atoms: C_21  and  C_24
REMARK   10  A    between atoms: O_25  and  C_26
REMARK                            x       y       z     vdW  Elec       q    Type
REMARK                         _______ _______ _______ _____ _____    ______ ____
ROOT
ATOM      1  N   UNL     1      -1.031  -4.918  -1.188  0.00  0.00    -0.282 N 
ATOM      2  C   UNL     1      -2.138  -4.153  -1.102  0.00  0.00    +0.222 C 
ATOM      3  O   UNL     1      -3.228  -4.673  -0.991  0.00  0.00    -0.275 OA
ATOM      4  H   UNL     1      -0.054  -4.452  -1.381  0.00  0.00    +0.155 HD
ENDROOT
BRANCH   2   5
ATOM      5  C   UNL     1      -2.020  -2.651  -1.145  0.00  0.00    +0.093 C 
ATOM      6  C   UNL     1      -3.412  -2.026  -1.030  0.00  0.00    +0.016 C 
ATOM      7  C   UNL     1      -3.297  -0.502  -1.107  0.00  0.00    +0.020 C 
ATOM      8  C   UNL     1      -2.443   0.001   0.062  0.00  0.00    +0.111 C 
ATOM      9  N   UNL     1      -1.154  -0.703   0.042  0.00  0.00    -0.267 N 
ATOM     10  C   UNL     1      -1.152  -2.172   0.017  0.00  0.00    +0.123 C 
ATOM     11  C   UNL     1       0.004  -0.015   0.043  0.00  0.00    +0.403 C 
ATOM     12  O   UNL     1       1.064  -0.609   0.027  0.00  0.00    -0.226 OA
BRANCH  11  13
ATOM     13  O   UNL     1      -0.013   1.331   0.061  0.00  0.00    -0.445 OA
BRANCH  13  14
ATOM     14  C   UNL     1       1.273   2.007   0.060  0.00  0.00    +0.107 C 
ATOM     15  C   UNL     1       2.050   1.623  -1.200  0.00  0.00    +0.055 C 
ATOM     16  C   UNL     1       1.053   3.521   0.082  0.00  0.00    +0.055 C 
ATOM     17  C   UNL     1       2.069   1.589   1.298  0.00  0.00    +0.055 C 
ENDBRANCH  13  14
ENDBRANCH  11  13
ENDBRANCH   2   5
BRANCH   1  23
ATOM     18  C   UNL     1      -3.414  -8.820   0.620  0.00  0.00    +0.044 C 
ATOM     19  C   UNL     1      -2.271  -8.226  -0.161  0.00  0.00    -0.048 A 
ATOM     20  C   UNL     1      -1.316  -9.053  -0.723  0.00  0.00    +0.007 A 
ATOM     21  C   UNL     1      -0.264  -8.514  -1.440  0.00  0.00    +0.048 A 
ATOM     22  C   UNL     1      -0.165  -7.141  -1.598  0.00  0.00    +0.141 A 
ATOM     23  C   UNL     1      -1.127  -6.307  -1.032  0.00  0.00    +0.076 A 
ATOM     24  C   UNL     1      -2.176  -6.855  -0.309  0.00  0.00    +0.030 A 
BRANCH  22  25
ATOM     25  O   UNL     1       0.868  -6.609  -2.304  0.00  0.00    -0.493 OA
ATOM     26  C   UNL     1       1.817  -7.525  -2.855  0.00  0.00    +0.277 C 
ENDBRANCH  22  25
ENDBRANCH   1  23
TORSDOF 5
