REMARK  Name = ZINC64891876
REMARK  11 active torsions:
REMARK  status: ('A' for Active; 'I' for Inactive)
REMARK    1  A    between atoms: C_1  and  C_2
REMARK    2  A    between atoms: C_5  and  N_9
REMARK    3  A    between atoms: C_7  and  C_8
REMARK    4  A    between atoms: C_10  and  C_12
REMARK    5  A    between atoms: N_17  and  C_19
REMARK    6  A    between atoms: C_19  and  C_20
REMARK    7  A    between atoms: C_20  and  C_21
REMARK    8  A    between atoms: N_23  and  C_24
REMARK    9  A    between atoms: C_24  and  C_25
REMARK   10  A    between atoms: C_24  and  C_26
REMARK   11  A    between atoms: C_24  and  C_27
REMARK                            x       y       z     vdW  Elec       q    Type
REMARK                         _______ _______ _______ _____ _____    ______ ____
ROOT
ATOM      1  C   UNL     1      -0.132  -6.313  -1.187  0.00  0.00    +0.146 A 
ATOM      2  C   UNL     1      -0.230  -7.014  -2.414  0.00  0.00    +0.040 A 
ATOM      3  C   UNL     1      -0.313  -8.374  -2.374  0.00  0.00    +0.074 A 
ATOM      4  C   UNL     1      -0.296  -9.002  -1.109  0.00  0.00    +0.267 A 
ATOM      5  O   UNL     1      -0.368 -10.217  -1.026  0.00  0.00    -0.266 OA
ATOM      6  N   UNL     1      -0.200  -8.251   0.004  0.00  0.00    -0.228 N 
ATOM      7  N   UNL     1      -0.118  -6.971  -0.049  0.00  0.00    -0.164 NA
ENDROOT
BRANCH   1   9
ATOM      8  N   UNL     1       0.058  -4.169  -0.021  0.00  0.00    -0.280 N 
ATOM      9  C   UNL     1      -0.041  -4.838  -1.187  0.00  0.00    +0.268 C 
ATOM     10  O   UNL     1      -0.054  -4.228  -2.238  0.00  0.00    -0.268 OA
ATOM     11  H   UNL     1       0.146  -4.657   0.812  0.00  0.00    +0.155 HD
BRANCH   8  16
ATOM     12  C   UNL     1      -0.040   1.502   0.012  0.00  0.00    +0.044 C 
ATOM     13  C   UNL     1      -0.014  -0.004   0.003  0.00  0.00    -0.047 A 
ATOM     14  C   UNL     1       0.748  -0.687   0.934  0.00  0.00    +0.005 A 
ATOM     15  C   UNL     1       0.774  -2.067   0.929  0.00  0.00    +0.023 A 
ATOM     16  C   UNL     1       0.034  -2.771  -0.013  0.00  0.00    +0.034 A 
ATOM     17  C   UNL     1      -0.730  -2.083  -0.946  0.00  0.00    +0.027 A 
ATOM     18  C   UNL     1      -0.756  -0.702  -0.932  0.00  0.00    -0.046 A 
ATOM     19  C   UNL     1      -1.590   0.046  -1.941  0.00  0.00    +0.044 C 
ENDBRANCH   8  16
ENDBRANCH   1   9
BRANCH   6  20
ATOM     20  C   UNL     1      -0.184  -8.912   1.311  0.00  0.00    +0.156 C 
BRANCH  20  21
ATOM     21  C   UNL     1       1.260  -9.232   1.702  0.00  0.00    +0.119 C 
BRANCH  21  22
ATOM     22  C   UNL     1       1.277  -9.913   3.047  0.00  0.00    +0.215 C 
ATOM     23  O   UNL     1       0.237 -10.121   3.634  0.00  0.00    -0.276 OA
ATOM     24  N   UNL     1       2.449 -10.289   3.597  0.00  0.00    -0.311 N 
ATOM     25  H   UNL     1       3.281 -10.123   3.127  0.00  0.00    +0.149 HD
BRANCH  24  26
ATOM     26  C   UNL     1       2.465 -10.951   4.904  0.00  0.00    +0.026 C 
ATOM     27  C   UNL     1       1.658 -12.248   4.829  0.00  0.00    +0.031 C 
ATOM     28  C   UNL     1       3.909 -11.271   5.295  0.00  0.00    +0.031 C 
ATOM     29  C   UNL     1       1.845 -10.024   5.952  0.00  0.00    +0.031 C 
ENDBRANCH  24  26
ENDBRANCH  21  22
ENDBRANCH  20  21
ENDBRANCH   6  20
TORSDOF 6
