REMARK  Name = ZINC08713339
REMARK  7 active torsions:
REMARK  status: ('A' for Active; 'I' for Inactive)
REMARK    1  A    between atoms: C_1  and  C_2
REMARK    2  A    between atoms: C_9  and  C_14
REMARK    3  A    between atoms: C_14  and  O_16
REMARK    4  A    between atoms: O_16  and  C_17
REMARK    5  A    between atoms: C_17  and  C_19
REMARK    6  A    between atoms: C_17  and  C_20
REMARK    7  A    between atoms: N_22  and  C_23
REMARK                            x       y       z     vdW  Elec       q    Type
REMARK                         _______ _______ _______ _____ _____    ______ ____
ROOT
ATOM      1  O   UNL     1      -4.375   6.920   1.024  0.00  0.00    -0.449 OA
ENDROOT
BRANCH   1   2
ATOM      2  C   UNL     1      -4.141   5.593   1.017  0.00  0.00    +0.340 C 
ATOM      3  O   UNL     1      -4.997   4.823   1.405  0.00  0.00    -0.245 OA
BRANCH   2  11
ATOM      4  C   UNL     1       1.731   2.311   1.473  0.00  0.00    +0.029 C 
ATOM      5  C   UNL     1       1.324   1.956   0.042  0.00  0.00    +0.134 C 
ATOM      6  C   UNL     1       0.010   1.224   0.058  0.00  0.00    +0.230 C 
ATOM      7  O   UNL     1       0.030   0.011   0.060  0.00  0.00    -0.274 OA
ATOM      8  N   UNL     1      -1.173   1.833   0.064  0.00  0.00    -0.284 N 
ATOM      9  C   UNL     1      -1.392   3.208   0.079  0.00  0.00    +0.048 A 
ATOM     10  C   UNL     1      -2.607   3.699   0.530  0.00  0.00    +0.039 A 
ATOM     11  C   UNL     1      -2.848   5.075   0.537  0.00  0.00    +0.061 A 
ATOM     12  C   UNL     1      -1.863   5.963   0.090  0.00  0.00    +0.016 A 
ATOM     13  C   UNL     1      -0.655   5.475  -0.356  0.00  0.00    +0.017 A 
ATOM     14  C   UNL     1      -0.416   4.107  -0.363  0.00  0.00    +0.030 A 
ATOM     15  S   UNL     1       1.133   3.480  -0.932  0.00  0.00    -0.111 S 
ATOM     16  H   UNL     1      -1.958   1.263   0.062  0.00  0.00    +0.155 HD
ENDBRANCH   2  11
ENDBRANCH   1   2
BRANCH   1  17
ATOM     17  C   UNL     1      -5.671   7.358   1.510  0.00  0.00    +0.259 C 
ATOM     18  C   UNL     1      -5.596   7.598   3.019  0.00  0.00    +0.062 C 
BRANCH  17  19
ATOM     19  C   UNL     1      -6.061   8.638   0.816  0.00  0.00    +0.258 C 
ATOM     20  O   UNL     1      -5.319   9.133  -0.006  0.00  0.00    -0.271 OA
ATOM     21  N   UNL     1      -7.234   9.234   1.110  0.00  0.00    -0.281 N 
ATOM     22  H   UNL     1      -7.863   8.799   1.707  0.00  0.00    +0.155 HD
BRANCH  21  23
ATOM     23  C   UNL     1      -7.545  10.481   0.554  0.00  0.00    +0.053 A 
ATOM     24  C   UNL     1      -6.527  11.334   0.147  0.00  0.00    +0.046 A 
ATOM     25  C   UNL     1      -6.837  12.562  -0.405  0.00  0.00    +0.061 A 
ATOM     26  C   UNL     1      -8.160  12.946  -0.545  0.00  0.00    +0.061 A 
ATOM     27  C   UNL     1      -9.175  12.100  -0.136  0.00  0.00    +0.043 A 
ATOM     28  C   UNL     1      -8.871  10.869   0.413  0.00  0.00    +0.064 A 
ATOM     29 CL   UNL     1     -10.146   9.807   0.925  0.00  0.00    -0.082 Cl
ATOM     30 CL   UNL     1      -8.546  14.492  -1.234  0.00  0.00    -0.082 Cl
ATOM     31 CL   UNL     1      -5.566  13.627  -0.919  0.00  0.00    -0.082 Cl
ENDBRANCH  21  23
ENDBRANCH  17  19
ENDBRANCH   1  17
TORSDOF 5
