REMARK  Name = ZINC39684473
REMARK  10 active torsions:
REMARK  status: ('A' for Active; 'I' for Inactive)
REMARK    1  A    between atoms: C_1  and  C_2
REMARK    2  A    between atoms: C_3  and  C_15
REMARK    3  A    between atoms: C_4  and  C_7
REMARK    4  A    between atoms: C_19  and  C_28
REMARK    5  A    between atoms: N_30  and  C_31
REMARK    6  A    between atoms: C_31  and  C_33
REMARK    7  A    between atoms: C_31  and  C_34
REMARK    8  A    between atoms: C_34  and  C_35
REMARK    9  A    between atoms: C_34  and  C_36
REMARK   10  A    between atoms: C_34  and  C_37
REMARK                            x       y       z     vdW  Elec       q    Type
REMARK                         _______ _______ _______ _____ _____    ______ ____
ROOT
ATOM      1  C   UNL     1      -2.232  -0.426   0.523  0.00  0.00    +0.252 C 
ATOM      2  O   UNL     1      -2.964  -0.212  -0.424  0.00  0.00    -0.270 OA
ATOM      3  N   UNL     1      -2.730  -0.410   1.776  0.00  0.00    -0.296 N 
ATOM      4  C   UNL     1      -2.001  -0.639   3.046  0.00  0.00    +0.121 C 
ATOM      5  C   UNL     1      -2.607   0.384   4.033  0.00  0.00    +0.100 C 
ATOM      6  C   UNL     1      -4.004   0.693   3.470  0.00  0.00    -0.004 C 
ATOM      7  C   UNL     1      -4.129  -0.153   2.195  0.00  0.00    +0.115 C 
ATOM      8  C   UNL     1      -5.079   0.295   4.477  0.00  0.00    -0.010 C 
ATOM      9  C   UNL     1      -6.456   0.665   3.919  0.00  0.00    -0.082 C 
ATOM     10  N   UNL     1      -6.510   2.109   3.660  0.00  0.00    +0.379 N 
ATOM     11  C   UNL     1      -5.535   2.469   2.623  0.00  0.00    -0.082 C 
ATOM     12  C   UNL     1      -4.119   2.175   3.126  0.00  0.00    -0.010 C 
ATOM     13  H   UNL     1      -7.437   2.360   3.351  0.00  0.00    -0.086 HD
ATOM     14  H   UNL     1      -6.295   2.610   4.510  0.00  0.00    -0.086 HD
ENDROOT
BRANCH   1  17
ATOM     15  C   UNL     1       0.051   1.705   0.418  0.00  0.00    +0.090 C 
ATOM     16  C   UNL     1       0.205   0.215   0.254  0.00  0.00    +0.147 A 
ATOM     17  C   UNL     1      -0.803  -0.703   0.302  0.00  0.00    +0.106 A 
ATOM     18  C   UNL     1      -0.186  -2.021   0.092  0.00  0.00    +0.130 A 
ATOM     19  N   UNL     1       1.098  -1.821  -0.062  0.00  0.00    -0.077 NA
ATOM     20  O   UNL     1       1.351  -0.433   0.031  0.00  0.00    -0.359 OA
BRANCH  18  21
ATOM     21  C   UNL     1      -0.886  -3.328   0.062  0.00  0.00    +0.058 A 
ATOM     22  C   UNL     1      -1.998  -3.509  -0.762  0.00  0.00    +0.134 A 
ATOM     23  C   UNL     1      -2.646  -4.730  -0.785  0.00  0.00    +0.039 A 
ATOM     24  C   UNL     1      -2.193  -5.771   0.006  0.00  0.00    +0.004 A 
ATOM     25  C   UNL     1      -1.091  -5.598   0.824  0.00  0.00    +0.021 A 
ATOM     26  C   UNL     1      -0.432  -4.384   0.852  0.00  0.00    +0.053 A 
ATOM     27 CL   UNL     1       0.955  -4.171   1.875  0.00  0.00    -0.083 Cl
ATOM     28  F   UNL     1      -2.441  -2.493  -1.534  0.00  0.00    -0.205 F 
ENDBRANCH  18  21
ENDBRANCH   1  17
BRANCH   5  29
ATOM     29  C   UNL     1      -2.715  -0.217   5.411  0.00  0.00    +0.218 C 
ATOM     30  O   UNL     1      -2.901  -1.408   5.540  0.00  0.00    -0.275 OA
ATOM     31  N   UNL     1      -2.604   0.570   6.500  0.00  0.00    -0.312 N 
ATOM     32  H   UNL     1      -2.454   1.522   6.396  0.00  0.00    +0.149 HD
BRANCH  31  33
ATOM     33  C   UNL     1      -2.708  -0.015   7.839  0.00  0.00    +0.075 C 
ATOM     34  C   UNL     1      -4.182  -0.111   8.239  0.00  0.00    +0.028 C 
BRANCH  33  35
ATOM     35  C   UNL     1      -1.965   0.870   8.841  0.00  0.00    -0.020 C 
ATOM     36  C   UNL     1      -2.585   2.269   8.845  0.00  0.00    +0.012 C 
ATOM     37  C   UNL     1      -2.074   0.260  10.240  0.00  0.00    +0.012 C 
ATOM     38  C   UNL     1      -0.491   0.967   8.441  0.00  0.00    +0.012 C 
ENDBRANCH  33  35
ENDBRANCH  31  33
ENDBRANCH   5  29
TORSDOF 5
