REMARK  Name = ZINC08833051
REMARK  7 active torsions:
REMARK  status: ('A' for Active; 'I' for Inactive)
REMARK    1  A    between atoms: C_1  and  C_2
REMARK    2  A    between atoms: C_6  and  C_10
REMARK    3  A    between atoms: C_7  and  O_8
REMARK    4  A    between atoms: O_8  and  C_9
REMARK    5  A    between atoms: N_12  and  C_13
REMARK    6  A    between atoms: C_13  and  N_15
REMARK    7  A    between atoms: N_15  and  C_16
REMARK                            x       y       z     vdW  Elec       q    Type
REMARK                         _______ _______ _______ _____ _____    ______ ____
ROOT
ATOM      1  C   UNL     1       3.595  -4.734  -0.363  0.00  0.00    +0.253 C 
ATOM      2  O   UNL     1       4.640  -4.114  -0.370  0.00  0.00    -0.270 OA
ATOM      3  N   UNL     1       2.422  -4.079  -0.247  0.00  0.00    -0.263 N 
ATOM      4  H   UNL     1       1.588  -4.574  -0.242  0.00  0.00    +0.157 HD
ENDROOT
BRANCH   1  10
ATOM      5  C   UNL     1       6.133  -9.014  -0.847  0.00  0.00    +0.047 C 
ATOM      6  C   UNL     1       4.828  -8.272  -0.716  0.00  0.00    -0.007 A 
ATOM      7  C   UNL     1       3.636  -8.969  -0.708  0.00  0.00    +0.022 A 
ATOM      8  C   UNL     1       2.431  -8.296  -0.588  0.00  0.00    +0.019 A 
ATOM      9  C   UNL     1       2.410  -6.921  -0.476  0.00  0.00    +0.032 A 
ATOM     10  C   UNL     1       3.609  -6.204  -0.483  0.00  0.00    +0.080 A 
ATOM     11  C   UNL     1       4.826  -6.889  -0.610  0.00  0.00    +0.135 A 
ATOM     12 BR   UNL     1       0.807  -9.265  -0.580  0.00  0.00    -0.050 Br
BRANCH  11  13
ATOM     13  O   UNL     1       5.996  -6.203  -0.624  0.00  0.00    -0.494 OA
ATOM     14  C   UNL     1       6.630  -5.976   0.636  0.00  0.00    +0.277 C 
ENDBRANCH  11  13
ENDBRANCH   1  10
BRANCH   3  15
ATOM     15  C   UNL     1       2.409  -2.736  -0.138  0.00  0.00    +0.141 C 
ATOM     16  S   UNL     1       3.881  -1.862  -0.147  0.00  0.00    -0.018 S 
BRANCH  15  17
ATOM     17  N   UNL     1       1.237  -2.081  -0.021  0.00  0.00    -0.295 N 
ATOM     18  H   UNL     1       0.409  -2.579   0.064  0.00  0.00    +0.154 HD
BRANCH  17  19
ATOM     19  C   UNL     1       1.214  -0.681  -0.023  0.00  0.00    +0.053 A 
ATOM     20  C   UNL     1       1.973   0.025  -0.946  0.00  0.00    +0.046 A 
ATOM     21  C   UNL     1       1.949   1.407  -0.946  0.00  0.00    +0.061 A 
ATOM     22  C   UNL     1       1.168   2.087  -0.026  0.00  0.00    +0.061 A 
ATOM     23  C   UNL     1       0.411   1.385   0.895  0.00  0.00    +0.043 A 
ATOM     24  C   UNL     1       0.432   0.003   0.899  0.00  0.00    +0.064 A 
ATOM     25 CL   UNL     1      -0.519  -0.877   2.054  0.00  0.00    -0.082 Cl
ATOM     26 CL   UNL     1       1.139   3.823  -0.028  0.00  0.00    -0.082 Cl
ATOM     27 CL   UNL     1       2.897   2.292  -2.100  0.00  0.00    -0.082 Cl
ENDBRANCH  17  19
ENDBRANCH  15  17
ENDBRANCH   3  15
TORSDOF 5
