REMARK  Name = ZINC65266044
REMARK  8 active torsions:
REMARK  status: ('A' for Active; 'I' for Inactive)
REMARK    1  A    between atoms: C_1  and  C_2
REMARK    2  A    between atoms: C_4  and  S_9
REMARK    3  A    between atoms: C_5  and  C_8
REMARK    4  A    between atoms: S_9  and  N_12
REMARK    5  A    between atoms: N_27  and  C_28
REMARK    6  A    between atoms: C_28  and  C_29
REMARK    7  A    between atoms: C_28  and  C_30
REMARK    8  A    between atoms: C_28  and  C_31
REMARK                            x       y       z     vdW  Elec       q    Type
REMARK                         _______ _______ _______ _____ _____    ______ ____
ROOT
ATOM      1  N   UNL     1       0.886   1.511  -3.487  0.00  0.00    -0.175 NA
ATOM      2  C   UNL     1       0.406   2.831  -3.048  0.00  0.00    +0.112 C 
ATOM      3  C   UNL     1       1.504   3.860  -3.400  0.00  0.00    +0.048 C 
ATOM      4  C   UNL     1       2.761   2.986  -3.536  0.00  0.00    +0.089 C 
ATOM      5  C   UNL     1       2.216   1.672  -4.109  0.00  0.00    +0.139 C 
ATOM      6  C   UNL     1       3.786   3.607  -4.422  0.00  0.00    +0.095 C 
ATOM      7  N   UNL     1       5.093   3.260  -4.185  0.00  0.00    -0.303 N 
ATOM      8  C   UNL     1       5.836   4.012  -3.280  0.00  0.00    +0.037 A 
ATOM      9  C   UNL     1       7.129   4.403  -3.598  0.00  0.00    +0.023 A 
ATOM     10  C   UNL     1       7.873   5.136  -2.696  0.00  0.00    +0.002 A 
ATOM     11  C   UNL     1       7.320   5.476  -1.474  0.00  0.00    +0.000 A 
ATOM     12  C   UNL     1       6.035   5.092  -1.161  0.00  0.00    +0.007 A 
ATOM     13  C   UNL     1       5.266   4.360  -2.061  0.00  0.00    -0.012 A 
ATOM     14  C   UNL     1       3.860   4.020  -1.637  0.00  0.00    +0.119 C 
ATOM     15  N   UNL     1       3.384   2.756  -2.214  0.00  0.00    -0.299 NA
ATOM     16  N   UNL     1       3.461   4.429  -5.366  0.00  0.00    -0.370 N 
ATOM     17  H   UNL     1       2.743   2.292  -1.588  0.00  0.00    +0.123 HD
ATOM     18  H   UNL     1       2.526   4.586  -5.572  0.00  0.00    +0.161 HD
ATOM     19  H   UNL     1       5.493   2.503  -4.641  0.00  0.00    +0.153 HD
ENDROOT
BRANCH  16  20
ATOM     20  C   UNL     1       4.504   5.125  -6.123  0.00  0.00    +0.031 C 
ATOM     21  C   UNL     1       5.513   4.105  -6.655  0.00  0.00    +0.033 C 
ATOM     22  C   UNL     1       3.869   5.874  -7.296  0.00  0.00    +0.033 C 
ATOM     23  C   UNL     1       5.220   6.121  -5.209  0.00  0.00    +0.033 C 
ENDBRANCH  16  20
BRANCH   1  24
ATOM     24  S   UNL     1       0.072   0.080  -3.308  0.00  0.00    +0.061 S 
ATOM     25  O   UNL     1       0.655  -0.837  -4.224  0.00  0.00    -0.153 OA
ATOM     26  O   UNL     1      -1.313   0.396  -3.325  0.00  0.00    -0.153 OA
BRANCH  24  29
ATOM     27  C   UNL     1       1.952  -2.499  -1.969  0.00  0.00    +0.041 C 
ATOM     28  C   UNL     1       1.702  -1.196  -1.206  0.00  0.00    +0.176 C 
ATOM     29  C   UNL     1       0.430  -0.524  -1.692  0.00  0.00    +0.131 C 
ATOM     30  C   UNL     1      -0.353  -0.498  -0.612  0.00  0.00    +0.084 C 
ATOM     31  N   UNL     1       0.272  -1.058   0.448  0.00  0.00    -0.157 NA
ATOM     32  N   UNL     1       1.414  -1.471   0.212  0.00  0.00    -0.178 NA
ATOM     33  C   UNL     1      -1.745   0.079  -0.578  0.00  0.00    +0.069 C 
ENDBRANCH  24  29
ENDBRANCH   1  24
TORSDOF 3
