REMARK  Name = ZINC00652379
REMARK  11 active torsions:
REMARK  status: ('A' for Active; 'I' for Inactive)
REMARK    1  A    between atoms: C_1  and  C_2
REMARK    2  A    between atoms: C_2  and  O_3
REMARK    3  A    between atoms: O_3  and  C_4
REMARK    4  A    between atoms: C_4  and  C_6
REMARK    5  A    between atoms: C_7  and  N_23
REMARK    6  A    between atoms: C_12  and  N_20
REMARK    7  A    between atoms: C_14  and  S_15
REMARK    8  A    between atoms: S_15  and  C_16
REMARK    9  A    between atoms: C_16  and  C_17
REMARK   10  A    between atoms: C_17  and  C_18
REMARK   11  A    between atoms: C_17  and  C_19
REMARK                            x       y       z     vdW  Elec       q    Type
REMARK                         _______ _______ _______ _____ _____    ______ ____
ROOT
ATOM      1  C   UNL     1       1.389  -2.327  -2.496  0.00  0.00    +0.118 A 
ATOM      2  C   UNL     1       1.624  -3.650  -2.814  0.00  0.00    +0.055 A 
ATOM      3  C   UNL     1       2.366  -3.947  -4.027  0.00  0.00    +0.024 A 
ATOM      4  C   UNL     1       2.775  -2.818  -4.769  0.00  0.00    +0.025 A 
ATOM      5  S   UNL     1       2.158  -1.440  -3.837  0.00  0.00    -0.080 S 
ATOM      6  C   UNL     1       3.488  -2.932  -5.946  0.00  0.00    +0.048 A 
ATOM      7  C   UNL     1       3.822  -4.181  -6.431  0.00  0.00    +0.128 A 
ATOM      8  C   UNL     1       3.438  -5.314  -5.730  0.00  0.00    +0.048 A 
ATOM      9  C   UNL     1       2.725  -5.220  -4.554  0.00  0.00    +0.020 A 
ENDROOT
BRANCH   7  10
ATOM     10  N   UNL     1       4.586  -4.310  -7.692  0.00  0.00    +0.056 N 
ATOM     11  O   UNL     1       4.919  -3.320  -8.301  0.00  0.00    -0.126 OA
ATOM     12  O   UNL     1       4.877  -5.406  -8.114  0.00  0.00    -0.126 OA
ENDBRANCH   7  10
BRANCH   2  13
ATOM     13  N   UNL     1       1.164  -4.670  -1.994  0.00  0.00    -0.356 N 
ATOM     14  H   UNL     1       0.417  -4.512  -1.396  0.00  0.00    +0.142 HD
ATOM     15  H   UNL     1       1.591  -5.541  -2.018  0.00  0.00    +0.142 HD
ENDBRANCH   2  13
BRANCH   1  16
ATOM     16  C   UNL     1       0.699  -1.803  -1.380  0.00  0.00    +0.348 C 
ATOM     17  O   UNL     1       0.228  -2.555  -0.547  0.00  0.00    -0.244 OA
BRANCH  16  18
ATOM     18  O   UNL     1       0.561  -0.467  -1.238  0.00  0.00    -0.461 OA
BRANCH  18  20
ATOM     19  C   UNL     1      -0.202   1.522  -0.097  0.00  0.00    +0.048 C 
ATOM     20  C   UNL     1      -0.148  -0.007  -0.086  0.00  0.00    +0.229 C 
ENDBRANCH  18  20
ENDBRANCH  16  18
ENDBRANCH   1  16
BRANCH   9  21
ATOM     21  S   UNL     1       2.257  -6.686  -3.695  0.00  0.00    -0.124 S 
BRANCH  21  22
ATOM     22  C   UNL     1       2.919  -8.027  -4.721  0.00  0.00    +0.077 C 
BRANCH  22  23
ATOM     23  C   UNL     1       2.579  -9.374  -4.082  0.00  0.00    -0.007 C 
ATOM     24  C   UNL     1       1.062  -9.573  -4.086  0.00  0.00    +0.008 C 
ATOM     25  C   UNL     1       3.243 -10.499  -4.879  0.00  0.00    +0.008 C 
ENDBRANCH  22  23
ENDBRANCH  21  22
ENDBRANCH   9  21
TORSDOF 8
