REMARK  Name = ZINC09312867
REMARK  5 active torsions:
REMARK  status: ('A' for Active; 'I' for Inactive)
REMARK    1  A    between atoms: C_3  and  C_6
REMARK    2  A    between atoms: C_6  and  N_7
REMARK    3  A    between atoms: C_15  and  C_25
REMARK    4  A    between atoms: C_15  and  C_29
REMARK    5  A    between atoms: C_16  and  C_18
REMARK                            x       y       z     vdW  Elec       q    Type
REMARK                         _______ _______ _______ _____ _____    ______ ____
ROOT
ATOM      1  N   UNL     1       3.811   3.699  -0.710  0.00  0.00    -0.274 N 
ATOM      2  C   UNL     1       2.581   4.173  -0.355  0.00  0.00    +0.120 A 
ATOM      3  C   UNL     1       1.500   3.318  -0.367  0.00  0.00    +0.098 A 
ATOM      4  C   UNL     1       1.698   1.989  -0.751  0.00  0.00    +0.262 A 
ATOM      5  N   UNL     1       2.916   1.577  -1.085  0.00  0.00    -0.275 N 
ATOM      6  C   UNL     1       3.953   2.410  -1.072  0.00  0.00    +0.331 A 
ATOM      7  O   UNL     1       5.056   1.996  -1.390  0.00  0.00    -0.246 OA
ATOM      8  O   UNL     1       0.657   1.125  -0.776  0.00  0.00    -0.267 OA
ATOM      9  C   UNL     1       0.137   3.806   0.030  0.00  0.00    +0.264 C 
ATOM     10  C   UNL     1       1.129   6.016   0.037  0.00  0.00    +0.106 C 
ATOM     11  N   UNL     1       2.404   5.485   0.013  0.00  0.00    -0.286 N 
ATOM     12  H   UNL     1       3.055   0.624  -1.352  0.00  0.00    +0.173 HD
ATOM     13  H   UNL     1       3.167   6.034   0.253  0.00  0.00    +0.155 HD
ATOM     14  N   UNL     1      -0.005   5.306   0.039  0.00  0.00    -0.348 N 
ATOM     15  H   UNL     1      -0.925   5.760   0.047  0.00  0.00    +0.162 HD
ENDROOT
BRANCH  10  16
ATOM     16  C   UNL     1       0.961   7.486   0.062  0.00  0.00    +0.013 A 
ATOM     17  C   UNL     1       2.081   8.318   0.066  0.00  0.00    +0.014 A 
ATOM     18  C   UNL     1       1.919   9.688   0.085  0.00  0.00    +0.039 A 
ATOM     19  C   UNL     1       0.647  10.237   0.110  0.00  0.00    +0.123 A 
ATOM     20  C   UNL     1      -0.469   9.414   0.110  0.00  0.00    +0.039 A 
ATOM     21  C   UNL     1      -0.318   8.044   0.087  0.00  0.00    +0.014 A 
ATOM     22  F   UNL     1       0.493  11.579   0.134  0.00  0.00    -0.205 F 
ENDBRANCH  10  16
BRANCH   9  23
ATOM     23  C   UNL     1      -0.897   3.269  -0.962  0.00  0.00    +0.426 C 
ATOM     24  F   UNL     1      -1.172   1.929  -0.668  0.00  0.00    -0.167 F 
ATOM     25  F   UNL     1      -2.073   4.020  -0.862  0.00  0.00    -0.167 F 
ATOM     26  F   UNL     1      -0.390   3.367  -2.262  0.00  0.00    -0.167 F 
ENDBRANCH   9  23
BRANCH   9  27
ATOM     27  C   UNL     1      -0.195   3.283   1.429  0.00  0.00    +0.426 C 
ATOM     28  F   UNL     1       0.757   3.753   2.341  0.00  0.00    -0.167 F 
ATOM     29  F   UNL     1      -1.464   3.734   1.807  0.00  0.00    -0.167 F 
ATOM     30  F   UNL     1      -0.180   1.884   1.420  0.00  0.00    -0.167 F 
ENDBRANCH   9  27
BRANCH   1  31
ATOM     31  C   UNL     1       4.973   4.591  -0.697  0.00  0.00    +0.202 C 
BRANCH  31  34
ATOM     32  C   UNL     1       6.916   4.005   2.379  0.00  0.00    +0.041 A 
ATOM     33  C   UNL     1       6.599   3.696   1.036  0.00  0.00    +0.046 A 
ATOM     34  C   UNL     1       5.627   4.546   0.660  0.00  0.00    +0.125 A 
ATOM     35  O   UNL     1       5.333   5.343   1.700  0.00  0.00    -0.466 OA
ATOM     36  C   UNL     1       6.112   5.020   2.745  0.00  0.00    +0.195 A 
ENDBRANCH  31  34
ENDBRANCH   1  31
TORSDOF 5
