REMARK  Name = ZINC14609104
REMARK  10 active torsions:
REMARK  status: ('A' for Active; 'I' for Inactive)
REMARK    1  A    between atoms: C_1  and  C_2
REMARK    2  A    between atoms: C_5  and  N_9
REMARK    3  A    between atoms: C_6  and  C_8
REMARK    4  A    between atoms: N_9  and  C_10
REMARK    5  A    between atoms: C_10  and  C_11
REMARK    6  A    between atoms: C_19  and  C_21
REMARK    7  A    between atoms: C_24  and  C_27
REMARK    8  A    between atoms: C_27  and  C_28
REMARK    9  A    between atoms: C_27  and  C_29
REMARK   10  A    between atoms: C_27  and  C_30
REMARK                            x       y       z     vdW  Elec       q    Type
REMARK                         _______ _______ _______ _____ _____    ______ ____
ROOT
ATOM      1  C   UNL     1       0.082  -6.376  -1.026  0.00  0.00    +0.067 A 
ATOM      2  C   UNL     1      -0.981  -7.148  -1.399  0.00  0.00    +0.097 A 
ATOM      3  C   UNL     1      -0.941  -8.530  -1.140  0.00  0.00    +0.276 A 
ATOM      4  O   UNL     1      -1.872  -9.251  -1.459  0.00  0.00    -0.266 OA
ATOM      5  N   UNL     1       0.147  -9.042  -0.534  0.00  0.00    -0.159 N 
ATOM      6  C   UNL     1       1.188  -8.226  -0.180  0.00  0.00    +0.257 A 
ATOM      7  N   UNL     1       1.137  -6.925  -0.435  0.00  0.00    -0.214 NA
ATOM      8  N   UNL     1       2.131  -8.987   0.400  0.00  0.00    -0.189 NA
ATOM      9  C   UNL     1       1.742 -10.244   0.433  0.00  0.00    +0.184 A 
ATOM     10  N   UNL     1       0.502 -10.339  -0.141  0.00  0.00    -0.140 NA
ENDROOT
BRANCH   9  11
ATOM     11  C   UNL     1       2.517 -11.368   0.996  0.00  0.00    +0.021 A 
ATOM     12  C   UNL     1       1.996 -12.664   0.965  0.00  0.00    +0.012 A 
ATOM     13  C   UNL     1       2.725 -13.709   1.493  0.00  0.00    +0.005 A 
ATOM     14  C   UNL     1       3.969 -13.477   2.051  0.00  0.00    -0.042 A 
ATOM     15  C   UNL     1       4.491 -12.196   2.085  0.00  0.00    +0.005 A 
ATOM     16  C   UNL     1       3.776 -11.142   1.556  0.00  0.00    +0.012 A 
BRANCH  14  17
ATOM     17  C   UNL     1       4.760 -14.624   2.627  0.00  0.00    -0.013 C 
ATOM     18  C   UNL     1       5.031 -15.656   1.530  0.00  0.00    +0.015 C 
ATOM     19  C   UNL     1       6.088 -14.102   3.177  0.00  0.00    +0.015 C 
ATOM     20  C   UNL     1       3.961 -15.278   3.756  0.00  0.00    +0.015 C 
ENDBRANCH  14  17
ENDBRANCH   9  11
BRANCH   1  21
ATOM     21  C   UNL     1       0.061  -4.893  -1.294  0.00  0.00    +0.157 C 
BRANCH  21  22
ATOM     22  N   UNL     1       0.058  -4.167  -0.021  0.00  0.00    -0.338 N 
ATOM     23  H   UNL     1       0.069  -4.657   0.816  0.00  0.00    +0.146 HD
BRANCH  22  28
ATOM     24  C   UNL     1      -0.018   1.503   0.010  0.00  0.00    +0.044 C 
ATOM     25  C   UNL     1       0.002  -0.004   0.002  0.00  0.00    -0.050 A 
ATOM     26  C   UNL     1       0.006  -0.687  -1.200  0.00  0.00    +0.005 A 
ATOM     27  C   UNL     1       0.024  -2.068  -1.212  0.00  0.00    +0.023 A 
ATOM     28  C   UNL     1       0.040  -2.771  -0.013  0.00  0.00    +0.030 A 
ATOM     29  C   UNL     1       0.036  -2.081   1.192  0.00  0.00    -0.029 A 
ATOM     30  C   UNL     1       0.023  -0.700   1.196  0.00  0.00    +0.008 A 
ATOM     31  C   UNL     1       0.052  -2.839   2.495  0.00  0.00    +0.045 C 
ENDBRANCH  22  28
ENDBRANCH  21  22
ENDBRANCH   1  21
TORSDOF 5
