REMARK  Name = ZINC16283160
REMARK  7 active torsions:
REMARK  status: ('A' for Active; 'I' for Inactive)
REMARK    1  A    between atoms: C_1  and  C_2
REMARK    2  A    between atoms: C_4  and  C_11
REMARK    3  A    between atoms: C_7  and  N_8
REMARK    4  A    between atoms: N_13  and  C_14
REMARK    5  A    between atoms: C_14  and  N_16
REMARK    6  A    between atoms: N_16  and  C_17
REMARK    7  A    between atoms: C_22  and  C_23
REMARK                            x       y       z     vdW  Elec       q    Type
REMARK                         _______ _______ _______ _____ _____    ______ ____
ROOT
ATOM      1  C   UNL     1       7.071   3.528   0.328  0.00  0.00    +0.250 C 
ATOM      2  O   UNL     1       6.929   4.731   0.426  0.00  0.00    -0.270 OA
ATOM      3  N   UNL     1       5.995   2.735   0.154  0.00  0.00    -0.264 N 
ATOM      4  H   UNL     1       6.108   1.775   0.075  0.00  0.00    +0.157 HD
ENDROOT
BRANCH   1   8
ATOM      5  C   UNL     1      12.004   4.075   0.838  0.00  0.00    +0.046 C 
ATOM      6  C   UNL     1      10.798   3.193   0.644  0.00  0.00    -0.020 A 
ATOM      7  C   UNL     1       9.539   3.753   0.578  0.00  0.00    +0.018 A 
ATOM      8  C   UNL     1       8.423   2.935   0.398  0.00  0.00    +0.037 A 
ATOM      9  C   UNL     1       8.588   1.553   0.291  0.00  0.00    +0.015 A 
ATOM     10  C   UNL     1       9.853   1.006   0.353  0.00  0.00    +0.034 A 
ATOM     11  C   UNL     1      10.956   1.823   0.531  0.00  0.00    +0.129 A 
BRANCH  11  12
ATOM     12  N   UNL     1      12.309   1.229   0.603  0.00  0.00    +0.057 N 
ATOM     13  O   UNL     1      12.591   0.269  -0.093  0.00  0.00    -0.126 OA
ATOM     14  O   UNL     1      13.142   1.699   1.357  0.00  0.00    -0.126 OA
ENDBRANCH  11  12
ENDBRANCH   1   8
BRANCH   3  15
ATOM     15  C   UNL     1       4.763   3.276   0.089  0.00  0.00    +0.141 C 
ATOM     16  S   UNL     1       4.563   4.971   0.229  0.00  0.00    -0.018 S 
BRANCH  15  17
ATOM     17  N   UNL     1       3.687   2.483  -0.085  0.00  0.00    -0.296 N 
ATOM     18  H   UNL     1       3.791   1.519  -0.090  0.00  0.00    +0.154 HD
BRANCH  17  19
ATOM     19  C   UNL     1       2.426   3.048  -0.257  0.00  0.00    +0.047 A 
ATOM     20  C   UNL     1       2.255   4.119  -1.124  0.00  0.00    +0.025 A 
ATOM     21  C   UNL     1       1.004   4.678  -1.294  0.00  0.00    +0.017 A 
ATOM     22  C   UNL     1      -0.088   4.177  -0.603  0.00  0.00    +0.019 A 
ATOM     23  C   UNL     1       0.062   3.111   0.258  0.00  0.00    +0.032 A 
ATOM     24  C   UNL     1       1.323   2.538   0.444  0.00  0.00    +0.085 A 
ATOM     25 BR   UNL     1      -1.794   4.955  -0.847  0.00  0.00    -0.050 Br
BRANCH  24  26
ATOM     26  C   UNL     1       1.492   1.401   1.367  0.00  0.00    +0.388 C 
ATOM     27  O   UNL     1       2.572   0.853   1.464  0.00  0.00    -0.241 OA
ATOM     28  O   UNL     1       0.449   0.971   2.103  0.00  0.00    -0.241 OA
ENDBRANCH  24  26
ENDBRANCH  17  19
ENDBRANCH  15  17
ENDBRANCH   3  15
TORSDOF 6
