REMARK  Name = ZINC67020505
REMARK  4 active torsions:
REMARK  status: ('A' for Active; 'I' for Inactive)
REMARK    1  A    between atoms: C_3  and  C_12
REMARK    2  A    between atoms: N_14  and  C_15
REMARK    3  A    between atoms: C_16  and  C_23
REMARK    4  A    between atoms: N_25  and  C_26
REMARK                            x       y       z     vdW  Elec       q    Type
REMARK                         _______ _______ _______ _____ _____    ______ ____
ROOT
ATOM      1  C   UNL     1       3.652   2.184  -0.020  0.00  0.00    +0.252 C 
ATOM      2  O   UNL     1       4.716   1.595  -0.033  0.00  0.00    -0.270 OA
ATOM      3  N   UNL     1       3.628   3.531  -0.012  0.00  0.00    -0.275 N 
ATOM      4  H   UNL     1       2.779   4.001  -0.002  0.00  0.00    +0.156 HD
ENDROOT
BRANCH   1   7
ATOM      5  C   UNL     1      -0.017   1.381   0.010  0.00  0.00    +0.003 A 
ATOM      6  C   UNL     1       1.162   2.095   0.002  0.00  0.00    +0.017 A 
ATOM      7  C   UNL     1       2.389   1.423  -0.013  0.00  0.00    +0.080 A 
ATOM      8  C   UNL     1       2.409   0.025  -0.020  0.00  0.00    +0.154 A 
ATOM      9  C   UNL     1       1.208  -0.683  -0.013  0.00  0.00    +0.076 A 
ATOM     10  C   UNL     1       0.002  -0.004   0.002  0.00  0.00    +0.027 A 
ATOM     11  N   UNL     1       1.240  -2.086  -0.024  0.00  0.00    -0.280 N 
ATOM     12  C   UNL     1       2.397  -2.716   0.276  0.00  0.00    +0.255 C 
ATOM     13  O   UNL     1       2.457  -3.927   0.243  0.00  0.00    -0.272 OA
ATOM     14  C   UNL     1       3.613  -1.907   0.650  0.00  0.00    +0.325 C 
ATOM     15  O   UNL     1       3.585  -0.652  -0.034  0.00  0.00    -0.480 OA
ATOM     16  H   UNL     1       0.444  -2.595  -0.242  0.00  0.00    +0.155 HD
ENDBRANCH   1   7
BRANCH   3  17
ATOM     17  C   UNL     1       4.814   4.246  -0.019  0.00  0.00    +0.085 A 
ATOM     18  C   UNL     1       4.981   5.619  -0.007  0.00  0.00    +0.069 A 
ATOM     19  C   UNL     1       6.351   6.128  -0.018  0.00  0.00    -0.023 A 
ATOM     20  C   UNL     1       7.293   5.167  -0.040  0.00  0.00    -0.004 A 
ATOM     21  S   UNL     1       6.380   3.645  -0.036  0.00  0.00    -0.077 S 
ATOM     22  C   UNL     1       8.682   5.745  -0.055  0.00  0.00    +0.043 C 
ATOM     23  C   UNL     1       8.488   7.219  -0.472  0.00  0.00    +0.010 C 
ATOM     24  C   UNL     1       7.042   7.490  -0.009  0.00  0.00    +0.037 C 
BRANCH  18  25
ATOM     25  C   UNL     1       3.830   6.527   0.015  0.00  0.00    +0.247 C 
ATOM     26  O   UNL     1       3.364   6.893   1.078  0.00  0.00    -0.270 OA
ATOM     27  N   UNL     1       3.287   6.955  -1.142  0.00  0.00    -0.308 N 
ATOM     28  H   UNL     1       3.658   6.663  -1.989  0.00  0.00    +0.149 HD
BRANCH  27  29
ATOM     29  C   UNL     1       2.137   7.862  -1.119  0.00  0.00    +0.073 C 
ATOM     30  C   UNL     1       0.991   7.574  -2.091  0.00  0.00    +0.024 C 
ATOM     31  C   UNL     1       1.923   8.762  -2.338  0.00  0.00    +0.024 C 
ENDBRANCH  27  29
ENDBRANCH  18  25
ENDBRANCH   3  17
TORSDOF 4
