REMARK  Name = ZINC16502597
REMARK  11 active torsions:
REMARK  status: ('A' for Active; 'I' for Inactive)
REMARK    1  A    between atoms: C_1  and  C_2
REMARK    2  A    between atoms: C_5  and  N_9
REMARK    3  A    between atoms: C_10  and  C_33
REMARK    4  A    between atoms: C_11  and  C_26
REMARK    5  A    between atoms: C_12  and  C_17
REMARK    6  A    between atoms: C_22  and  N_23
REMARK    7  A    between atoms: C_26  and  O_28
REMARK    8  A    between atoms: O_28  and  C_29
REMARK    9  A    between atoms: C_29  and  C_30
REMARK   10  A    between atoms: C_30  and  O_31
REMARK   11  A    between atoms: O_31  and  C_32
REMARK                            x       y       z     vdW  Elec       q    Type
REMARK                         _______ _______ _______ _____ _____    ______ ____
ROOT
ATOM      1  N   UNL     1       4.526   3.771  -1.798  0.00  0.00    -0.255 N 
ATOM      2  C   UNL     1       3.776   4.899  -1.979  0.00  0.00    +0.027 C 
ATOM      3  C   UNL     1       2.726   5.173  -1.174  0.00  0.00    +0.078 C 
ATOM      4  C   UNL     1       2.410   4.189  -0.067  0.00  0.00    +0.143 C 
ATOM      5  N   UNL     1       3.280   3.006   0.043  0.00  0.00    -0.315 N 
ATOM      6  C   UNL     1       4.291   2.869  -0.837  0.00  0.00    +0.142 C 
ATOM      7  S   UNL     1       5.310   1.498  -0.721  0.00  0.00    -0.018 S 
ATOM      8  C   UNL     1       4.125   5.851  -3.093  0.00  0.00    +0.062 C 
ATOM      9  H   UNL     1       3.128   2.340   0.732  0.00  0.00    +0.149 HD
ENDROOT
BRANCH   1  14
ATOM     10  C   UNL     1       8.884   2.862  -5.319  0.00  0.00    +0.047 C 
ATOM     11  C   UNL     1       7.727   3.103  -4.384  0.00  0.00    -0.015 A 
ATOM     12  C   UNL     1       7.950   3.660  -3.139  0.00  0.00    +0.008 A 
ATOM     13  C   UNL     1       6.891   3.887  -2.282  0.00  0.00    +0.024 A 
ATOM     14  C   UNL     1       5.601   3.546  -2.668  0.00  0.00    +0.043 A 
ATOM     15  C   UNL     1       5.378   2.987  -3.918  0.00  0.00    +0.062 A 
ATOM     16  C   UNL     1       6.441   2.767  -4.775  0.00  0.00    +0.128 A 
ATOM     17  F   UNL     1       6.226   2.223  -5.993  0.00  0.00    -0.205 F 
ENDBRANCH   1  14
BRANCH   4  18
ATOM     18  C   UNL     1       0.995   3.709  -0.261  0.00  0.00    +0.008 A 
ATOM     19  C   UNL     1       0.395   3.810  -1.503  0.00  0.00    +0.008 A 
ATOM     20  C   UNL     1      -0.903   3.370  -1.681  0.00  0.00    +0.000 A 
ATOM     21  C   UNL     1      -1.603   2.833  -0.617  0.00  0.00    +0.002 A 
ATOM     22  C   UNL     1      -1.002   2.726   0.623  0.00  0.00    +0.033 A 
ATOM     23  C   UNL     1       0.296   3.167   0.801  0.00  0.00    +0.131 A 
BRANCH  23  24
ATOM     24  N   UNL     1       0.939   3.057   2.130  0.00  0.00    +0.057 N 
ATOM     25  O   UNL     1       0.343   2.531   3.053  0.00  0.00    -0.126 OA
ATOM     26  O   UNL     1       2.063   3.493   2.301  0.00  0.00    -0.126 OA
ENDBRANCH  23  24
ENDBRANCH   4  18
BRANCH   3  27
ATOM     27  C   UNL     1       1.948   6.340  -1.360  0.00  0.00    +0.339 C 
ATOM     28  O   UNL     1       2.157   7.065  -2.314  0.00  0.00    -0.245 OA
BRANCH  27  29
ATOM     29  O   UNL     1       0.975   6.649  -0.478  0.00  0.00    -0.459 OA
BRANCH  29  30
ATOM     30  C   UNL     1       0.154   7.778  -0.786  0.00  0.00    +0.260 C 
BRANCH  30  31
ATOM     31  C   UNL     1      -0.813   8.037   0.371  0.00  0.00    +0.200 C 
BRANCH  31  32
ATOM     32  O   UNL     1      -0.079   8.468   1.518  0.00  0.00    -0.380 OA
ATOM     33  C   UNL     1      -0.893   8.738   2.661  0.00  0.00    +0.194 C 
ENDBRANCH  31  32
ENDBRANCH  30  31
ENDBRANCH  29  30
ENDBRANCH  27  29
ENDBRANCH   3  27
TORSDOF 8
