REMARK  Name = ZINC21290301
REMARK  9 active torsions:
REMARK  status: ('A' for Active; 'I' for Inactive)
REMARK    1  A    between atoms: C_1  and  S_2
REMARK    2  A    between atoms: S_2  and  C_4
REMARK    3  A    between atoms: C_4  and  C_5
REMARK    4  A    between atoms: C_9  and  C_11
REMARK    5  A    between atoms: N_13  and  N_14
REMARK    6  A    between atoms: C_15  and  C_17
REMARK    7  A    between atoms: C_20  and  C_23
REMARK    8  A    between atoms: C_23  and  S_24
REMARK    9  A    between atoms: S_24  and  C_25
REMARK                            x       y       z     vdW  Elec       q    Type
REMARK                         _______ _______ _______ _____ _____    ______ ____
ROOT
ATOM      1  N   UNL     1      11.540   5.784   1.094  0.00  0.00    -0.230 N 
ATOM      2  C   UNL     1      10.870   5.649  -0.068  0.00  0.00    +0.260 C 
ATOM      3  O   UNL     1      11.455   5.782  -1.126  0.00  0.00    -0.269 OA
ATOM      4  H   UNL     1      11.011   5.664   2.050  0.00  0.00    +0.173 HD
ENDROOT
BRANCH   2   5
ATOM      5  C   UNL     1       9.424   5.341  -0.057  0.00  0.00    +0.038 A 
ATOM      6  C   UNL     1       8.728   5.201  -1.258  0.00  0.00    +0.013 A 
ATOM      7  C   UNL     1       7.378   4.913  -1.240  0.00  0.00    +0.005 A 
ATOM      8  C   UNL     1       6.716   4.763  -0.035  0.00  0.00    -0.037 A 
ATOM      9  C   UNL     1       7.399   4.906   1.160  0.00  0.00    +0.005 A 
ATOM     10  C   UNL     1       8.750   5.188   1.156  0.00  0.00    +0.013 A 
BRANCH   8  11
ATOM     11  C   UNL     1       5.242   4.449  -0.023  0.00  0.00    +0.112 C 
BRANCH  11  12
ATOM     12  S   UNL     1       5.008   2.654  -0.030  0.00  0.00    -0.083 S 
BRANCH  12  13
ATOM     13  C   UNL     1       3.248   2.575  -0.015  0.00  0.00    +0.168 A 
ATOM     14  N   UNL     1       2.514   1.422  -0.014  0.00  0.00    -0.333 N 
ATOM     15  H   UNL     1       3.022   0.446  -0.024  0.00  0.00    +0.168 HD
ATOM     16  C   UNL     1       1.178   1.787   0.000  0.00  0.00    +0.067 A 
ATOM     17  C   UNL     1      -0.013   1.076   0.008  0.00  0.00    +0.028 A 
ATOM     18  C   UNL     1      -1.216   1.751   0.017  0.00  0.00    +0.002 A 
ATOM     19  C   UNL     1      -1.243   3.138   0.030  0.00  0.00    +0.002 A 
ATOM     20  C   UNL     1      -0.071   3.860   0.023  0.00  0.00    +0.030 A 
ATOM     21  C   UNL     1       1.156   3.191   0.008  0.00  0.00    +0.090 A 
ATOM     22  N   UNL     1       2.448   3.612  -0.001  0.00  0.00    -0.222 NA
ENDBRANCH  12  13
ENDBRANCH  11  12
ENDBRANCH   8  11
ENDBRANCH   2   5
BRANCH   1  25
ATOM     23  C   UNL     1      13.580   6.210   2.244  0.00  0.00    +0.260 C 
ATOM     24  O   UNL     1      12.995   6.078   3.302  0.00  0.00    -0.269 OA
ATOM     25  N   UNL     1      12.910   6.076   1.083  0.00  0.00    -0.230 N 
ATOM     26  H   UNL     1      13.439   6.195   0.126  0.00  0.00    +0.173 HD
BRANCH  23  31
ATOM     27  C   UNL     1      17.072   6.946   3.416  0.00  0.00    -0.034 A 
ATOM     28  C   UNL     1      17.734   7.095   2.211  0.00  0.00    +0.004 A 
ATOM     29  C   UNL     1      17.050   6.958   1.016  0.00  0.00    +0.001 A 
ATOM     30  C   UNL     1      15.701   6.665   1.020  0.00  0.00    +0.013 A 
ATOM     31  C   UNL     1      15.026   6.518   2.233  0.00  0.00    +0.038 A 
ATOM     32  C   UNL     1      15.723   6.658   3.434  0.00  0.00    +0.017 A 
BRANCH  27  33
ATOM     33  C   UNL     1      17.825   7.097   4.712  0.00  0.00    +0.138 C 
BRANCH  33  35
ATOM     34  C   UNL     1      19.351   5.835   6.775  0.00  0.00    +0.122 C 
ATOM     35  S   UNL     1      18.484   5.485   5.220  0.00  0.00    +0.023 S 
ATOM     36  O   UNL     1      19.416   5.027   4.251  0.00  0.00    -0.257 OA
ENDBRANCH  33  35
ENDBRANCH  27  33
ENDBRANCH  23  31
ENDBRANCH   1  25
TORSDOF 8
