REMARK  Name = ZINC39532157
REMARK  12 active torsions:
REMARK  status: ('A' for Active; 'I' for Inactive)
REMARK    1  A    between atoms: C_1  and  C_2
REMARK    2  A    between atoms: C_2  and  N_3
REMARK    3  A    between atoms: N_3  and  S_4
REMARK    4  A    between atoms: S_4  and  C_7
REMARK    5  A    between atoms: C_9  and  C_32
REMARK    6  A    between atoms: N_13  and  C_18
REMARK    7  A    between atoms: C_18  and  C_20
REMARK    8  A    between atoms: C_18  and  C_21
REMARK    9  A    between atoms: C_21  and  C_22
REMARK   10  A    between atoms: C_22  and  C_23
REMARK   11  A    between atoms: C_32  and  O_34
REMARK   12  A    between atoms: O_34  and  C_35
REMARK                            x       y       z     vdW  Elec       q    Type
REMARK                         _______ _______ _______ _____ _____    ______ ____
ROOT
ATOM      1  C   UNL     1      -0.264  -2.370  -0.157  0.00  0.00    +0.242 C 
ATOM      2  C   UNL     1       0.209  -3.813  -0.170  0.00  0.00    +0.072 C 
ATOM      3  C   UNL     1      -0.134  -4.595   0.819  0.00  0.00    -0.048 C 
ATOM      4  C   UNL     1       0.140  -6.098   0.912  0.00  0.00    +0.014 C 
ATOM      5  C   UNL     1      -0.230  -6.500   2.344  0.00  0.00    -0.074 C 
ATOM      6  N   UNL     1      -1.630  -6.237   2.653  0.00  0.00    +0.383 N 
ATOM      7  C   UNL     1      -2.132  -4.953   2.165  0.00  0.00    -0.060 C 
ATOM      8  C   UNL     1      -0.972  -3.980   1.953  0.00  0.00    +0.058 C 
ATOM      9  S   UNL     1      -1.571  -2.440   1.145  0.00  0.00    -0.123 S 
ATOM     10  H   UNL     1      -1.746  -6.265   3.655  0.00  0.00    -0.081 HD
ENDROOT
BRANCH   1  11
ATOM     11  S   UNL     1       1.077  -1.246   0.323  0.00  0.00    +0.046 S 
ATOM     12  O   UNL     1       1.977  -1.067  -0.762  0.00  0.00    -0.157 OA
ATOM     13  O   UNL     1       1.559  -1.584   1.616  0.00  0.00    -0.157 OA
BRANCH  11  14
ATOM     14  N   UNL     1       0.348   0.228   0.515  0.00  0.00    -0.193 NA
ATOM     15  H   UNL     1       0.577   0.963  -0.076  0.00  0.00    +0.148 HD
BRANCH  14  17
ATOM     16  C   UNL     1      -0.879   1.921   1.785  0.00  0.00    +0.022 C 
ATOM     17  C   UNL     1      -0.642   0.423   1.577  0.00  0.00    +0.102 C 
ENDBRANCH  14  17
ENDBRANCH  11  14
ENDBRANCH   1  11
BRANCH   6  18
ATOM     18  C   UNL     1      -2.444  -7.309   2.065  0.00  0.00    -0.071 C 
ATOM     19  C   UNL     1      -1.901  -8.667   2.514  0.00  0.00    -0.013 C 
BRANCH  18  20
ATOM     20  C   UNL     1      -3.894  -7.161   2.530  0.00  0.00    -0.011 C 
BRANCH  20  21
ATOM     21  C   UNL     1      -4.551  -5.994   1.790  0.00  0.00    +0.036 C 
BRANCH  21  22
ATOM     22  C   UNL     1      -6.018  -5.945   2.130  0.00  0.00    -0.022 A 
ATOM     23  C   UNL     1      -6.622  -5.292   3.294  0.00  0.00    +0.003 A 
ATOM     24  C   UNL     1      -6.112  -4.569   4.374  0.00  0.00    +0.010 A 
ATOM     25  C   UNL     1      -6.963  -4.076   5.322  0.00  0.00    +0.001 A 
ATOM     26  C   UNL     1      -8.331  -4.289   5.221  0.00  0.00    +0.002 A 
ATOM     27  C   UNL     1      -8.855  -5.000   4.164  0.00  0.00    +0.026 A 
ATOM     28  C   UNL     1      -8.008  -5.510   3.187  0.00  0.00    +0.047 A 
ATOM     29  N   UNL     1      -8.216  -6.242   2.039  0.00  0.00    -0.360 N 
ATOM     30  C   UNL     1      -7.020  -6.486   1.420  0.00  0.00    +0.087 A 
ATOM     31  H   UNL     1      -9.082  -6.537   1.715  0.00  0.00    +0.165 HD
ENDBRANCH  21  22
ENDBRANCH  20  21
ENDBRANCH  18  20
ENDBRANCH   6  18
BRANCH   2  32
ATOM     32  C   UNL     1       1.036  -4.320  -1.273  0.00  0.00    +0.338 C 
ATOM     33  O   UNL     1       1.408  -5.477  -1.272  0.00  0.00    -0.245 OA
BRANCH  32  34
ATOM     34  O   UNL     1       1.382  -3.501  -2.287  0.00  0.00    -0.465 OA
ATOM     35  C   UNL     1       2.188  -4.061  -3.326  0.00  0.00    +0.280 C 
ENDBRANCH  32  34
ENDBRANCH   2  32
TORSDOF 9
