REMARK  Name = ZINC06140313
REMARK  7 active torsions:
REMARK  status: ('A' for Active; 'I' for Inactive)
REMARK    1  A    between atoms: N_8  and  N_9
REMARK    2  A    between atoms: C_10  and  C_12
REMARK    3  A    between atoms: C_12  and  N_13
REMARK    4  A    between atoms: C_14  and  C_16
REMARK    5  A    between atoms: N_25  and  C_26
REMARK    6  A    between atoms: C_26  and  C_27
REMARK    7  A    between atoms: C_27  and  C_28
REMARK                            x       y       z     vdW  Elec       q    Type
REMARK                         _______ _______ _______ _____ _____    ______ ____
ROOT
ATOM      1  N   UNL     1       1.292  -4.444  -0.035  0.00  0.00    -0.205 N 
ATOM      2  C   UNL     1       0.458  -5.503  -0.032  0.00  0.00    +0.249 C 
ATOM      3  O   UNL     1      -0.742  -5.329  -0.020  0.00  0.00    -0.272 OA
ATOM      4  H   UNL     1       2.252  -4.582  -0.044  0.00  0.00    +0.177 HD
ENDROOT
BRANCH   1  12
ATOM      5  C   UNL     1      -0.017   1.376   0.010  0.00  0.00    +0.001 A 
ATOM      6  C   UNL     1       1.172   2.086   0.002  0.00  0.00    +0.002 A 
ATOM      7  C   UNL     1       2.385   1.427  -0.013  0.00  0.00    +0.024 A 
ATOM      8  C   UNL     1       2.424   0.037  -0.021  0.00  0.00    +0.046 A 
ATOM      9  C   UNL     1       1.219  -0.677  -0.014  0.00  0.00    +0.028 A 
ATOM     10  C   UNL     1       0.002  -0.004   0.002  0.00  0.00    +0.012 A 
ATOM     11  C   UNL     1       1.583  -2.113  -0.025  0.00  0.00    +0.153 C 
ATOM     12  N   UNL     1       0.772  -3.143  -0.023  0.00  0.00    -0.174 NA
ATOM     13  C   UNL     1       3.060  -2.131  -0.039  0.00  0.00    +0.271 C 
ATOM     14  O   UNL     1       3.764  -3.123  -0.051  0.00  0.00    -0.268 OA
ATOM     15  N   UNL     1       3.488  -0.857  -0.036  0.00  0.00    -0.265 N 
BRANCH  15  16
ATOM     16  C   UNL     1       4.899  -0.461  -0.048  0.00  0.00    +0.129 C 
BRANCH  16  17
ATOM     17  C   UNL     1       5.403  -0.330   1.391  0.00  0.00    +0.138 C 
BRANCH  17  18
ATOM     18  C   UNL     1       6.820   0.068   1.379  0.00  0.00    +0.064 C 
ATOM     19  N   UNL     1       7.914   0.376   1.371  0.00  0.00    -0.197 NA
ENDBRANCH  17  18
ENDBRANCH  16  17
ENDBRANCH  15  16
ENDBRANCH   1  12
BRANCH   2  20
ATOM     20  C   UNL     1       1.017  -6.902  -0.045  0.00  0.00    +0.202 C 
BRANCH  20  21
ATOM     21  N   UNL     1      -0.084  -7.868  -0.040  0.00  0.00    -0.303 N 
ATOM     22  C   UNL     1       0.178  -9.190  -0.049  0.00  0.00    +0.246 C 
ATOM     23  O   UNL     1       1.329  -9.581  -0.062  0.00  0.00    -0.270 OA
ATOM     24  H   UNL     1      -1.003  -7.556  -0.029  0.00  0.00    +0.150 HD
BRANCH  22  25
ATOM     25  C   UNL     1      -0.932 -10.164  -0.044  0.00  0.00    +0.055 A 
ATOM     26  C   UNL     1      -2.256  -9.719  -0.035  0.00  0.00    +0.014 A 
ATOM     27  C   UNL     1      -3.288 -10.633  -0.030  0.00  0.00    +0.001 A 
ATOM     28  C   UNL     1      -3.015 -11.990  -0.034  0.00  0.00    +0.001 A 
ATOM     29  C   UNL     1      -1.708 -12.440  -0.043  0.00  0.00    +0.021 A 
ATOM     30  C   UNL     1      -0.664 -11.535  -0.054  0.00  0.00    +0.053 A 
ATOM     31 CL   UNL     1       0.978 -12.100  -0.073  0.00  0.00    -0.083 Cl
ENDBRANCH  22  25
ENDBRANCH  20  21
ENDBRANCH   2  20
TORSDOF 7
