REMARK  Name = ZINC15946076
REMARK  14 active torsions:
REMARK  status: ('A' for Active; 'I' for Inactive)
REMARK    1  A    between atoms: C_1  and  C_2
REMARK    2  A    between atoms: C_2  and  N_69
REMARK    3  A    between atoms: C_3  and  C_4
REMARK    4  A    between atoms: C_3  and  N_69
REMARK    5  A    between atoms: C_5  and  C_6
REMARK    6  A    between atoms: C_5  and  N_69
REMARK    7  A    between atoms: N_8  and  C_9
REMARK    8  A    between atoms: C_10  and  C_23
REMARK    9  A    between atoms: C_15  and  C_19
REMARK   10  A    between atoms: C_19  and  C_20
REMARK   11  A    between atoms: C_19  and  C_21
REMARK   12  A    between atoms: C_19  and  C_22
REMARK   13  A    between atoms: N_25  and  C_26
REMARK   14  A    between atoms: C_29  and  C_32
REMARK                            x       y       z     vdW  Elec       q    Type
REMARK                         _______ _______ _______ _____ _____    ______ ____
ROOT
ATOM      1  C   UNL     1      -1.096  -2.239   0.095  0.00  0.00    +0.084 A 
ATOM      2  C   UNL     1      -1.180  -0.884  -0.192  0.00  0.00    +0.069 A 
ATOM      3  C   UNL     1       0.006  -0.075   0.031  0.00  0.00    -0.023 A 
ATOM      4  C   UNL     1       1.080  -0.747   0.502  0.00  0.00    -0.004 A 
ATOM      5  S   UNL     1       0.535  -2.424   0.650  0.00  0.00    -0.077 S 
ATOM      6  C   UNL     1       2.428  -0.181   0.825  0.00  0.00    +0.046 C 
ATOM      7  C   UNL     1       2.307   1.348   0.897  0.00  0.00    -0.000 C 
ATOM      8  C   UNL     1       1.541   1.841  -0.333  0.00  0.00    +0.009 C 
ATOM      9  C   UNL     1       0.073   1.423  -0.235  0.00  0.00    +0.037 C 
ENDROOT
BRANCH   1  12
ATOM     10  C   UNL     1      -1.810  -4.488   0.299  0.00  0.00    +0.201 C 
ATOM     11  O   UNL     1      -0.709  -4.790   0.708  0.00  0.00    -0.278 OA
ATOM     12  N   UNL     1      -2.079  -3.209  -0.032  0.00  0.00    -0.281 N 
ATOM     13  H   UNL     1      -2.959  -2.968  -0.359  0.00  0.00    +0.155 HD
BRANCH  10  14
ATOM     14  C   UNL     1      -2.878  -5.542   0.161  0.00  0.00    +0.019 C 
BRANCH  14  15
ATOM     15  N   UNL     1      -2.282  -6.862   0.459  0.00  0.00    +0.385 N 
ATOM     16  H   UNL     1      -1.358  -6.918   0.015  0.00  0.00    -0.081 HD
BRANCH  15  18
ATOM     17  C   UNL     1      -1.306  -8.292   2.187  0.00  0.00    -0.017 C 
ATOM     18  C   UNL     1      -2.123  -7.026   1.919  0.00  0.00    -0.082 C 
ENDBRANCH  15  18
BRANCH  15  19
ATOM     19  C   UNL     1      -3.140  -7.937  -0.080  0.00  0.00    -0.082 C 
ATOM     20  C   UNL     1      -2.929  -8.021  -1.593  0.00  0.00    -0.017 C 
ENDBRANCH  15  19
ENDBRANCH  14  15
ENDBRANCH  10  14
ENDBRANCH   1  12
BRANCH   7  21
ATOM     21  C   UNL     1       3.703   1.973   0.918  0.00  0.00    -0.035 C 
ATOM     22  C   UNL     1       4.455   1.582  -0.356  0.00  0.00    +0.011 C 
ATOM     23  C   UNL     1       3.579   3.496   0.990  0.00  0.00    +0.011 C 
ATOM     24  C   UNL     1       4.471   1.466   2.140  0.00  0.00    +0.011 C 
ENDBRANCH   7  21
BRANCH   2  25
ATOM     25  C   UNL     1      -2.420  -0.290  -0.701  0.00  0.00    +0.251 C 
ATOM     26  O   UNL     1      -2.620  -0.233  -1.901  0.00  0.00    -0.270 OA
ATOM     27  N   UNL     1      -3.339   0.193   0.159  0.00  0.00    -0.281 N 
ATOM     28  H   UNL     1      -3.146   0.220   1.109  0.00  0.00    +0.155 HD
BRANCH  27  29
ATOM     29  C   UNL     1      -4.570   0.653  -0.319  0.00  0.00    +0.034 A 
ATOM     30  C   UNL     1      -5.198   1.727   0.299  0.00  0.00    +0.023 A 
ATOM     31  C   UNL     1      -6.411   2.183  -0.178  0.00  0.00    +0.005 A 
ATOM     32  C   UNL     1      -7.006   1.565  -1.263  0.00  0.00    -0.050 A 
ATOM     33  C   UNL     1      -6.385   0.492  -1.877  0.00  0.00    +0.005 A 
ATOM     34  C   UNL     1      -5.169   0.035  -1.408  0.00  0.00    +0.023 A 
ATOM     35  C   UNL     1      -8.333   2.061  -1.777  0.00  0.00    +0.044 C 
ENDBRANCH  27  29
ENDBRANCH   2  25
TORSDOF 8
