REMARK  Name = ZINC06506589
REMARK  6 active torsions:
REMARK  status: ('A' for Active; 'I' for Inactive)
REMARK    1  A    between atoms: C_1  and  C_2
REMARK    2  A    between atoms: C_10  and  S_12
REMARK    3  A    between atoms: S_12  and  C_13
REMARK    4  A    between atoms: C_13  and  C_14
REMARK    5  A    between atoms: N_16  and  C_17
REMARK    6  A    between atoms: C_21  and  N_23
REMARK                            x       y       z     vdW  Elec       q    Type
REMARK                         _______ _______ _______ _____ _____    ______ ____
ROOT
ATOM      1  C   UNL     1       0.130  -8.426   1.625  0.00  0.00    +0.227 C 
ATOM      2  O   UNL     1       0.148  -8.583   2.827  0.00  0.00    -0.275 OA
ATOM      3  N   UNL     1       0.139  -9.496   0.805  0.00  0.00    -0.285 N 
ATOM      4  H   UNL     1       0.057  -9.374  -0.153  0.00  0.00    +0.155 HD
ENDROOT
BRANCH   3   5
ATOM      5  C   UNL     1       0.266 -10.785   1.338  0.00  0.00    +0.036 A 
ATOM      6  C   UNL     1       0.977 -11.757   0.646  0.00  0.00    +0.026 A 
ATOM      7  C   UNL     1       1.101 -13.027   1.173  0.00  0.00    +0.042 A 
ATOM      8  C   UNL     1       0.516 -13.332   2.391  0.00  0.00    +0.154 A 
ATOM      9  C   UNL     1      -0.193 -12.365   3.083  0.00  0.00    +0.163 A 
ATOM     10  C   UNL     1      -0.314 -11.091   2.562  0.00  0.00    +0.059 A 
ATOM     11  F   UNL     1       0.638 -14.576   2.905  0.00  0.00    -0.203 F 
BRANCH   9  12
ATOM     12  N   UNL     1      -0.817 -12.694   4.384  0.00  0.00    +0.059 N 
ATOM     13  O   UNL     1      -1.437 -11.850   4.988  0.00  0.00    -0.126 OA
ATOM     14  O   UNL     1      -0.707 -13.808   4.842  0.00  0.00    -0.126 OA
ENDBRANCH   9  12
ENDBRANCH   3   5
BRANCH   1  15
ATOM     15  C   UNL     1       0.099  -7.035   1.046  0.00  0.00    +0.173 C 
BRANCH  15  16
ATOM     16  S   UNL     1       0.094  -5.820   2.394  0.00  0.00    -0.079 S 
BRANCH  16  26
ATOM     17  C   UNL     1      -0.061   1.502   0.009  0.00  0.00    +0.044 C 
ATOM     18  C   UNL     1      -0.036  -0.005   0.001  0.00  0.00    -0.048 A 
ATOM     19  C   UNL     1      -0.038  -0.687  -1.206  0.00  0.00    +0.005 A 
ATOM     20  C   UNL     1      -0.015  -2.064  -1.231  0.00  0.00    +0.030 A 
ATOM     21  C   UNL     1       0.012  -2.779  -0.031  0.00  0.00    +0.090 A 
ATOM     22  C   UNL     1       0.014  -2.083   1.189  0.00  0.00    +0.067 A 
ATOM     23  C   UNL     1      -0.005  -0.696   1.195  0.00  0.00    +0.031 A 
ATOM     24  N   UNL     1       0.042  -3.047   2.184  0.00  0.00    -0.333 N 
ATOM     25  H   UNL     1       0.051  -2.886   3.140  0.00  0.00    +0.168 HD
ATOM     26  C   UNL     1       0.056  -4.265   1.566  0.00  0.00    +0.168 A 
ATOM     27  N   UNL     1       0.038  -4.105   0.265  0.00  0.00    -0.222 NA
ENDBRANCH  16  26
ENDBRANCH  15  16
ENDBRANCH   1  15
TORSDOF 5
