REMARK  Name = ZINC14385026
REMARK  9 active torsions:
REMARK  status: ('A' for Active; 'I' for Inactive)
REMARK    1  A    between atoms: C_1  and  C_2
REMARK    2  A    between atoms: C_2  and  C_3
REMARK    3  A    between atoms: C_2  and  C_4
REMARK    4  A    between atoms: C_4  and  C_6
REMARK    5  A    between atoms: C_4  and  N_20
REMARK    6  A    between atoms: N_8  and  C_9
REMARK    7  A    between atoms: C_9  and  C_10
REMARK    8  A    between atoms: N_12  and  C_13
REMARK    9  A    between atoms: C_21  and  C_23
REMARK                            x       y       z     vdW  Elec       q    Type
REMARK                         _______ _______ _______ _____ _____    ______ ____
ROOT
ATOM      1  C   UNL     1      -2.361   0.789   0.588  0.00  0.00    +0.234 C 
ATOM      2  O   UNL     1      -2.080  -0.329   0.965  0.00  0.00    -0.274 OA
ATOM      3  N   UNL     1      -3.624   1.244   0.710  0.00  0.00    -0.305 N 
ATOM      4  H   UNL     1      -3.849   2.138   0.408  0.00  0.00    +0.149 HD
ENDROOT
BRANCH   1   5
ATOM      5  C   UNL     1      -1.298   1.669  -0.018  0.00  0.00    +0.161 C 
BRANCH   5   6
ATOM      6  N   UNL     1      -0.022   0.951  -0.038  0.00  0.00    -0.304 N 
ATOM      7  C   UNL     1       1.138   1.637  -0.051  0.00  0.00    +0.217 C 
ATOM      8  O   UNL     1       1.125   2.850  -0.041  0.00  0.00    -0.275 OA
ATOM      9  H   UNL     1      -0.012  -0.019  -0.046  0.00  0.00    +0.149 HD
BRANCH   7  10
ATOM     10  C   UNL     1       2.451   0.898  -0.078  0.00  0.00    +0.075 C 
ATOM     11  C   UNL     1       2.561   0.009   1.162  0.00  0.00    +0.013 C 
ATOM     12  C   UNL     1       3.894  -0.742   1.134  0.00  0.00    +0.001 C 
ATOM     13  C   UNL     1       5.046   0.265   1.124  0.00  0.00    +0.000 C 
ATOM     14  C   UNL     1       4.936   1.154  -0.116  0.00  0.00    +0.001 C 
ATOM     15  C   UNL     1       3.603   1.904  -0.089  0.00  0.00    +0.013 C 
ENDBRANCH   7  10
ENDBRANCH   5   6
BRANCH   5  17
ATOM     16  C   UNL     1      -0.618   2.935  -2.062  0.00  0.00    +0.009 C 
ATOM     17  C   UNL     1      -1.697   2.041  -1.447  0.00  0.00    +0.012 C 
ATOM     18  C   UNL     1      -1.842   0.768  -2.284  0.00  0.00    +0.009 C 
ENDBRANCH   5  17
ENDBRANCH   1   5
BRANCH   3  19
ATOM     19  C   UNL     1      -4.657   0.388   1.298  0.00  0.00    +0.200 C 
BRANCH  19  20
ATOM     20  C   UNL     1      -5.970   1.127   1.319  0.00  0.00    +0.234 C 
ATOM     21  O   UNL     1      -6.036   2.258   0.885  0.00  0.00    -0.274 OA
ATOM     22  N   UNL     1      -7.071   0.532   1.820  0.00  0.00    -0.283 N 
ATOM     23  H   UNL     1      -7.033  -0.394   2.107  0.00  0.00    +0.155 HD
BRANCH  22  24
ATOM     24  C   UNL     1      -8.267   1.250   1.926  0.00  0.00    +0.047 A 
ATOM     25  C   UNL     1      -8.596   2.201   0.969  0.00  0.00    +0.024 A 
ATOM     26  C   UNL     1      -9.779   2.905   1.075  0.00  0.00    +0.002 A 
ATOM     27  C   UNL     1     -10.633   2.671   2.137  0.00  0.00    +0.001 A 
ATOM     28  C   UNL     1     -10.308   1.728   3.095  0.00  0.00    +0.017 A 
ATOM     29  C   UNL     1      -9.127   1.017   2.993  0.00  0.00    +0.039 A 
ATOM     30 BR   UNL     1      -8.682  -0.272   4.303  0.00  0.00    -0.048 Br
ENDBRANCH  22  24
ENDBRANCH  19  20
ENDBRANCH   3  19
TORSDOF 7
