REMARK  Name = ZINC06155433
REMARK  6 active torsions:
REMARK  status: ('A' for Active; 'I' for Inactive)
REMARK    1  A    between atoms: C_11  and  C_14
REMARK    2  A    between atoms: C_14  and  C_15
REMARK    3  A    between atoms: C_15  and  O_17
REMARK    4  A    between atoms: O_17  and  C_18
REMARK    5  A    between atoms: C_18  and  C_19
REMARK    6  A    between atoms: N_24  and  C_25
REMARK                            x       y       z     vdW  Elec       q    Type
REMARK                         _______ _______ _______ _____ _____    ______ ____
ROOT
ATOM      1  C   UNL     1       3.341  -4.979  -0.057  0.00  0.00    +0.312 C 
ATOM      2  O   UNL     1       4.451  -4.502  -0.065  0.00  0.00    -0.250 OA
ENDROOT
BRANCH   1   3
ATOM      3  C   UNL     1       3.164  -6.476  -0.063  0.00  0.00    +0.159 C 
BRANCH   3  14
ATOM      4  C   UNL     1       5.103  -6.882   5.257  0.00  0.00    +0.001 A 
ATOM      5  C   UNL     1       4.064  -6.455   4.435  0.00  0.00    +0.001 A 
ATOM      6  C   UNL     1       4.125  -6.625   3.084  0.00  0.00    +0.009 A 
ATOM      7  C   UNL     1       5.247  -7.235   2.512  0.00  0.00    -0.007 A 
ATOM      8  C   UNL     1       6.306  -7.670   3.345  0.00  0.00    -0.017 A 
ATOM      9  C   UNL     1       6.209  -7.480   4.733  0.00  0.00    +0.008 A 
ATOM     10  C   UNL     1       7.435  -8.284   2.768  0.00  0.00    +0.012 A 
ATOM     11  C   UNL     1       7.521  -8.473   1.428  0.00  0.00    +0.047 A 
ATOM     12  C   UNL     1       6.506  -8.058   0.560  0.00  0.00    +0.136 A 
ATOM     13  C   UNL     1       5.362  -7.439   1.074  0.00  0.00    +0.032 A 
ATOM     14  C   UNL     1       4.516  -7.142  -0.079  0.00  0.00    +0.009 A 
ATOM     15  C   UNL     1       5.189  -7.576  -1.158  0.00  0.00    +0.200 A 
ATOM     16  O   UNL     1       6.360  -8.115  -0.780  0.00  0.00    -0.463 OA
ENDBRANCH   3  14
ENDBRANCH   1   3
BRANCH   1  17
ATOM     17  O   UNL     1       2.266  -4.176  -0.042  0.00  0.00    -0.455 OA
BRANCH  17  18
ATOM     18  C   UNL     1       2.512  -2.745  -0.037  0.00  0.00    +0.328 C 
BRANCH  18  19
ATOM     19  C   UNL     1       1.196  -2.010  -0.020  0.00  0.00    +0.258 C 
ATOM     20  O   UNL     1       0.155  -2.630  -0.013  0.00  0.00    -0.272 OA
ATOM     21  N   UNL     1       1.178  -0.662  -0.013  0.00  0.00    -0.237 N 
ATOM     22  C   UNL     1       0.002  -0.004   0.002  0.00  0.00    +0.306 C 
ATOM     23  O   UNL     1      -1.042  -0.626   0.009  0.00  0.00    -0.252 OA
ATOM     24  N   UNL     1      -0.016   1.344   0.009  0.00  0.00    -0.296 N 
ATOM     25  H   UNL     1       2.012  -0.166  -0.018  0.00  0.00    +0.159 HD
ATOM     26  H   UNL     1       0.817   1.840   0.004  0.00  0.00    +0.151 HD
BRANCH  24  27
ATOM     27  C   UNL     1      -1.295   2.059   0.019  0.00  0.00    +0.074 C 
ATOM     28  C   UNL     1      -1.808   2.206  -1.414  0.00  0.00    +0.022 C 
ATOM     29  C   UNL     1      -3.143   2.953  -1.404  0.00  0.00    +0.002 C 
ATOM     30  C   UNL     1      -2.947   4.339  -0.788  0.00  0.00    +0.000 C 
ATOM     31  C   UNL     1      -2.434   4.192   0.646  0.00  0.00    +0.002 C 
ATOM     32  C   UNL     1      -1.099   3.445   0.636  0.00  0.00    +0.022 C 
ENDBRANCH  24  27
ENDBRANCH  18  19
ENDBRANCH  17  18
ENDBRANCH   1  17
TORSDOF 6
