REMARK  Name = ZINC31073897
REMARK  13 active torsions:
REMARK  status: ('A' for Active; 'I' for Inactive)
REMARK    1  A    between atoms: C_1  and  C_2
REMARK    2  A    between atoms: C_4  and  N_23
REMARK    3  A    between atoms: C_6  and  C_7
REMARK    4  A    between atoms: N_9  and  C_10
REMARK    5  A    between atoms: C_13  and  C_16
REMARK    6  A    between atoms: N_18  and  C_19
REMARK    7  A    between atoms: C_19  and  C_20
REMARK    8  A    between atoms: C_19  and  C_21
REMARK    9  A    between atoms: C_19  and  C_22
REMARK   10  A    between atoms: C_24  and  C_26
REMARK   11  A    between atoms: C_26  and  C_27
REMARK   12  A    between atoms: C_26  and  C_28
REMARK   13  A    between atoms: C_26  and  C_29
REMARK                            x       y       z     vdW  Elec       q    Type
REMARK                         _______ _______ _______ _____ _____    ______ ____
ROOT
ATOM      1  C   UNL     1      -5.275  -1.727  -0.155  0.00  0.00    +0.255 C 
ATOM      2  O   UNL     1      -6.474  -1.579  -0.309  0.00  0.00    -0.269 OA
ATOM      3  N   UNL     1      -4.763  -2.963   0.008  0.00  0.00    -0.281 N 
ATOM      4  H   UNL     1      -3.674  -3.105   0.060  0.00  0.00    +0.155 HD
ENDROOT
BRANCH   1  10
ATOM      5  C   UNL     1      -6.164   1.190  -0.501  0.00  0.00    +0.045 C 
ATOM      6  C   UNL     1      -4.739   0.744  -0.297  0.00  0.00    -0.029 A 
ATOM      7  C   UNL     1      -3.710   1.646  -0.251  0.00  0.00    +0.035 A 
ATOM      8  C   UNL     1      -2.427   1.179  -0.061  0.00  0.00    +0.073 A 
ATOM      9  S   UNL     1      -2.645  -0.537   0.049  0.00  0.00    -0.069 S 
ATOM     10  C   UNL     1      -4.417  -0.597  -0.147  0.00  0.00    +0.079 A 
BRANCH   8  11
ATOM     11  N   UNL     1      -1.246   1.907   0.018  0.00  0.00    -0.280 N 
ATOM     12  C   UNL     1      -0.074   1.270   0.208  0.00  0.00    +0.223 C 
ATOM     13  O   UNL     1      -0.050   0.062   0.312  0.00  0.00    -0.275 OA
ATOM     14  H   UNL     1      -1.268   3.003  -0.076  0.00  0.00    +0.155 HD
BRANCH  12  15
ATOM     15  C   UNL     1       1.208   2.059   0.287  0.00  0.00    +0.039 C 
ATOM     16  C   UNL     1       2.383   1.103   0.499  0.00  0.00    +0.020 C 
ATOM     17  C   UNL     1       1.411   2.835  -1.016  0.00  0.00    +0.020 C 
ATOM     18  C   UNL     1       1.132   3.041   1.459  0.00  0.00    +0.020 C 
ENDBRANCH  12  15
ENDBRANCH   8  11
ENDBRANCH   1  10
BRANCH   3  19
ATOM     19  C   UNL     1      -5.614  -4.061   0.111  0.00  0.00    +0.034 A 
ATOM     20  C   UNL     1      -6.853  -3.924   0.730  0.00  0.00    +0.024 A 
ATOM     21  C   UNL     1      -7.698  -5.006   0.828  0.00  0.00    +0.015 A 
ATOM     22  C   UNL     1      -7.307  -6.245   0.315  0.00  0.00    +0.037 A 
ATOM     23  C   UNL     1      -6.060  -6.381  -0.301  0.00  0.00    +0.015 A 
ATOM     24  C   UNL     1      -5.221  -5.294  -0.401  0.00  0.00    +0.024 A 
BRANCH  22  25
ATOM     25  C   UNL     1      -8.209  -7.409   0.423  0.00  0.00    +0.244 C 
ATOM     26  O   UNL     1      -7.867  -8.486  -0.024  0.00  0.00    -0.270 OA
ATOM     27  N   UNL     1      -9.411  -7.276   1.018  0.00  0.00    -0.307 N 
ATOM     28  H   UNL     1      -9.720  -6.301   1.422  0.00  0.00    +0.150 HD
BRANCH  27  29
ATOM     29  C   UNL     1     -10.306  -8.431   1.125  0.00  0.00    +0.026 C 
ATOM     30  C   UNL     1      -9.617  -9.537   1.927  0.00  0.00    +0.031 C 
ATOM     31  C   UNL     1     -11.595  -8.013   1.837  0.00  0.00    +0.031 C 
ATOM     32  C   UNL     1     -10.641  -8.948  -0.275  0.00  0.00    +0.031 C 
ENDBRANCH  27  29
ENDBRANCH  22  25
ENDBRANCH   3  19
TORSDOF 6
