REMARK  Name = ZINC11428691
REMARK  7 active torsions:
REMARK  status: ('A' for Active; 'I' for Inactive)
REMARK    1  A    between atoms: C_1  and  C_2
REMARK    2  A    between atoms: C_2  and  O_3
REMARK    3  A    between atoms: O_3  and  C_4
REMARK    4  A    between atoms: C_4  and  C_6
REMARK    5  A    between atoms: C_8  and  C_15
REMARK    6  A    between atoms: C_10  and  N_12
REMARK    7  A    between atoms: C_24  and  C_28
REMARK                            x       y       z     vdW  Elec       q    Type
REMARK                         _______ _______ _______ _____ _____    ______ ____
ROOT
ATOM      1  C   UNL     1      -2.854  -2.420   0.016  0.00  0.00    +0.062 A 
ATOM      2  C   UNL     1      -3.020  -3.804   0.016  0.00  0.00    +0.028 A 
ATOM      3  C   UNL     1      -4.303  -4.345   0.026  0.00  0.00    +0.040 A 
ATOM      4  C   UNL     1      -5.415  -3.499   0.036  0.00  0.00    +0.045 A 
ATOM      5  C   UNL     1      -5.244  -2.129   0.036  0.00  0.00    +0.128 A 
ATOM      6  C   UNL     1      -3.975  -1.585   0.032  0.00  0.00    +0.047 A 
ENDROOT
BRANCH   3   7
ATOM      7  C   UNL     1      -4.489  -5.811   0.026  0.00  0.00    +0.250 C 
ATOM      8  O   UNL     1      -3.521  -6.546   0.017  0.00  0.00    -0.270 OA
ATOM      9  N   UNL     1      -5.731  -6.334   0.035  0.00  0.00    -0.261 N 
ATOM     10  C   UNL     1      -5.905  -7.712   0.035  0.00  0.00    +0.165 A 
ATOM     11  N   UNL     1      -4.986  -8.652   0.032  0.00  0.00    -0.229 NA
ATOM     12  C   UNL     1      -5.301  -9.944   0.032  0.00  0.00    +0.054 A 
ATOM     13  C   UNL     1      -6.633 -10.207   0.037  0.00  0.00    +0.015 A 
ATOM     14  S   UNL     1      -7.346  -8.586   0.045  0.00  0.00    -0.057 S 
ATOM     15  C   UNL     1      -7.299 -11.541   0.041  0.00  0.00    +0.047 C 
ATOM     16  C   UNL     1      -6.248 -12.600   0.409  0.00  0.00    -0.009 C 
ATOM     17  C   UNL     1      -4.990 -12.361  -0.430  0.00  0.00    +0.010 C 
ATOM     18  C   UNL     1      -4.288 -11.080   0.027  0.00  0.00    +0.056 C 
ATOM     19  C   UNL     1      -6.803 -13.996   0.118  0.00  0.00    +0.008 C 
ATOM     20  H   UNL     1      -6.504  -5.747   0.042  0.00  0.00    +0.157 HD
ENDBRANCH   3   7
BRANCH   5  21
ATOM     21  N   UNL     1      -6.427  -1.239   0.046  0.00  0.00    +0.056 N 
ATOM     22  O   UNL     1      -7.539  -1.712   0.054  0.00  0.00    -0.126 OA
ATOM     23  O   UNL     1      -6.280  -0.039   0.046  0.00  0.00    -0.126 OA
ENDBRANCH   5  21
BRANCH   1  24
ATOM     24  C   UNL     1      -1.497  -1.836   0.006  0.00  0.00    +0.339 C 
ATOM     25  O   UNL     1      -0.524  -2.563  -0.007  0.00  0.00    -0.245 OA
BRANCH  24  26
ATOM     26  O   UNL     1      -1.339  -0.499   0.012  0.00  0.00    -0.461 OA
BRANCH  26  28
ATOM     27  C   UNL     1      -0.019   1.526   0.010  0.00  0.00    +0.048 C 
ATOM     28  C   UNL     1       0.002  -0.004   0.002  0.00  0.00    +0.229 C 
ENDBRANCH  26  28
ENDBRANCH  24  26
ENDBRANCH   1  24
TORSDOF 5
