REMARK  Name = ZINC06135029
REMARK  18 active torsions:
REMARK  status: ('A' for Active; 'I' for Inactive)
REMARK    1  A    between atoms: C_1  and  C_2
REMARK    2  A    between atoms: C_2  and  C_3
REMARK    3  A    between atoms: C_10  and  C_15
REMARK    4  A    between atoms: C_15  and  N_16
REMARK    5  A    between atoms: N_16  and  C_17
REMARK    6  A    between atoms: N_16  and  C_24
REMARK    7  A    between atoms: C_17  and  C_18
REMARK    8  A    between atoms: C_18  and  C_19
REMARK    9  A    between atoms: C_19  and  N_72
REMARK   10  A    between atoms: C_20  and  C_21
REMARK   11  A    between atoms: C_20  and  N_72
REMARK   12  A    between atoms: C_22  and  C_23
REMARK   13  A    between atoms: C_22  and  N_72
REMARK   14  A    between atoms: C_24  and  N_26
REMARK   15  A    between atoms: N_26  and  C_27
REMARK   16  A    between atoms: C_32  and  C_33
REMARK   17  A    between atoms: C_33  and  O_35
REMARK   18  A    between atoms: O_35  and  C_36
REMARK                            x       y       z     vdW  Elec       q    Type
REMARK                         _______ _______ _______ _____ _____    ______ ____
ROOT
ATOM      1  N   UNL     1       1.398  -2.785   0.905  0.00  0.00    -0.308 N 
ENDROOT
BRANCH   1   2
ATOM      2  C   UNL     1       0.255  -3.184   1.496  0.00  0.00    +0.137 C 
ATOM      3  S   UNL     1      -1.160  -3.411   0.559  0.00  0.00    -0.018 S 
BRANCH   2   4
ATOM      4  N   UNL     1       0.224  -3.405   2.826  0.00  0.00    -0.296 N 
ATOM      5  H   UNL     1       1.040  -3.343   3.346  0.00  0.00    +0.154 HD
BRANCH   4   6
ATOM      6  C   UNL     1      -0.977  -3.724   3.451  0.00  0.00    +0.047 A 
ATOM      7  C   UNL     1      -2.158  -3.117   3.044  0.00  0.00    +0.024 A 
ATOM      8  C   UNL     1      -3.350  -3.438   3.662  0.00  0.00    +0.002 A 
ATOM      9  C   UNL     1      -3.377  -4.357   4.699  0.00  0.00    +0.001 A 
ATOM     10  C   UNL     1      -2.215  -4.965   5.121  0.00  0.00    +0.017 A 
ATOM     11  C   UNL     1      -1.001  -4.655   4.501  0.00  0.00    +0.080 A 
BRANCH  11  12
ATOM     12  C   UNL     1       0.245  -5.302   4.947  0.00  0.00    +0.341 C 
ATOM     13  O   UNL     1       1.308  -4.976   4.456  0.00  0.00    -0.245 OA
BRANCH  12  14
ATOM     14  O   UNL     1       0.207  -6.255   5.899  0.00  0.00    -0.464 OA
ATOM     15  C   UNL     1       1.473  -6.848   6.289  0.00  0.00    +0.280 C 
ENDBRANCH  12  14
ENDBRANCH  11  12
ENDBRANCH   4   6
ENDBRANCH   2   4
ENDBRANCH   1   2
BRANCH   1  16
ATOM     16  C   UNL     1       1.407  -2.449  -0.520  0.00  0.00    +0.147 C 
BRANCH  16  24
ATOM     17  C   UNL     1      -1.855   2.725  -1.454  0.00  0.00    -0.047 A 
ATOM     18  C   UNL     1      -0.781   3.603  -1.375  0.00  0.00    +0.005 A 
ATOM     19  C   UNL     1       0.494   3.134  -1.149  0.00  0.00    +0.026 A 
ATOM     20  C   UNL     1       0.711   1.768  -0.995  0.00  0.00    +0.049 A 
ATOM     21  C   UNL     1      -0.380   0.882  -1.076  0.00  0.00    -0.001 A 
ATOM     22  C   UNL     1      -1.666   1.381  -1.308  0.00  0.00    +0.013 A 
ATOM     23  C   UNL     1      -0.141  -0.553  -0.915  0.00  0.00    +0.020 A 
ATOM     24  C   UNL     1       1.127  -0.978  -0.692  0.00  0.00    +0.035 A 
ATOM     25  C   UNL     1       2.186  -0.048  -0.620  0.00  0.00    +0.254 A 
ATOM     26  O   UNL     1       3.319  -0.451  -0.419  0.00  0.00    -0.268 OA
ATOM     27  N   UNL     1       1.977   1.272  -0.767  0.00  0.00    -0.322 N 
ATOM     28  H   UNL     1       2.750   1.903  -0.709  0.00  0.00    +0.169 HD
BRANCH  17  30
ATOM     29  C   UNL     1      -3.917   3.569  -0.365  0.00  0.00    +0.009 C 
ATOM     30  C   UNL     1      -3.241   3.262  -1.703  0.00  0.00    +0.032 C 
ENDBRANCH  17  30
ENDBRANCH  16  24
ENDBRANCH   1  16
BRANCH   1  31
ATOM     31  C   UNL     1       2.632  -2.686   1.689  0.00  0.00    +0.105 C 
BRANCH  31  32
ATOM     32  C   UNL     1       2.748  -1.281   2.283  0.00  0.00    +0.000 C 
BRANCH  32  33
ATOM     33  C   UNL     1       4.037  -1.178   3.101  0.00  0.00    -0.077 C 
BRANCH  33  34
ATOM     34  N   UNL     1       4.145   0.190   3.650  0.00  0.00    +0.379 N 
ATOM     35  H   UNL     1       4.027   0.866   2.886  0.00  0.00    -0.082 HD
BRANCH  34  36
ATOM     36  C   UNL     1       3.087   0.416   4.657  0.00  0.00    -0.082 C 
ATOM     37  C   UNL     1       3.285  -0.511   5.859  0.00  0.00    -0.017 C 
ENDBRANCH  34  36
BRANCH  34  38
ATOM     38  C   UNL     1       5.476   0.385   4.262  0.00  0.00    -0.082 C 
ATOM     39  C   UNL     1       5.632   1.857   4.648  0.00  0.00    -0.017 C 
ENDBRANCH  34  38
ENDBRANCH  33  34
ENDBRANCH  32  33
ENDBRANCH  31  32
ENDBRANCH   1  31
TORSDOF 14
