REMARK  Name = ZINC00574184
REMARK  7 active torsions:
REMARK  status: ('A' for Active; 'I' for Inactive)
REMARK    1  A    between atoms: C_1  and  C_2
REMARK    2  A    between atoms: C_5  and  N_9
REMARK    3  A    between atoms: C_7  and  C_8
REMARK    4  A    between atoms: C_10  and  C_12
REMARK    5  A    between atoms: C_12  and  S_13
REMARK    6  A    between atoms: S_13  and  C_14
REMARK    7  A    between atoms: C_17  and  C_19
REMARK                            x       y       z     vdW  Elec       q    Type
REMARK                         _______ _______ _______ _____ _____    ______ ____
ROOT
ATOM      1  C   UNL     1      -0.134  -6.343  -1.187  0.00  0.00    +0.175 C 
ENDROOT
BRANCH   1   3
ATOM      2  N   UNL     1       0.059  -4.170  -0.021  0.00  0.00    -0.285 N 
ATOM      3  C   UNL     1      -0.040  -4.839  -1.187  0.00  0.00    +0.228 C 
ATOM      4  O   UNL     1      -0.054  -4.230  -2.236  0.00  0.00    -0.275 OA
ATOM      5  H   UNL     1       0.147  -4.658   0.812  0.00  0.00    +0.155 HD
BRANCH   2  10
ATOM      6  C   UNL     1      -0.041   1.502   0.014  0.00  0.00    +0.044 C 
ATOM      7  C   UNL     1      -0.015  -0.004   0.004  0.00  0.00    -0.047 A 
ATOM      8  C   UNL     1      -0.752  -0.702  -0.935  0.00  0.00    +0.005 A 
ATOM      9  C   UNL     1      -0.730  -2.082  -0.946  0.00  0.00    +0.023 A 
ATOM     10  C   UNL     1       0.034  -2.771  -0.013  0.00  0.00    +0.034 A 
ATOM     11  C   UNL     1       0.773  -2.068   0.929  0.00  0.00    +0.027 A 
ATOM     12  C   UNL     1       0.751  -0.686   0.932  0.00  0.00    -0.046 A 
ATOM     13  C   UNL     1       1.557   0.078   1.950  0.00  0.00    +0.044 C 
ENDBRANCH   2  10
ENDBRANCH   1   3
BRANCH   1  14
ATOM     14  S   UNL     1      -0.255  -6.941  -2.895  0.00  0.00    -0.056 S 
BRANCH  14  15
ATOM     15  C   UNL     1      -0.356  -8.692  -2.728  0.00  0.00    +0.278 A 
ATOM     16  N   UNL     1      -0.348  -9.367  -1.600  0.00  0.00    -0.101 NA
ATOM     17  N   UNL     1      -0.438 -10.625  -1.855  0.00  0.00    -0.106 NA
ATOM     18  C   UNL     1      -0.506 -10.804  -3.151  0.00  0.00    +0.249 A 
ATOM     19  O   UNL     1      -0.461  -9.583  -3.731  0.00  0.00    -0.411 OA
BRANCH  18  20
ATOM     20  C   UNL     1      -0.616 -12.100  -3.851  0.00  0.00    +0.041 A 
ATOM     21  C   UNL     1      -0.675 -12.161  -5.249  0.00  0.00    +0.033 A 
ATOM     22  C   UNL     1      -0.778 -13.393  -5.860  0.00  0.00    +0.111 A 
ATOM     23  N   UNL     1      -0.821 -14.502  -5.146  0.00  0.00    -0.263 NA
ATOM     24  C   UNL     1      -0.768 -14.490  -3.828  0.00  0.00    +0.111 A 
ATOM     25  C   UNL     1      -0.659 -13.303  -3.135  0.00  0.00    +0.033 A 
ENDBRANCH  18  20
ENDBRANCH  14  15
ENDBRANCH   1  14
TORSDOF 5
