REMARK  Name = ZINC37436392
REMARK  5 active torsions:
REMARK  status: ('A' for Active; 'I' for Inactive)
REMARK    1  A    between atoms: C_3  and  N_9
REMARK    2  A    between atoms: C_12  and  C_15
REMARK    3  A    between atoms: C_21  and  C_23
REMARK    4  A    between atoms: N_25  and  C_26
REMARK    5  A    between atoms: C_26  and  C_27
REMARK                            x       y       z     vdW  Elec       q    Type
REMARK                         _______ _______ _______ _____ _____    ______ ____
ROOT
ATOM      1  C   UNL     1       5.514   6.586  -0.451  0.00  0.00    +0.266 C 
ATOM      2  O   UNL     1       5.320   7.785  -0.525  0.00  0.00    -0.268 OA
ATOM      3  N   UNL     1       6.771   6.103  -0.488  0.00  0.00    -0.285 N 
ATOM      4  C   UNL     1       7.147   4.679  -0.415  0.00  0.00    +0.109 C 
ATOM      5  C   UNL     1       8.533   4.599  -1.102  0.00  0.00    +0.021 C 
ATOM      6  C   UNL     1       9.187   5.928  -0.640  0.00  0.00    +0.033 C 
ATOM      7  C   UNL     1       7.995   6.907  -0.616  0.00  0.00    +0.162 C 
ENDROOT
BRANCH   1  11
ATOM      8  N   UNL     1       3.583   2.127  -0.021  0.00  0.00    -0.293 N 
ATOM      9  C   UNL     1       3.566   3.508  -0.119  0.00  0.00    +0.163 A 
ATOM     10  N   UNL     1       4.575   4.347  -0.237  0.00  0.00    -0.220 NA
ATOM     11  C   UNL     1       4.374   5.664  -0.319  0.00  0.00    +0.135 A 
ATOM     12  C   UNL     1       3.090   6.145  -0.280  0.00  0.00    +0.081 A 
ATOM     13  S   UNL     1       2.167   4.621  -0.125  0.00  0.00    -0.060 S 
ATOM     14  H   UNL     1       4.427   1.657   0.067  0.00  0.00    +0.154 HD
BRANCH   8  17
ATOM     15  C   UNL     1       0.074   1.245  -0.678  0.00  0.00    +0.003 A 
ATOM     16  C   UNL     1       1.258   1.957  -0.651  0.00  0.00    +0.025 A 
ATOM     17  C   UNL     1       2.383   1.408  -0.050  0.00  0.00    +0.053 A 
ATOM     18  C   UNL     1       2.315   0.144   0.523  0.00  0.00    +0.080 A 
ATOM     19  C   UNL     1       1.127  -0.563   0.492  0.00  0.00    +0.061 A 
ATOM     20  C   UNL     1       0.008  -0.012  -0.108  0.00  0.00    +0.021 A 
ATOM     21 CL   UNL     1       1.039  -2.143   1.207  0.00  0.00    -0.082 Cl
ATOM     22 CL   UNL     1       3.719  -0.547   1.276  0.00  0.00    -0.080 Cl
ENDBRANCH   8  17
ENDBRANCH   1  11
BRANCH   7  23
ATOM     23  C   UNL     1       7.955   7.702  -1.896  0.00  0.00    +0.234 C 
ATOM     24  O   UNL     1       7.197   7.379  -2.787  0.00  0.00    -0.274 OA
ATOM     25  N   UNL     1       8.762   8.770  -2.052  0.00  0.00    -0.311 N 
ATOM     26  H   UNL     1       9.368   9.028  -1.340  0.00  0.00    +0.149 HD
BRANCH  25  27
ATOM     27  C   UNL     1       8.723   9.542  -3.297  0.00  0.00    +0.135 C 
BRANCH  27  28
ATOM     28  C   UNL     1       9.729  10.692  -3.215  0.00  0.00    +0.135 C 
ATOM     29  C   UNL     1       9.610  11.582  -4.471  0.00  0.00    +0.035 C 
ATOM     30  C   UNL     1      11.094  11.928  -4.771  0.00  0.00    +0.031 C 
ATOM     31  C   UNL     1      11.796  10.620  -4.329  0.00  0.00    +0.160 C 
ATOM     32  O   UNL     1      11.062  10.170  -3.177  0.00  0.00    -0.375 OA
ENDBRANCH  27  28
ENDBRANCH  25  27
ENDBRANCH   7  23
TORSDOF 5
