REMARK  Name = ZINC36589127
REMARK  17 active torsions:
REMARK  status: ('A' for Active; 'I' for Inactive)
REMARK    1  A    between atoms: C_1  and  C_2
REMARK    2  A    between atoms: C_5  and  S_8
REMARK    3  A    between atoms: S_8  and  C_11
REMARK    4  A    between atoms: C_11  and  N_12
REMARK    5  A    between atoms: C_13  and  C_15
REMARK    6  A    between atoms: C_15  and  C_17
REMARK    7  A    between atoms: C_15  and  N_26
REMARK    8  A    between atoms: C_18  and  O_25
REMARK    9  A    between atoms: C_20  and  O_24
REMARK   10  A    between atoms: C_22  and  O_23
REMARK   11  A    between atoms: N_26  and  C_33
REMARK   12  A    between atoms: C_27  and  C_29
REMARK   13  A    between atoms: C_30  and  C_31
REMARK   14  A    between atoms: C_30  and  C_32
REMARK   15  A    between atoms: C_33  and  C_34
REMARK   16  A    between atoms: C_33  and  C_35
REMARK   17  A    between atoms: C_33  and  C_36
REMARK                            x       y       z     vdW  Elec       q    Type
REMARK                         _______ _______ _______ _____ _____    ______ ____
ROOT
ATOM      1  C   UNL     1       2.878  -3.890   4.104  0.00  0.00    +0.200 C 
ENDROOT
BRANCH   1   2
ATOM      2  C   UNL     1       4.311  -3.424   4.064  0.00  0.00    +0.065 A 
ATOM      3  C   UNL     1       5.316  -4.301   3.685  0.00  0.00    +0.129 A 
ATOM      4  C   UNL     1       6.634  -3.872   3.648  0.00  0.00    +0.091 A 
ATOM      5  C   UNL     1       6.947  -2.565   3.990  0.00  0.00    +0.124 A 
ATOM      6  C   UNL     1       5.942  -1.687   4.368  0.00  0.00    +0.091 A 
ATOM      7  C   UNL     1       4.624  -2.115   4.401  0.00  0.00    +0.129 A 
BRANCH   7   8
ATOM      8  O   UNL     1       3.639  -1.254   4.767  0.00  0.00    -0.506 OA
ATOM      9  H   UNL     1       3.456  -1.246   5.717  0.00  0.00    +0.292 HD
ENDBRANCH   7   8
BRANCH   5  10
ATOM     10  O   UNL     1       8.239  -2.145   3.954  0.00  0.00    -0.507 OA
ATOM     11  H   UNL     1       8.510  -1.778   3.102  0.00  0.00    +0.292 HD
ENDBRANCH   5  10
BRANCH   3  12
ATOM     12  O   UNL     1       5.008  -5.582   3.350  0.00  0.00    -0.506 OA
ATOM     13  H   UNL     1       4.748  -5.695   2.426  0.00  0.00    +0.292 HD
ENDBRANCH   3  12
ENDBRANCH   1   2
BRANCH   1  15
ATOM     14  N   UNL     1       2.197  -3.526   1.755  0.00  0.00    -0.294 N 
ATOM     15  C   UNL     1       2.477  -4.398   2.744  0.00  0.00    +0.240 C 
ATOM     16  O   UNL     1       2.407  -5.591   2.538  0.00  0.00    -0.273 OA
ATOM     17  H   UNL     1       2.253  -2.572   1.919  0.00  0.00    +0.150 HD
BRANCH  14  18
ATOM     18  C   UNL     1       1.807  -4.020   0.432  0.00  0.00    +0.278 C 
BRANCH  18  19
ATOM     19  S   UNL     1      -0.003  -4.069   0.314  0.00  0.00    +0.013 S 
ATOM     20  O   UNL     1      -0.552  -4.686   1.470  0.00  0.00    -0.168 OA
ATOM     21  O   UNL     1      -0.397  -4.487  -0.986  0.00  0.00    -0.168 OA
BRANCH  19  26
ATOM     22  C   UNL     1      -1.740   1.698   0.672  0.00  0.00    +0.044 C 
ATOM     23  C   UNL     1      -1.306   0.257   0.582  0.00  0.00    -0.050 A 
ATOM     24  C   UNL     1      -1.031  -0.306  -0.649  0.00  0.00    +0.005 A 
ATOM     25  C   UNL     1      -0.633  -1.628  -0.732  0.00  0.00    +0.027 A 
ATOM     26  C   UNL     1      -0.509  -2.385   0.418  0.00  0.00    +0.090 A 
ATOM     27  C   UNL     1      -0.783  -1.821   1.650  0.00  0.00    +0.027 A 
ATOM     28  C   UNL     1      -1.177  -0.498   1.733  0.00  0.00    +0.005 A 
ENDBRANCH  19  26
ENDBRANCH  18  19
ENDBRANCH  14  18
ENDBRANCH   1  15
BRANCH   1  29
ATOM     29  N   UNL     1       2.743  -4.968   5.087  0.00  0.00    -0.277 N 
ATOM     30  C   UNL     1       3.794  -5.313   5.858  0.00  0.00    +0.241 C 
ATOM     31  O   UNL     1       4.814  -4.652   5.826  0.00  0.00    -0.271 OA
BRANCH  30  32
ATOM     32  C   UNL     1       3.706  -6.489   6.738  0.00  0.00    +0.066 C 
ATOM     33  C   UNL     1       4.743  -6.829   7.497  0.00  0.00    -0.071 C 
ATOM     34  C   UNL     1       6.067  -6.132   7.322  0.00  0.00    +0.039 C 
ATOM     35  C   UNL     1       4.593  -7.913   8.534  0.00  0.00    +0.039 C 
ENDBRANCH  30  32
BRANCH  29  36
ATOM     36  C   UNL     1       1.466  -5.671   5.233  0.00  0.00    +0.030 C 
ATOM     37  C   UNL     1       0.409  -4.993   4.359  0.00  0.00    +0.031 C 
ATOM     38  C   UNL     1       1.633  -7.127   4.795  0.00  0.00    +0.031 C 
ATOM     39  C   UNL     1       1.023  -5.626   6.697  0.00  0.00    +0.031 C 
ENDBRANCH  29  36
ENDBRANCH   1  29
TORSDOF 11
