REMARK  Name = ZINC03083905
REMARK  7 active torsions:
REMARK  status: ('A' for Active; 'I' for Inactive)
REMARK    1  A    between atoms: C_3  and  N_8
REMARK    2  A    between atoms: C_9  and  C_11
REMARK    3  A    between atoms: C_11  and  C_12
REMARK    4  A    between atoms: C_12  and  C_13
REMARK    5  A    between atoms: N_15  and  N_16
REMARK    6  A    between atoms: C_17  and  C_18
REMARK    7  A    between atoms: C_23  and  O_24
REMARK                            x       y       z     vdW  Elec       q    Type
REMARK                         _______ _______ _______ _____ _____    ______ ____
ROOT
ATOM      1  C   UNL     1       8.511   2.043   0.361  0.00  0.00    +0.233 C 
ATOM      2  O   UNL     1       8.491   3.256   0.367  0.00  0.00    -0.274 OA
ATOM      3  N   UNL     1       9.686   1.388   0.448  0.00  0.00    -0.207 N 
ATOM      4  H   UNL     1       9.702   0.418   0.443  0.00  0.00    +0.177 HD
ENDROOT
BRANCH   3   5
ATOM      5  N   UNL     1      10.884   2.108   0.545  0.00  0.00    -0.188 NA
ATOM      6  C   UNL     1      12.015   1.477   0.629  0.00  0.00    +0.142 C 
BRANCH   6   7
ATOM      7  C   UNL     1      13.275   2.234   0.731  0.00  0.00    +0.037 A 
ATOM      8  C   UNL     1      14.495   1.559   0.816  0.00  0.00    +0.028 A 
ATOM      9  C   UNL     1      15.671   2.274   0.911  0.00  0.00    +0.019 A 
ATOM     10  C   UNL     1      15.647   3.659   0.924  0.00  0.00    +0.019 A 
ATOM     11  C   UNL     1      14.446   4.338   0.841  0.00  0.00    +0.047 A 
ATOM     12  C   UNL     1      13.257   3.635   0.739  0.00  0.00    +0.126 A 
ATOM     13 BR   UNL     1      17.323   1.360   1.026  0.00  0.00    -0.050 Br
BRANCH  12  14
ATOM     14  O   UNL     1      12.077   4.302   0.652  0.00  0.00    -0.506 OA
ATOM     15  H   UNL     1      11.667   4.489   1.508  0.00  0.00    +0.292 HD
ENDBRANCH  12  14
ENDBRANCH   6   7
ENDBRANCH   3   5
BRANCH   1  16
ATOM     16  C   UNL     1       7.223   1.269   0.256  0.00  0.00    +0.107 C 
BRANCH  16  17
ATOM     17  C   UNL     1       6.047   2.244   0.171  0.00  0.00    +0.105 C 
BRANCH  17  19
ATOM     18  N   UNL     1       3.584   2.125  -0.021  0.00  0.00    -0.285 N 
ATOM     19  C   UNL     1       4.758   1.470   0.066  0.00  0.00    +0.218 C 
ATOM     20  O   UNL     1       4.778   0.258   0.060  0.00  0.00    -0.275 OA
ATOM     21  H   UNL     1       3.572   3.092  -0.093  0.00  0.00    +0.155 HD
BRANCH  18  24
ATOM     22  C   UNL     1       1.086  -0.461   0.750  0.00  0.00    +0.003 A 
ATOM     23  C   UNL     1       2.274   0.243   0.738  0.00  0.00    +0.023 A 
ATOM     24  C   UNL     1       2.381   1.410  -0.007  0.00  0.00    +0.035 A 
ATOM     25  C   UNL     1       1.292   1.866  -0.738  0.00  0.00    +0.043 A 
ATOM     26  C   UNL     1       0.106   1.158  -0.722  0.00  0.00    +0.043 A 
ATOM     27  C   UNL     1       0.003  -0.005   0.022  0.00  0.00    +0.020 A 
ATOM     28 CL   UNL     1      -1.257   1.727  -1.635  0.00  0.00    -0.083 Cl
ENDBRANCH  18  24
ENDBRANCH  17  19
ENDBRANCH  16  17
ENDBRANCH   1  16
TORSDOF 7
