REMARK  Name = ZINC20828511
REMARK  8 active torsions:
REMARK  status: ('A' for Active; 'I' for Inactive)
REMARK    1  A    between atoms: C_1  and  C_2
REMARK    2  A    between atoms: C_8  and  N_16
REMARK    3  A    between atoms: C_9  and  C_12
REMARK    4  A    between atoms: C_12  and  O_14
REMARK    5  A    between atoms: O_14  and  C_15
REMARK    6  A    between atoms: C_17  and  C_19
REMARK    7  A    between atoms: C_19  and  N_20
REMARK    8  A    between atoms: N_23  and  C_26
REMARK                            x       y       z     vdW  Elec       q    Type
REMARK                         _______ _______ _______ _____ _____    ______ ____
ROOT
ATOM      1  C   UNL     1      -2.321   8.371  -4.085  0.00  0.00    +0.019 C 
ENDROOT
BRANCH   1   2
ATOM      2  N   UNL     1      -1.339   7.684  -3.237  0.00  0.00    +0.387 N 
ATOM      3  C   UNL     1      -1.626   6.245  -3.159  0.00  0.00    -0.063 C 
ATOM      4  C   UNL     1      -0.631   5.580  -2.205  0.00  0.00    +0.067 C 
ATOM      5  N   UNL     1       0.738   5.815  -2.686  0.00  0.00    -0.295 NA
ATOM      6  C   UNL     1       1.025   7.254  -2.765  0.00  0.00    +0.067 C 
ATOM      7  C   UNL     1       0.030   7.919  -3.719  0.00  0.00    -0.063 C 
ATOM      8  H   UNL     1      -1.418   8.102  -2.223  0.00  0.00    -0.081 HD
BRANCH   5   9
ATOM      9  C   UNL     1       1.720   5.128  -1.838  0.00  0.00    +0.118 C 
ATOM     10  C   UNL     1       1.420   5.387  -0.382  0.00  0.00    -0.018 A 
ATOM     11  C   UNL     1       1.369   6.548   0.361  0.00  0.00    +0.006 A 
ATOM     12  C   UNL     1       1.058   6.495   1.708  0.00  0.00    +0.000 A 
ATOM     13  C   UNL     1       0.807   5.278   2.315  0.00  0.00    +0.001 A 
ATOM     14  C   UNL     1       0.856   4.111   1.580  0.00  0.00    +0.009 A 
ATOM     15  C   UNL     1       1.165   4.157   0.219  0.00  0.00    -0.013 A 
ATOM     16  C   UNL     1       1.284   3.079  -0.793  0.00  0.00    -0.013 A 
ATOM     17  C   UNL     1       1.614   3.634  -2.026  0.00  0.00    -0.018 A 
ATOM     18  C   UNL     1       1.780   2.826  -3.131  0.00  0.00    +0.006 A 
ATOM     19  C   UNL     1       1.619   1.457  -3.018  0.00  0.00    +0.000 A 
ATOM     20  C   UNL     1       1.291   0.895  -1.797  0.00  0.00    +0.001 A 
ATOM     21  C   UNL     1       1.123   1.696  -0.687  0.00  0.00    +0.009 A 
ENDBRANCH   5   9
ENDBRANCH   1   2
BRANCH   1  23
ATOM     22  N   UNL     1      -2.946  10.700  -4.639  0.00  0.00    -0.285 N 
ATOM     23  C   UNL     1      -2.148   9.862  -3.948  0.00  0.00    +0.201 C 
ATOM     24  O   UNL     1      -1.290  10.308  -3.215  0.00  0.00    -0.278 OA
ATOM     25  H   UNL     1      -3.773  10.299  -5.243  0.00  0.00    +0.155 HD
BRANCH  22  33
ATOM     26  C   UNL     1      -0.934  13.061   0.096  0.00  0.00    +0.044 C 
ATOM     27  C   UNL     1      -1.365  13.444  -1.296  0.00  0.00    -0.050 A 
ATOM     28  C   UNL     1      -1.306  14.773  -1.695  0.00  0.00    +0.005 A 
ATOM     29  C   UNL     1      -1.686  15.143  -2.966  0.00  0.00    +0.026 A 
ATOM     30  C   UNL     1      -2.148  14.179  -3.859  0.00  0.00    +0.049 A 
ATOM     31  C   UNL     1      -2.209  12.835  -3.449  0.00  0.00    +0.022 A 
ATOM     32  C   UNL     1      -1.810  12.481  -2.156  0.00  0.00    +0.015 A 
ATOM     33  C   UNL     1      -2.723  12.072  -4.589  0.00  0.00    +0.073 A 
ATOM     34  C   UNL     1      -2.948  12.981  -5.602  0.00  0.00    +0.147 A 
ATOM     35  N   UNL     1      -2.600  14.248  -5.156  0.00  0.00    -0.348 N 
ATOM     36  H   UNL     1      -2.640  15.217  -5.674  0.00  0.00    +0.166 HD
BRANCH  34  37
ATOM     37  C   UNL     1      -3.453  12.671  -6.891  0.00  0.00    +0.357 C 
ATOM     38  O   UNL     1      -3.632  11.511  -7.211  0.00  0.00    -0.243 OA
BRANCH  37  39
ATOM     39  O   UNL     1      -3.735  13.663  -7.762  0.00  0.00    -0.463 OA
ATOM     40  C   UNL     1      -4.240  13.278  -9.042  0.00  0.00    +0.280 C 
ENDBRANCH  37  39
ENDBRANCH  34  37
ENDBRANCH  22  33
ENDBRANCH   1  23
TORSDOF 6
