REMARK  Name = ZINC65271737
REMARK  7 active torsions:
REMARK  status: ('A' for Active; 'I' for Inactive)
REMARK    1  A    between atoms: C_1  and  C_2
REMARK    2  A    between atoms: C_2  and  C_3
REMARK    3  A    between atoms: C_3  and  C_4
REMARK    4  A    between atoms: N_12  and  C_13
REMARK    5  A    between atoms: N_17  and  S_19
REMARK    6  A    between atoms: S_19  and  C_22
REMARK    7  A    between atoms: N_31  and  C_32
REMARK                            x       y       z     vdW  Elec       q    Type
REMARK                         _______ _______ _______ _____ _____    ______ ____
ROOT
ATOM      1  C   UNL     1       2.922  -2.290  -0.040  0.00  0.00    +0.107 C 
ATOM      2  C   UNL     1       4.214  -2.865   0.598  0.00  0.00    +0.043 C 
ATOM      3  C   UNL     1       5.197  -2.824  -0.598  0.00  0.00    +0.111 C 
ATOM      4  N   UNL     1       4.376  -3.170  -1.773  0.00  0.00    -0.175 NA
ATOM      5  C   UNL     1       2.970  -2.839  -1.482  0.00  0.00    +0.134 C 
ENDROOT
BRANCH   1  14
ATOM      6  C   UNL     1       0.762  -2.018   1.233  0.00  0.00    +0.112 A 
ATOM      7  N   UNL     1      -0.148  -2.779   1.766  0.00  0.00    -0.231 NA
ATOM      8  C   UNL     1       0.181  -4.081   1.576  0.00  0.00    +0.108 A 
ATOM      9  C   UNL     1      -0.419  -5.294   1.928  0.00  0.00    +0.033 A 
ATOM     10  C   UNL     1       0.215  -6.465   1.561  0.00  0.00    +0.022 A 
ATOM     11  C   UNL     1       1.411  -6.406   0.863  0.00  0.00    +0.113 A 
ATOM     12  N   UNL     1       1.960  -5.253   0.541  0.00  0.00    -0.236 NA
ATOM     13  C   UNL     1       1.396  -4.102   0.868  0.00  0.00    +0.161 A 
ATOM     14  N   UNL     1       1.734  -2.781   0.662  0.00  0.00    -0.308 N 
BRANCH   6  15
ATOM     15  C   UNL     1       0.742  -0.511   1.242  0.00  0.00    +0.074 C 
BRANCH  15  17
ATOM     16  C   UNL     1      -0.019   1.526   0.010  0.00  0.00    +0.004 C 
ATOM     17  C   UNL     1       0.002  -0.004   0.002  0.00  0.00    +0.004 C 
ENDBRANCH  15  17
ENDBRANCH   6  15
ENDBRANCH   1  14
BRANCH   4  18
ATOM     18  S   UNL     1       4.941  -3.819  -3.188  0.00  0.00    +0.061 S 
ATOM     19  O   UNL     1       3.997  -3.480  -4.195  0.00  0.00    -0.153 OA
ATOM     20  O   UNL     1       6.313  -3.462  -3.279  0.00  0.00    -0.153 OA
BRANCH  18  21
ATOM     21  C   UNL     1       4.886  -5.572  -3.016  0.00  0.00    +0.106 A 
ATOM     22  C   UNL     1       5.976  -6.252  -2.503  0.00  0.00    +0.030 A 
ATOM     23  C   UNL     1       5.939  -7.624  -2.366  0.00  0.00    +0.026 A 
ATOM     24  C   UNL     1       4.802  -8.335  -2.744  0.00  0.00    +0.040 A 
ATOM     25  C   UNL     1       3.715  -7.640  -3.257  0.00  0.00    -0.015 A 
ATOM     26  C   UNL     1       3.751  -6.270  -3.389  0.00  0.00    +0.034 A 
ATOM     27  C   UNL     1       2.657  -8.675  -3.567  0.00  0.00    +0.133 C 
ATOM     28  C   UNL     1       3.297  -9.987  -3.165  0.00  0.00    +0.224 C 
ATOM     29  O   UNL     1       2.794 -11.088  -3.245  0.00  0.00    -0.275 OA
ATOM     30  N   UNL     1       4.526  -9.702  -2.703  0.00  0.00    -0.274 N 
ATOM     31  C   UNL     1       5.468 -10.712  -2.213  0.00  0.00    +0.138 C 
ENDBRANCH  18  21
ENDBRANCH   4  18
TORSDOF 5
