REMARK  Name = ZINC08635629
REMARK  11 active torsions:
REMARK  status: ('A' for Active; 'I' for Inactive)
REMARK    1  A    between atoms: C_1  and  O_2
REMARK    2  A    between atoms: O_2  and  C_3
REMARK    3  A    between atoms: C_6  and  S_9
REMARK    4  A    between atoms: S_9  and  N_12
REMARK    5  A    between atoms: N_12  and  C_13
REMARK    6  A    between atoms: C_13  and  C_14
REMARK    7  A    between atoms: C_22  and  C_24
REMARK    8  A    between atoms: C_24  and  N_75
REMARK    9  A    between atoms: N_27  and  C_30
REMARK   10  A    between atoms: C_35  and  O_36
REMARK   11  A    between atoms: O_36  and  C_37
REMARK                            x       y       z     vdW  Elec       q    Type
REMARK                         _______ _______ _______ _____ _____    ______ ____
ROOT
ATOM      1  C   UNL     1      -0.162  -6.664   5.595  0.00  0.00    -0.053 C 
ATOM      2  C   UNL     1      -1.342  -7.343   4.893  0.00  0.00    -0.011 C 
ATOM      3  C   UNL     1      -0.820  -8.093   3.661  0.00  0.00    -0.015 C 
ATOM      4  C   UNL     1       0.219  -9.125   4.119  0.00  0.00    -0.015 C 
ATOM      5  C   UNL     1       1.354  -8.396   4.842  0.00  0.00    -0.078 C 
ATOM      6  C   UNL     1       1.014  -6.413   3.492  0.00  0.00    -0.077 C 
ATOM      7  C   UNL     1      -0.132  -7.087   2.731  0.00  0.00    -0.041 C 
ATOM      8  N   UNL     1       1.097  -6.940   4.871  0.00  0.00    +0.383 N 
ATOM      9  H   UNL     1       1.871  -6.474   5.359  0.00  0.00    -0.081 HD
ENDROOT
BRANCH   1  10
ATOM     10  C   UNL     1      -0.393  -5.152   5.633  0.00  0.00    +0.090 C 
BRANCH  10  11
ATOM     11  N   UNL     1       0.789  -4.492   6.194  0.00  0.00    -0.191 NA
ATOM     12  H   UNL     1       1.457  -5.013   6.667  0.00  0.00    +0.148 HD
BRANCH  11  13
ATOM     13  S   UNL     1       0.985  -2.857   6.019  0.00  0.00    +0.058 S 
ATOM     14  O   UNL     1       2.195  -2.520   6.684  0.00  0.00    -0.153 OA
ATOM     15  O   UNL     1       0.764  -2.565   4.646  0.00  0.00    -0.153 OA
BRANCH  13  19
ATOM     16  C   UNL     1      -2.359  -0.854   8.324  0.00  0.00    +0.120 A 
ATOM     17  C   UNL     1      -1.156  -1.139   8.953  0.00  0.00    +0.047 A 
ATOM     18  C   UNL     1      -0.137  -1.750   8.247  0.00  0.00    +0.032 A 
ATOM     19  C   UNL     1      -0.316  -2.078   6.916  0.00  0.00    +0.105 A 
ATOM     20  C   UNL     1      -1.512  -1.789   6.285  0.00  0.00    +0.032 A 
ATOM     21  C   UNL     1      -2.536  -1.183   6.988  0.00  0.00    +0.047 A 
BRANCH  16  23
ATOM     22  C   UNL     1      -4.574   0.010   8.304  0.00  0.00    +0.277 C 
ATOM     23  O   UNL     1      -3.363  -0.254   9.015  0.00  0.00    -0.495 OA
ENDBRANCH  16  23
ENDBRANCH  13  19
ENDBRANCH  11  13
ENDBRANCH  10  11
ENDBRANCH   1  10
BRANCH   7  24
ATOM     24  C   UNL     1      -1.142  -6.028   2.284  0.00  0.00    -0.077 C 
BRANCH  24  30
ATOM     25  C   UNL     1      -0.414  -5.798  -0.015  0.00  0.00    -0.060 C 
ATOM     26  C   UNL     1       0.314  -4.873  -0.993  0.00  0.00    +0.086 C 
ATOM     27  N   UNL     1      -0.420  -3.604  -1.100  0.00  0.00    -0.331 N 
ATOM     28  C   UNL     1      -0.521  -2.945   0.210  0.00  0.00    +0.086 C 
ATOM     29  C   UNL     1      -1.249  -3.871   1.188  0.00  0.00    -0.060 C 
ATOM     30  N   UNL     1      -0.490  -5.134   1.303  0.00  0.00    +0.382 N 
ATOM     31  H   UNL     1       0.462  -4.923   1.626  0.00  0.00    -0.082 HD
BRANCH  27  32
ATOM     32  C   UNL     1       0.177  -2.758  -2.042  0.00  0.00    +0.072 A 
ATOM     33  C   UNL     1       1.492  -2.349  -1.875  0.00  0.00    +0.027 A 
ATOM     34  C   UNL     1       2.078  -1.509  -2.804  0.00  0.00    +0.002 A 
ATOM     35  C   UNL     1       1.357  -1.079  -3.903  0.00  0.00    +0.004 A 
ATOM     36  C   UNL     1       0.048  -1.486  -4.078  0.00  0.00    +0.047 A 
ATOM     37  C   UNL     1      -0.546  -2.328  -3.152  0.00  0.00    +0.141 A 
BRANCH  37  38
ATOM     38  O   UNL     1      -1.834  -2.730  -3.324  0.00  0.00    -0.493 OA
ATOM     39  C   UNL     1      -2.516  -2.245  -4.482  0.00  0.00    +0.277 C 
ENDBRANCH  37  38
ENDBRANCH  27  32
ENDBRANCH  24  30
ENDBRANCH   7  24
TORSDOF 9
