REMARK  Name = ZINC19519950
REMARK  12 active torsions:
REMARK  status: ('A' for Active; 'I' for Inactive)
REMARK    1  A    between atoms: C_1  and  C_2
REMARK    2  A    between atoms: C_2  and  O_3
REMARK    3  A    between atoms: O_3  and  C_4
REMARK    4  A    between atoms: C_11  and  C_29
REMARK    5  A    between atoms: C_12  and  N_14
REMARK    6  A    between atoms: N_14  and  C_15
REMARK    7  A    between atoms: C_15  and  C_16
REMARK    8  A    between atoms: C_16  and  C_17
REMARK    9  A    between atoms: C_17  and  N_18
REMARK   10  A    between atoms: N_18  and  S_19
REMARK   11  A    between atoms: S_19  and  C_22
REMARK   12  A    between atoms: C_25  and  C_28
REMARK                            x       y       z     vdW  Elec       q    Type
REMARK                         _______ _______ _______ _____ _____    ______ ____
ROOT
ATOM      1  N   UNL     1      -3.201  -7.895  -0.014  0.00  0.00    -0.328 N 
ATOM      2  H   UNL     1      -4.072  -8.323  -0.011  0.00  0.00    +0.147 HD
ENDROOT
BRANCH   1  11
ATOM      3  C   UNL     1      -1.498  -1.849   0.006  0.00  0.00    +0.121 A 
ATOM      4  C   UNL     1      -0.373  -2.678  -0.003  0.00  0.00    +0.048 A 
ATOM      5  C   UNL     1      -0.501  -4.033  -0.009  0.00  0.00    +0.032 A 
ATOM      6  C   UNL     1      -1.780  -4.616  -0.005  0.00  0.00    +0.073 A 
ATOM      7  C   UNL     1      -2.921  -3.775   0.004  0.00  0.00    +0.005 A 
ATOM      8  C   UNL     1      -2.757  -2.380   0.016  0.00  0.00    +0.055 A 
ATOM      9  C   UNL     1      -4.202  -4.355   0.007  0.00  0.00    +0.032 A 
ATOM     10  C   UNL     1      -4.294  -5.740   0.001  0.00  0.00    +0.092 A 
ATOM     11  C   UNL     1      -3.109  -6.514  -0.008  0.00  0.00    +0.137 A 
ATOM     12  N   UNL     1      -1.923  -5.947  -0.011  0.00  0.00    -0.231 NA
BRANCH  10  13
ATOM     13  C   UNL     1      -5.575  -6.380   0.005  0.00  0.00    +0.103 C 
ATOM     14  N   UNL     1      -6.591  -6.888   0.008  0.00  0.00    -0.191 NA
ENDBRANCH  10  13
BRANCH   3  15
ATOM     15  O   UNL     1      -1.339  -0.499   0.012  0.00  0.00    -0.492 OA
BRANCH  15  17
ATOM     16  C   UNL     1      -0.019   1.526   0.010  0.00  0.00    +0.048 C 
ATOM     17  C   UNL     1       0.002  -0.004   0.002  0.00  0.00    +0.225 C 
ENDBRANCH  15  17
ENDBRANCH   3  15
ENDBRANCH   1  11
BRANCH   1  18
ATOM     18  C   UNL     1      -1.984  -8.710  -0.024  0.00  0.00    +0.104 C 
BRANCH  18  19
ATOM     19  C   UNL     1      -2.363 -10.192  -0.029  0.00  0.00    +0.035 C 
BRANCH  19  20
ATOM     20  C   UNL     1      -1.091 -11.043  -0.039  0.00  0.00    +0.107 C 
BRANCH  20  21
ATOM     21  N   UNL     1      -1.454 -12.463  -0.043  0.00  0.00    -0.190 NA
ATOM     22  H   UNL     1      -2.359 -12.733   0.178  0.00  0.00    +0.148 HD
BRANCH  21  23
ATOM     23  S   UNL     1      -0.319 -13.606  -0.425  0.00  0.00    +0.058 S 
ATOM     24  O   UNL     1      -0.962 -14.869  -0.316  0.00  0.00    -0.153 OA
ATOM     25  O   UNL     1       0.308 -13.171  -1.624  0.00  0.00    -0.153 OA
BRANCH  23  26
ATOM     26  C   UNL     1       0.913 -13.558   0.833  0.00  0.00    +0.105 A 
ATOM     27  C   UNL     1       2.004 -12.719   0.701  0.00  0.00    +0.029 A 
ATOM     28  C   UNL     1       2.970 -12.681   1.689  0.00  0.00    +0.005 A 
ATOM     29  C   UNL     1       2.846 -13.482   2.809  0.00  0.00    -0.050 A 
ATOM     30  C   UNL     1       1.755 -14.320   2.941  0.00  0.00    +0.005 A 
ATOM     31  C   UNL     1       0.786 -14.355   1.956  0.00  0.00    +0.029 A 
ATOM     32  C   UNL     1       3.900 -13.442   3.885  0.00  0.00    +0.044 C 
ENDBRANCH  23  26
ENDBRANCH  21  23
ENDBRANCH  20  21
ENDBRANCH  19  20
ENDBRANCH  18  19
ENDBRANCH   1  18
TORSDOF 10
