REMARK  Name = ZINC58913322
REMARK  8 active torsions:
REMARK  status: ('A' for Active; 'I' for Inactive)
REMARK    1  A    between atoms: C_1  and  C_2
REMARK    2  A    between atoms: C_4  and  C_15
REMARK    3  A    between atoms: C_5  and  C_14
REMARK    4  A    between atoms: N_6  and  C_7
REMARK    5  A    between atoms: N_16  and  N_17
REMARK    6  A    between atoms: C_18  and  C_20
REMARK    7  A    between atoms: N_22  and  C_23
REMARK    8  A    between atoms: C_27  and  C_29
REMARK                            x       y       z     vdW  Elec       q    Type
REMARK                         _______ _______ _______ _____ _____    ______ ____
ROOT
ATOM      1  N   UNL     1       0.077  -5.711  -1.694  0.00  0.00    -0.199 N 
ATOM      2  C   UNL     1       0.097  -6.927  -1.113  0.00  0.00    +0.318 C 
ATOM      3  O   UNL     1       0.111  -7.022   0.098  0.00  0.00    -0.263 OA
ATOM      4  H   UNL     1       0.066  -5.636  -2.661  0.00  0.00    +0.178 HD
ENDROOT
BRANCH   2   5
ATOM      5  C   UNL     1       0.102  -8.156  -1.957  0.00  0.00    +0.305 C 
ATOM      6  O   UNL     1       0.088  -8.061  -3.168  0.00  0.00    -0.265 OA
ATOM      7  N   UNL     1       0.122  -9.372  -1.377  0.00  0.00    -0.278 N 
ATOM      8  H   UNL     1       0.201  -9.448  -0.413  0.00  0.00    +0.155 HD
BRANCH   7   9
ATOM      9  C   UNL     1       0.029 -10.524  -2.163  0.00  0.00    +0.034 A 
ATOM     10  C   UNL     1       0.621 -10.558  -3.420  0.00  0.00    +0.025 A 
ATOM     11  C   UNL     1       0.528 -11.697  -4.194  0.00  0.00    +0.022 A 
ATOM     12  C   UNL     1      -0.156 -12.804  -3.721  0.00  0.00    +0.053 A 
ATOM     13  C   UNL     1      -0.747 -12.772  -2.470  0.00  0.00    +0.075 A 
ATOM     14  C   UNL     1      -0.651 -11.638  -1.688  0.00  0.00    +0.037 A 
ATOM     15 CL   UNL     1      -0.272 -14.234  -4.698  0.00  0.00    -0.083 Cl
BRANCH  13  16
ATOM     16  C   UNL     1      -1.491 -13.978  -1.958  0.00  0.00    +0.419 C 
ATOM     17  F   UNL     1      -1.996 -13.708  -0.682  0.00  0.00    -0.166 F 
ATOM     18  F   UNL     1      -2.548 -14.276  -2.825  0.00  0.00    -0.166 F 
ATOM     19  F   UNL     1      -0.620 -15.071  -1.893  0.00  0.00    -0.166 F 
ENDBRANCH  13  16
ENDBRANCH   7   9
ENDBRANCH   2   5
BRANCH   1  21
ATOM     20  C   UNL     1       0.053  -3.383  -1.461  0.00  0.00    +0.140 C 
ATOM     21  N   UNL     1       0.073  -4.556  -0.901  0.00  0.00    -0.187 NA
BRANCH  20  25
ATOM     22  C   UNL     1       0.013   1.503   0.011  0.00  0.00    +0.064 C 
ATOM     23  C   UNL     1       0.030  -0.004   0.003  0.00  0.00    +0.022 A 
ATOM     24  C   UNL     1       0.028  -0.780  -1.096  0.00  0.00    +0.032 A 
ATOM     25  C   UNL     1       0.049  -2.169  -0.627  0.00  0.00    +0.016 A 
ATOM     26  C   UNL     1       0.063  -2.112   0.738  0.00  0.00    +0.030 A 
ATOM     27  N   UNL     1       0.058  -0.804   1.109  0.00  0.00    -0.316 N 
ATOM     28  C   UNL     1       0.087  -3.295   1.672  0.00  0.00    +0.064 C 
BRANCH  27  29
ATOM     29  C   UNL     1       0.074  -0.344   2.433  0.00  0.00    +0.065 A 
ATOM     30  C   UNL     1      -1.119  -0.136   3.112  0.00  0.00    +0.027 A 
ATOM     31  C   UNL     1      -1.100   0.317   4.417  0.00  0.00    +0.002 A 
ATOM     32  C   UNL     1       0.106   0.563   5.048  0.00  0.00    +0.002 A 
ATOM     33  C   UNL     1       1.296   0.357   4.375  0.00  0.00    +0.022 A 
ATOM     34  C   UNL     1       1.284  -0.101   3.071  0.00  0.00    +0.065 A 
ATOM     35 CL   UNL     1       2.779  -0.366   2.229  0.00  0.00    -0.081 Cl
ENDBRANCH  27  29
ENDBRANCH  20  25
ENDBRANCH   1  21
TORSDOF 6
