REMARK  Name = ZINC04259041
REMARK  8 active torsions:
REMARK  status: ('A' for Active; 'I' for Inactive)
REMARK    1  A    between atoms: C_1  and  C_2
REMARK    2  A    between atoms: C_5  and  N_8
REMARK    3  A    between atoms: C_9  and  C_11
REMARK    4  A    between atoms: C_16  and  N_17
REMARK    5  A    between atoms: C_18  and  C_20
REMARK    6  A    between atoms: N_22  and  N_23
REMARK    7  A    between atoms: C_24  and  C_25
REMARK    8  A    between atoms: C_30  and  O_31
REMARK                            x       y       z     vdW  Elec       q    Type
REMARK                         _______ _______ _______ _____ _____    ______ ____
ROOT
ATOM      1  N   UNL     1       0.213  -6.369   3.542  0.00  0.00    -0.277 N 
ATOM      2  C   UNL     1       0.709  -6.928   4.663  0.00  0.00    +0.305 C 
ATOM      3  O   UNL     1       1.328  -7.971   4.599  0.00  0.00    -0.265 OA
ATOM      4  H   UNL     1      -0.209  -5.497   3.580  0.00  0.00    +0.155 HD
ENDROOT
BRANCH   1  10
ATOM      5  C   UNL     1       0.297  -6.328   1.121  0.00  0.00    +0.058 A 
ATOM      6  C   UNL     1       0.398  -7.017  -0.090  0.00  0.00    +0.015 A 
ATOM      7  C   UNL     1       0.500  -8.392  -0.093  0.00  0.00    +0.001 A 
ATOM      8  C   UNL     1       0.504  -9.095   1.101  0.00  0.00    +0.002 A 
ATOM      9  C   UNL     1       0.405  -8.429   2.305  0.00  0.00    +0.024 A 
ATOM     10  C   UNL     1       0.307  -7.044   2.328  0.00  0.00    +0.046 A 
BRANCH   5  12
ATOM     11  N   UNL     1       0.072  -4.182  -0.029  0.00  0.00    -0.281 N 
ATOM     12  C   UNL     1       0.188  -4.857   1.131  0.00  0.00    +0.250 C 
ATOM     13  O   UNL     1       0.204  -4.254   2.187  0.00  0.00    -0.270 OA
ATOM     14  H   UNL     1      -0.024  -4.666  -0.864  0.00  0.00    +0.155 HD
BRANCH  11  19
ATOM     15  C   UNL     1       0.138   1.490  -0.029  0.00  0.00    +0.044 C 
ATOM     16  C   UNL     1       0.121  -0.017  -0.029  0.00  0.00    -0.050 A 
ATOM     17  C   UNL     1      -0.521  -0.700  -1.047  0.00  0.00    +0.005 A 
ATOM     18  C   UNL     1      -0.539  -2.081  -1.050  0.00  0.00    +0.023 A 
ATOM     19  C   UNL     1       0.088  -2.784  -0.030  0.00  0.00    +0.034 A 
ATOM     20  C   UNL     1       0.733  -2.095   0.990  0.00  0.00    +0.023 A 
ATOM     21  C   UNL     1       0.751  -0.715   0.985  0.00  0.00    +0.005 A 
ENDBRANCH  11  19
ENDBRANCH   5  12
ENDBRANCH   1  10
BRANCH   2  22
ATOM     22  C   UNL     1       0.497  -6.266   5.982  0.00  0.00    +0.318 C 
ATOM     23  O   UNL     1      -0.122  -5.224   6.046  0.00  0.00    -0.263 OA
ATOM     24  N   UNL     1       0.993  -6.825   7.104  0.00  0.00    -0.199 N 
ATOM     25  H   UNL     1       1.488  -7.658   7.053  0.00  0.00    +0.178 HD
BRANCH  24  26
ATOM     26  N   UNL     1       0.794  -6.204   8.344  0.00  0.00    -0.187 NA
ATOM     27  C   UNL     1       1.272  -6.742   9.425  0.00  0.00    +0.142 C 
BRANCH  27  28
ATOM     28  C   UNL     1       1.063  -6.089  10.728  0.00  0.00    +0.036 A 
ATOM     29  C   UNL     1       1.580  -6.662  11.893  0.00  0.00    +0.013 A 
ATOM     30  C   UNL     1       1.380  -6.044  13.109  0.00  0.00    +0.001 A 
ATOM     31  C   UNL     1       0.668  -4.859  13.182  0.00  0.00    +0.004 A 
ATOM     32  C   UNL     1       0.152  -4.282  12.038  0.00  0.00    +0.046 A 
ATOM     33  C   UNL     1       0.348  -4.885  10.806  0.00  0.00    +0.125 A 
BRANCH  33  34
ATOM     34  O   UNL     1      -0.155  -4.316   9.681  0.00  0.00    -0.506 OA
ATOM     35  H   UNL     1      -1.051  -4.604   9.461  0.00  0.00    +0.292 HD
ENDBRANCH  33  34
ENDBRANCH  27  28
ENDBRANCH  24  26
ENDBRANCH   2  22
TORSDOF 7
