REMARK  Name = ZINC01943323
REMARK  11 active torsions:
REMARK  status: ('A' for Active; 'I' for Inactive)
REMARK    1  A    between atoms: C_1  and  C_2
REMARK    2  A    between atoms: C_4  and  O_10
REMARK    3  A    between atoms: C_6  and  C_9
REMARK    4  A    between atoms: O_10  and  C_11
REMARK    5  A    between atoms: C_17  and  O_35
REMARK    6  A    between atoms: C_18  and  C_26
REMARK    7  A    between atoms: C_21  and  C_22
REMARK    8  A    between atoms: C_26  and  N_59
REMARK    9  A    between atoms: C_27  and  N_59
REMARK   10  A    between atoms: C_28  and  C_29
REMARK   11  A    between atoms: C_28  and  N_59
REMARK                            x       y       z     vdW  Elec       q    Type
REMARK                         _______ _______ _______ _____ _____    ______ ____
ROOT
ATOM      1  C   UNL     1       2.615   8.941  -5.175  0.00  0.00    +0.222 A 
ATOM      2  C   UNL     1       1.324   8.947  -5.776  0.00  0.00    +0.235 A 
ATOM      3  O   UNL     1       1.163   9.302  -6.932  0.00  0.00    -0.283 OA
ATOM      4  C   UNL     1       0.189   8.521  -4.939  0.00  0.00    +0.068 A 
ATOM      5  C   UNL     1      -1.116   8.508  -5.434  0.00  0.00    +0.019 A 
ATOM      6  C   UNL     1      -2.142   8.107  -4.628  0.00  0.00    +0.046 A 
ATOM      7  C   UNL     1      -1.894   7.712  -3.315  0.00  0.00    +0.122 A 
ATOM      8  C   UNL     1      -0.605   7.719  -2.808  0.00  0.00    +0.020 A 
ATOM      9  C   UNL     1       0.449   8.129  -3.614  0.00  0.00    +0.144 A 
ATOM     10  O   UNL     1       1.712   8.150  -3.144  0.00  0.00    -0.447 OA
ATOM     11  C   UNL     1       2.751   8.540  -3.895  0.00  0.00    +0.254 A 
ENDROOT
BRANCH  11  12
ATOM     12  C   UNL     1       4.128   8.532  -3.284  0.00  0.00    +0.454 C 
ATOM     13  F   UNL     1       4.381   9.772  -2.688  0.00  0.00    -0.163 F 
ATOM     14  F   UNL     1       4.201   7.525  -2.315  0.00  0.00    -0.163 F 
ATOM     15  F   UNL     1       5.079   8.290  -4.280  0.00  0.00    -0.163 F 
ENDBRANCH  11  12
BRANCH   7  16
ATOM     16  O   UNL     1      -2.925   7.316  -2.525  0.00  0.00    -0.506 OA
ATOM     17  H   UNL     1      -3.335   8.034  -2.024  0.00  0.00    +0.292 HD
ENDBRANCH   7  16
BRANCH   1  18
ATOM     18  O   UNL     1       3.706   9.327  -5.892  0.00  0.00    -0.448 OA
BRANCH  18  22
ATOM     19  C   UNL     1       7.384   8.132  -8.869  0.00  0.00    +0.045 C 
ATOM     20  C   UNL     1       6.170   7.757  -8.060  0.00  0.00    -0.028 A 
ATOM     21  C   UNL     1       5.492   8.723  -7.343  0.00  0.00    +0.051 A 
ATOM     22  C   UNL     1       4.374   8.377  -6.598  0.00  0.00    +0.129 A 
ATOM     23  C   UNL     1       3.943   7.059  -6.570  0.00  0.00    +0.051 A 
ATOM     24  C   UNL     1       4.620   6.096  -7.293  0.00  0.00    -0.028 A 
ATOM     25  C   UNL     1       5.734   6.443  -8.036  0.00  0.00    +0.047 A 
ATOM     26 CL   UNL     1       6.588   5.230  -8.938  0.00  0.00    -0.083 Cl
ATOM     27  C   UNL     1       4.148   4.665  -7.268  0.00  0.00    +0.045 C 
ENDBRANCH  18  22
ENDBRANCH   1  18
BRANCH   8  28
ATOM     28  C   UNL     1      -0.349   7.290  -1.387  0.00  0.00    -0.035 C 
BRANCH  28  30
ATOM     29  C   UNL     1       1.161   5.516  -2.047  0.00  0.00    -0.095 C 
ATOM     30  N   UNL     1      -0.112   5.831  -1.365  0.00  0.00    +0.383 N 
ATOM     31  H   UNL     1      -0.880   5.361  -1.858  0.00  0.00    -0.081 HD
BRANCH  30  32
ATOM     32  C   UNL     1      -0.070   5.347   0.031  0.00  0.00    -0.043 C 
BRANCH  32  33
ATOM     33  C   UNL     1      -0.050   3.840   0.023  0.00  0.00    -0.064 A 
ATOM     34  C   UNL     1       1.156   3.165   0.008  0.00  0.00    +0.002 A 
ATOM     35  C   UNL     1       1.175   1.783   0.000  0.00  0.00    +0.000 A 
ATOM     36  C   UNL     1      -0.013   1.076   0.008  0.00  0.00    +0.000 A 
ATOM     37  C   UNL     1      -1.219   1.751   0.017  0.00  0.00    +0.000 A 
ATOM     38  C   UNL     1      -1.238   3.133   0.030  0.00  0.00    +0.002 A 
ENDBRANCH  32  33
ENDBRANCH  30  32
ENDBRANCH  28  30
ENDBRANCH   8  28
TORSDOF 8
