REMARK  Name = ZINC11621007
REMARK  7 active torsions:
REMARK  status: ('A' for Active; 'I' for Inactive)
REMARK    1  A    between atoms: C_3  and  S_24
REMARK    2  A    between atoms: C_6  and  N_7
REMARK    3  A    between atoms: C_8  and  C_10
REMARK    4  A    between atoms: C_10  and  N_11
REMARK    5  A    between atoms: N_11  and  C_12
REMARK    6  A    between atoms: C_17  and  N_18
REMARK    7  A    between atoms: S_24  and  N_27
REMARK                            x       y       z     vdW  Elec       q    Type
REMARK                         _______ _______ _______ _____ _____    ______ ____
ROOT
ATOM      1  N   UNL     1      -1.065   0.903  -1.297  0.00  0.00    -0.284 N 
ATOM      2  C   UNL     1       0.226   0.515  -1.275  0.00  0.00    +0.234 C 
ATOM      3  O   UNL     1       0.515  -0.641  -1.498  0.00  0.00    -0.274 OA
ATOM      4  H   UNL     1      -1.302   1.812  -1.053  0.00  0.00    +0.155 HD
ENDROOT
BRANCH   1  10
ATOM      5  C   UNL     1      -3.171   0.434  -2.382  0.00  0.00    +0.025 A 
ATOM      6  C   UNL     1      -4.150  -0.465  -2.755  0.00  0.00    +0.030 A 
ATOM      7  C   UNL     1      -4.034  -1.799  -2.410  0.00  0.00    +0.105 A 
ATOM      8  C   UNL     1      -2.934  -2.238  -1.696  0.00  0.00    +0.030 A 
ATOM      9  C   UNL     1      -1.948  -1.345  -1.326  0.00  0.00    +0.025 A 
ATOM     10  C   UNL     1      -2.062  -0.004  -1.671  0.00  0.00    +0.034 A 
BRANCH   7  11
ATOM     11  S   UNL     1      -5.289  -2.942  -2.882  0.00  0.00    +0.056 S 
ATOM     12  O   UNL     1      -5.943  -2.383  -4.013  0.00  0.00    -0.153 OA
ATOM     13  O   UNL     1      -4.679  -4.225  -2.913  0.00  0.00    -0.153 OA
BRANCH  11  14
ATOM     14  N   UNL     1      -6.404  -2.977  -1.659  0.00  0.00    -0.204 NA
ATOM     15  H   UNL     1      -7.335  -3.166  -1.856  0.00  0.00    +0.144 HD
ATOM     16  H   UNL     1      -6.127  -2.809  -0.745  0.00  0.00    +0.144 HD
ENDBRANCH  11  14
ENDBRANCH   7  11
ENDBRANCH   1  10
BRANCH   2  17
ATOM     17  C   UNL     1       1.309   1.520  -0.980  0.00  0.00    +0.198 C 
BRANCH  17  18
ATOM     18  N   UNL     1       2.615   0.856  -1.021  0.00  0.00    -0.334 N 
ATOM     19  H   UNL     1       2.671  -0.092  -1.218  0.00  0.00    +0.147 HD
BRANCH  18  20
ATOM     20  C   UNL     1       3.782   1.591  -0.777  0.00  0.00    +0.050 A 
ATOM     21  C   UNL     1       3.702   2.941  -0.472  0.00  0.00    +0.044 A 
ATOM     22  C   UNL     1       4.856   3.664  -0.231  0.00  0.00    +0.043 A 
ATOM     23  C   UNL     1       6.092   3.044  -0.292  0.00  0.00    +0.022 A 
ATOM     24  C   UNL     1       6.179   1.698  -0.596  0.00  0.00    +0.026 A 
ATOM     25  C   UNL     1       5.027   0.964  -0.833  0.00  0.00    +0.051 A 
ATOM     26 CL   UNL     1       4.755   5.355   0.150  0.00  0.00    -0.083 Cl
BRANCH  25  27
ATOM     27  N   UNL     1       5.113  -0.401  -1.135  0.00  0.00    -0.328 N 
ATOM     28  C   UNL     1       6.529  -0.842  -1.204  0.00  0.00    +0.105 C 
ATOM     29  C   UNL     1       6.432  -2.377  -1.012  0.00  0.00    +0.020 C 
ATOM     30  C   UNL     1       5.299  -2.523   0.029  0.00  0.00    +0.020 C 
ATOM     31  C   UNL     1       4.487  -1.219  -0.074  0.00  0.00    +0.105 C 
ENDBRANCH  25  27
ENDBRANCH  18  20
ENDBRANCH  17  18
ENDBRANCH   2  17
TORSDOF 7
