REMARK  Name = ZINC06191664
REMARK  5 active torsions:
REMARK  status: ('A' for Active; 'I' for Inactive)
REMARK    1  A    between atoms: C_11  and  N_27
REMARK    2  A    between atoms: C_13  and  N_60
REMARK    3  A    between atoms: C_20  and  C_22
REMARK    4  A    between atoms: N_27  and  S_28
REMARK    5  A    between atoms: S_28  and  C_31
REMARK                            x       y       z     vdW  Elec       q    Type
REMARK                         _______ _______ _______ _____ _____    ______ ____
ROOT
ATOM      1  C   UNL     1       6.422   9.914   0.504  0.00  0.00    +0.001 A 
ATOM      2  C   UNL     1       7.689   9.415   0.403  0.00  0.00    +0.008 A 
ATOM      3  C   UNL     1       7.907   8.059   0.696  0.00  0.00    -0.017 A 
ATOM      4  C   UNL     1       9.163   7.421   0.632  0.00  0.00    +0.008 A 
ATOM      5  C   UNL     1       9.245   6.095   0.942  0.00  0.00    +0.001 A 
ATOM      6  C   UNL     1       8.129   5.346   1.321  0.00  0.00    +0.003 A 
ATOM      7  C   UNL     1       6.901   5.930   1.394  0.00  0.00    -0.051 A 
ATOM      8  C   UNL     1       6.799   7.283   1.081  0.00  0.00    -0.012 A 
ATOM      9  C   UNL     1       5.514   7.806   1.179  0.00  0.00    -0.022 A 
ATOM     10  C   UNL     1       5.337   9.124   0.888  0.00  0.00    +0.006 A 
ATOM     11  C   UNL     1       4.603   6.684   1.614  0.00  0.00    +0.098 C 
ATOM     12  C   UNL     1       5.517   5.447   1.755  0.00  0.00    -0.014 C 
ENDROOT
BRANCH  12  20
ATOM     13  C   UNL     1       5.555   4.665  -0.536  0.00  0.00    -0.059 C 
ATOM     14  C   UNL     1       4.940   3.643  -1.498  0.00  0.00    +0.089 C 
ATOM     15  N   UNL     1       5.241   2.292  -0.999  0.00  0.00    -0.299 N 
ATOM     16  C   UNL     1       4.923   1.981   0.403  0.00  0.00    +0.089 C 
ATOM     17  C   UNL     1       5.543   3.071   1.291  0.00  0.00    -0.059 C 
ATOM     18  C   UNL     1       5.789   1.363  -1.807  0.00  0.00    +0.282 C 
ATOM     19  O   UNL     1       6.149   1.667  -2.928  0.00  0.00    -0.267 OA
ATOM     20  N   UNL     1       5.059   4.390   0.830  0.00  0.00    +0.388 N 
ATOM     21  H   UNL     1       4.033   4.381   0.816  0.00  0.00    -0.081 HD
BRANCH  18  22
ATOM     22  C   UNL     1       5.951  -0.016  -1.333  0.00  0.00    +0.189 A 
ATOM     23  C   UNL     1       6.606  -1.018  -1.990  0.00  0.00    +0.054 A 
ATOM     24  C   UNL     1       6.515  -2.160  -1.178  0.00  0.00    +0.042 A 
ATOM     25  C   UNL     1       5.816  -1.809  -0.076  0.00  0.00    +0.196 A 
ATOM     26  O   UNL     1       5.478  -0.517  -0.173  0.00  0.00    -0.458 OA
ENDBRANCH  18  22
ENDBRANCH  12  20
BRANCH  11  27
ATOM     27  N   UNL     1       3.575   6.442   0.598  0.00  0.00    -0.184 NA
ATOM     28  H   UNL     1       3.784   5.911  -0.186  0.00  0.00    +0.149 HD
BRANCH  27  29
ATOM     29  S   UNL     1       2.057   7.076   0.789  0.00  0.00    +0.059 S 
ATOM     30  O   UNL     1       1.310   6.693  -0.358  0.00  0.00    -0.153 OA
ATOM     31  O   UNL     1       1.645   6.752   2.109  0.00  0.00    -0.153 OA
BRANCH  29  32
ATOM     32  C   UNL     1       2.213   8.830   0.726  0.00  0.00    +0.105 A 
ATOM     33  C   UNL     1       2.430   9.546   1.888  0.00  0.00    +0.030 A 
ATOM     34  C   UNL     1       2.558  10.922   1.839  0.00  0.00    +0.022 A 
ATOM     35  C   UNL     1       2.459  11.582   0.627  0.00  0.00    +0.041 A 
ATOM     36  C   UNL     1       2.236  10.865  -0.535  0.00  0.00    +0.022 A 
ATOM     37  C   UNL     1       2.114   9.489  -0.485  0.00  0.00    +0.030 A 
ATOM     38 CL   UNL     1       2.612  13.310   0.566  0.00  0.00    -0.084 Cl
ENDBRANCH  29  32
ENDBRANCH  27  29
ENDBRANCH  11  27
TORSDOF 5
