REMARK  Name = ZINC15961474
REMARK  17 active torsions:
REMARK  status: ('A' for Active; 'I' for Inactive)
REMARK    1  A    between atoms: C_1  and  C_2
REMARK    2  A    between atoms: C_2  and  C_3
REMARK    3  A    between atoms: C_3  and  N_4
REMARK    4  A    between atoms: N_4  and  C_5
REMARK    5  A    between atoms: N_4  and  C_8
REMARK    6  A    between atoms: C_5  and  C_6
REMARK    7  A    between atoms: C_6  and  C_7
REMARK    8  A    between atoms: C_8  and  C_9
REMARK    9  A    between atoms: C_9  and  C_10
REMARK   10  A    between atoms: C_10  and  N_11
REMARK   11  A    between atoms: N_11  and  C_12
REMARK   12  A    between atoms: C_12  and  N_14
REMARK   13  A    between atoms: N_14  and  C_15
REMARK   14  A    between atoms: C_21  and  C_33
REMARK   15  A    between atoms: C_23  and  N_25
REMARK   16  A    between atoms: N_28  and  C_31
REMARK   17  A    between atoms: C_31  and  C_32
REMARK                            x       y       z     vdW  Elec       q    Type
REMARK                         _______ _______ _______ _____ _____    ______ ____
ROOT
ATOM      1  C   UNL     1       4.447  -8.897  -3.869  0.00  0.00    +0.033 A 
ATOM      2  C   UNL     1       5.346  -8.185  -4.671  0.00  0.00    +0.025 A 
ATOM      3  C   UNL     1       6.221  -8.834  -5.486  0.00  0.00    +0.030 A 
ATOM      4  C   UNL     1       6.229 -10.239  -5.532  0.00  0.00    +0.073 A 
ATOM      5  C   UNL     1       5.322 -10.964  -4.723  0.00  0.00    +0.005 A 
ATOM      6  C   UNL     1       4.433 -10.274  -3.885  0.00  0.00    +0.033 A 
ATOM      7  C   UNL     1       5.334 -12.374  -4.772  0.00  0.00    -0.038 A 
ATOM      8  C   UNL     1       6.225 -12.983  -5.603  0.00  0.00    +0.047 A 
ATOM      9  C   UNL     1       7.098 -12.209  -6.379  0.00  0.00    +0.122 A 
ATOM     10  N   UNL     1       7.083 -10.893  -6.329  0.00  0.00    -0.232 NA
ATOM     11  C   UNL     1       4.385 -13.184  -3.927  0.00  0.00    +0.044 C 
ENDROOT
BRANCH   9  12
ATOM     12  N   UNL     1       8.001 -12.844  -7.221  0.00  0.00    -0.319 N 
ATOM     13  C   UNL     1       9.083 -12.093  -7.875  0.00  0.00    +0.088 C 
ATOM     14  C   UNL     1      10.404 -12.827  -7.625  0.00  0.00    -0.060 C 
ATOM     15  N   UNL     1      10.280 -14.221  -8.069  0.00  0.00    +0.382 N 
ATOM     16  C   UNL     1       9.279 -14.919  -7.252  0.00  0.00    -0.060 C 
ATOM     17  C   UNL     1       7.906 -14.289  -7.479  0.00  0.00    +0.088 C 
ATOM     18  H   UNL     1       9.995 -14.240  -9.037  0.00  0.00    -0.082 HD
BRANCH  15  19
ATOM     19  C   UNL     1      11.578 -14.895  -7.931  0.00  0.00    -0.082 C 
ATOM     20  C   UNL     1      11.483 -16.308  -8.509  0.00  0.00    -0.017 C 
ENDBRANCH  15  19
ENDBRANCH   9  12
BRANCH   1  21
ATOM     21  N   UNL     1       3.558  -8.203  -3.040  0.00  0.00    -0.297 N 
ATOM     22  H   UNL     1       3.384  -8.523  -2.141  0.00  0.00    +0.154 HD
BRANCH  21  23
ATOM     23  C   UNL     1       2.945  -7.090  -3.490  0.00  0.00    +0.135 C 
ATOM     24  S   UNL     1       3.148  -6.601  -5.118  0.00  0.00    -0.019 S 
BRANCH  23  25
ATOM     25  N   UNL     1       2.172  -6.364  -2.659  0.00  0.00    -0.326 N 
ATOM     26  H   UNL     1       2.058  -6.641  -1.736  0.00  0.00    +0.148 HD
BRANCH  25  27
ATOM     27  C   UNL     1       1.506  -5.154  -3.148  0.00  0.00    +0.101 C 
BRANCH  27  28
ATOM     28  C   UNL     1       0.698  -4.522  -2.013  0.00  0.00    +0.000 C 
BRANCH  28  29
ATOM     29  C   UNL     1       0.002  -3.260  -2.524  0.00  0.00    -0.077 C 
BRANCH  29  30
ATOM     30  N   UNL     1      -0.877  -2.726  -1.475  0.00  0.00    +0.380 N 
ATOM     31  H   UNL     1      -1.550  -3.430  -1.211  0.00  0.00    -0.082 HD
BRANCH  30  32
ATOM     32  C   UNL     1      -0.072  -2.354  -0.304  0.00  0.00    -0.079 C 
BRANCH  32  34
ATOM     33  C   UNL     1      -0.160  -1.528   2.053  0.00  0.00    +0.002 C 
ATOM     34  C   UNL     1      -0.998  -1.916   0.833  0.00  0.00    -0.022 C 
ENDBRANCH  32  34
ENDBRANCH  30  32
BRANCH  30  35
ATOM     35  C   UNL     1      -1.582  -1.541  -1.982  0.00  0.00    -0.079 C 
BRANCH  35  36
ATOM     36  C   UNL     1      -2.567  -1.962  -3.075  0.00  0.00    -0.022 C 
ATOM     37  C   UNL     1      -3.268  -0.722  -3.634  0.00  0.00    +0.002 C 
ENDBRANCH  35  36
ENDBRANCH  30  35
ENDBRANCH  29  30
ENDBRANCH  28  29
ENDBRANCH  27  28
ENDBRANCH  25  27
ENDBRANCH  23  25
ENDBRANCH  21  23
ENDBRANCH   1  21
TORSDOF 13
