REMARK  Name = ZINC45488121
REMARK  8 active torsions:
REMARK  status: ('A' for Active; 'I' for Inactive)
REMARK    1  A    between atoms: C_1  and  C_2
REMARK    2  A    between atoms: C_2  and  C_3
REMARK    3  A    between atoms: C_2  and  C_4
REMARK    4  A    between atoms: C_4  and  C_6
REMARK    5  A    between atoms: C_4  and  N_21
REMARK    6  A    between atoms: C_6  and  N_7
REMARK    7  A    between atoms: N_10  and  N_11
REMARK    8  A    between atoms: C_12  and  C_14
REMARK                            x       y       z     vdW  Elec       q    Type
REMARK                         _______ _______ _______ _____ _____    ______ ____
ROOT
ATOM      1  N   UNL     1       2.841  -0.372  -0.180  0.00  0.00    -0.297 N 
ATOM      2  C   UNL     1       4.137  -0.065  -0.383  0.00  0.00    +0.316 C 
ATOM      3  O   UNL     1       4.777   0.482   0.494  0.00  0.00    -0.251 OA
ATOM      4  N   UNL     1       4.725  -0.364  -1.558  0.00  0.00    -0.218 N 
ATOM      5  H   UNL     1       2.331  -0.809  -0.880  0.00  0.00    +0.150 HD
ATOM      6  H   UNL     1       5.658  -0.143  -1.704  0.00  0.00    +0.174 HD
ENDROOT
BRANCH   4   7
ATOM      7  N   UNL     1       3.988  -0.995  -2.570  0.00  0.00    -0.229 N 
ATOM      8  C   UNL     1       4.576  -1.294  -3.745  0.00  0.00    +0.260 C 
ATOM      9  O   UNL     1       5.745  -1.017  -3.928  0.00  0.00    -0.269 OA
ATOM     10  H   UNL     1       3.055  -1.216  -2.424  0.00  0.00    +0.173 HD
BRANCH   8  11
ATOM     11  C   UNL     1       3.799  -1.959  -4.812  0.00  0.00    +0.038 A 
ATOM     12  C   UNL     1       2.454  -2.273  -4.607  0.00  0.00    +0.014 A 
ATOM     13  C   UNL     1       1.734  -2.894  -5.606  0.00  0.00    +0.021 A 
ATOM     14  C   UNL     1       2.342  -3.206  -6.810  0.00  0.00    +0.041 A 
ATOM     15  C   UNL     1       3.676  -2.897  -7.019  0.00  0.00    +0.021 A 
ATOM     16  C   UNL     1       4.404  -2.270  -6.030  0.00  0.00    +0.014 A 
ATOM     17 CL   UNL     1       1.429  -3.988  -8.063  0.00  0.00    -0.084 Cl
ENDBRANCH   8  11
ENDBRANCH   4   7
BRANCH   1  18
ATOM     18  C   UNL     1       2.202  -0.047   1.097  0.00  0.00    +0.125 C 
BRANCH  18  19
ATOM     19  C   UNL     1       0.705  -0.353   1.012  0.00  0.00    +0.076 C 
BRANCH  19  20
ATOM     20  N   UNL     1       0.513  -1.732   0.544  0.00  0.00    -0.293 NA
ATOM     21  C   UNL     1      -0.916  -2.068   0.468  0.00  0.00    +0.113 C 
ATOM     22  C   UNL     1      -1.072  -3.490  -0.078  0.00  0.00    +0.175 C 
ATOM     23  O   UNL     1      -0.346  -4.398   0.755  0.00  0.00    -0.377 OA
ATOM     24  C   UNL     1       1.049  -4.100   0.852  0.00  0.00    +0.175 C 
ATOM     25  C   UNL     1       1.227  -2.685   1.407  0.00  0.00    +0.113 C 
ENDBRANCH  19  20
BRANCH  19  27
ATOM     26  C   UNL     1       0.277   2.054   0.494  0.00  0.00    +0.009 C 
ATOM     27  C   UNL     1       0.043   0.615   0.029  0.00  0.00    +0.001 C 
ATOM     28  C   UNL     1       0.649   0.424  -1.362  0.00  0.00    +0.009 C 
ENDBRANCH  19  27
ENDBRANCH  18  19
ENDBRANCH   1  18
TORSDOF 6
