REMARK  Name = ZINC59020739
REMARK  6 active torsions:
REMARK  status: ('A' for Active; 'I' for Inactive)
REMARK    1  A    between atoms: C_1  and  C_2
REMARK    2  A    between atoms: C_2  and  C_19
REMARK    3  A    between atoms: N_3  and  N_4
REMARK    4  A    between atoms: C_7  and  S_10
REMARK    5  A    between atoms: S_10  and  C_11
REMARK    6  A    between atoms: C_11  and  C_12
REMARK                            x       y       z     vdW  Elec       q    Type
REMARK                         _______ _______ _______ _____ _____    ______ ____
ROOT
ATOM      1  N   UNL     1      -1.029  -1.642   1.344  0.00  0.00    -0.205 N 
ATOM      2  C   UNL     1      -1.534  -2.008   2.578  0.00  0.00    +0.232 A 
ATOM      3  N   UNL     1      -1.485  -1.288   3.679  0.00  0.00    -0.186 NA
ATOM      4  C   UNL     1      -2.072  -1.954   4.679  0.00  0.00    +0.210 A 
ATOM      5  N   UNL     1      -2.503  -3.108   4.227  0.00  0.00    -0.144 NA
ATOM      6  N   UNL     1      -2.170  -3.164   2.864  0.00  0.00    -0.245 N 
ATOM      7  H   UNL     1      -1.118  -2.241   0.586  0.00  0.00    +0.177 HD
ATOM      8  H   UNL     1      -2.359  -3.890   2.249  0.00  0.00    +0.192 HD
ENDROOT
BRANCH   1  11
ATOM      9  C   UNL     1       0.815   1.237  -0.140  0.00  0.00    +0.068 C 
ATOM     10  C   UNL     1      -0.010  -0.015   0.009  0.00  0.00    +0.063 C 
ATOM     11  N   UNL     1      -0.389  -0.406   1.188  0.00  0.00    -0.184 NA
BRANCH  10  12
ATOM     12  C   UNL     1      -0.386  -0.797  -1.183  0.00  0.00    -0.002 A 
ATOM     13  C   UNL     1      -1.654  -1.377  -1.270  0.00  0.00    +0.011 A 
ATOM     14  C   UNL     1      -2.000  -2.106  -2.388  0.00  0.00    +0.016 A 
ATOM     15  C   UNL     1      -1.094  -2.264  -3.423  0.00  0.00    +0.018 A 
ATOM     16  C   UNL     1       0.165  -1.692  -3.343  0.00  0.00    +0.016 A 
ATOM     17  C   UNL     1       0.522  -0.956  -2.233  0.00  0.00    +0.011 A 
ATOM     18 BR   UNL     1      -1.577  -3.267  -4.952  0.00  0.00    -0.050 Br
ENDBRANCH  10  12
ENDBRANCH   1  11
BRANCH   4  19
ATOM     19  S   UNL     1      -2.239  -1.377   6.335  0.00  0.00    -0.080 S 
BRANCH  19  20
ATOM     20  C   UNL     1      -3.111  -2.722   7.183  0.00  0.00    +0.112 C 
BRANCH  20  21
ATOM     21  C   UNL     1      -3.321  -2.352   8.629  0.00  0.00    -0.037 A 
ATOM     22  C   UNL     1      -2.365  -2.680   9.572  0.00  0.00    +0.007 A 
ATOM     23  C   UNL     1      -2.556  -2.341  10.898  0.00  0.00    +0.038 A 
ATOM     24  C   UNL     1      -3.706  -1.672  11.282  0.00  0.00    +0.123 A 
ATOM     25  C   UNL     1      -4.663  -1.344  10.336  0.00  0.00    +0.038 A 
ATOM     26  C   UNL     1      -4.467  -1.680   9.010  0.00  0.00    +0.007 A 
ATOM     27  F   UNL     1      -3.894  -1.340  12.578  0.00  0.00    -0.205 F 
ENDBRANCH  20  21
ENDBRANCH  19  20
ENDBRANCH   4  19
TORSDOF 5
