REMARK  Name = ZINC20113950
REMARK  8 active torsions:
REMARK  status: ('A' for Active; 'I' for Inactive)
REMARK    1  A    between atoms: C_1  and  N_2
REMARK    2  A    between atoms: C_9  and  O_24
REMARK    3  A    between atoms: C_11  and  C_13
REMARK    4  A    between atoms: C_13  and  C_14
REMARK    5  A    between atoms: C_14  and  C_17
REMARK    6  A    between atoms: N_15  and  O_16
REMARK    7  A    between atoms: C_22  and  O_23
REMARK    8  A    between atoms: O_24  and  C_25
REMARK                            x       y       z     vdW  Elec       q    Type
REMARK                         _______ _______ _______ _____ _____    ______ ____
ROOT
ATOM      1  C   UNL     1      -0.233   1.177   0.334  0.00  0.00    +0.105 C 
ATOM      2  N   UNL     1       0.008  -0.238   0.021  0.00  0.00    -0.298 NA
ATOM      3  C   UNL     1      -1.256  -0.991  -0.023  0.00  0.00    +0.089 C 
ATOM      4  C   UNL     1      -0.996  -2.337  -0.700  0.00  0.00    +0.051 C 
ATOM      5  C   UNL     1       0.190  -3.013  -0.061  0.00  0.00    -0.034 A 
ATOM      6  C   UNL     1       0.369  -4.372  -0.276  0.00  0.00    +0.053 A 
ATOM      7  C   UNL     1       1.445  -5.037   0.287  0.00  0.00    +0.170 A 
ATOM      8  C   UNL     1       2.354  -4.336   1.073  0.00  0.00    +0.208 A 
ATOM      9  C   UNL     1       2.172  -2.977   1.286  0.00  0.00    +0.170 A 
ATOM     10  C   UNL     1       1.086  -2.315   0.720  0.00  0.00    +0.019 A 
ATOM     11  C   UNL     1       0.925  -0.843   0.992  0.00  0.00    +0.096 C 
ATOM     12  O   UNL     1       3.316  -5.203   1.506  0.00  0.00    -0.449 OA
ATOM     13  C   UNL     1       2.761  -6.518   1.317  0.00  0.00    +0.467 C 
ATOM     14  O   UNL     1       1.835  -6.344   0.228  0.00  0.00    -0.452 OA
ENDROOT
BRANCH   9  15
ATOM     15  O   UNL     1       3.059  -2.288   2.053  0.00  0.00    -0.491 OA
ATOM     16  C   UNL     1       2.863  -2.331   3.468  0.00  0.00    +0.277 C 
ENDBRANCH   9  15
BRANCH  11  17
ATOM     17  C   UNL     1       2.290  -0.158   0.891  0.00  0.00    +0.083 C 
BRANCH  17  18
ATOM     18  C   UNL     1       2.916  -0.480  -0.442  0.00  0.00    +0.092 C 
ATOM     19  N   UNL     1       2.241  -1.134  -1.332  0.00  0.00    -0.091 NA
BRANCH  18  20
ATOM     20  C   UNL     1       4.296  -0.050  -0.731  0.00  0.00    +0.041 A 
ATOM     21  C   UNL     1       5.302  -1.000  -0.924  0.00  0.00    +0.013 A 
ATOM     22  C   UNL     1       6.590  -0.591  -1.194  0.00  0.00    +0.001 A 
ATOM     23  C   UNL     1       6.893   0.758  -1.275  0.00  0.00    +0.004 A 
ATOM     24  C   UNL     1       5.907   1.707  -1.087  0.00  0.00    +0.046 A 
ATOM     25  C   UNL     1       4.605   1.314  -0.821  0.00  0.00    +0.126 A 
BRANCH  25  26
ATOM     26  O   UNL     1       3.634   2.246  -0.641  0.00  0.00    -0.506 OA
ATOM     27  H   UNL     1       3.584   2.593   0.260  0.00  0.00    +0.292 HD
ENDBRANCH  25  26
ENDBRANCH  18  20
BRANCH  19  28
ATOM     28  O   UNL     1       2.856  -1.508  -2.552  0.00  0.00    -0.409 OA
ATOM     29  H   UNL     1       2.274  -1.993  -3.153  0.00  0.00    +0.328 HD
ENDBRANCH  19  28
ENDBRANCH  17  18
ENDBRANCH  11  17
TORSDOF 6
