REMARK  Name = ZINC10291948
REMARK  11 active torsions:
REMARK  status: ('A' for Active; 'I' for Inactive)
REMARK    1  A    between atoms: C_1  and  C_2
REMARK    2  A    between atoms: C_2  and  C_3
REMARK    3  A    between atoms: C_3  and  C_5
REMARK    4  A    between atoms: C_3  and  O_6
REMARK    5  A    between atoms: O_6  and  C_7
REMARK    6  A    between atoms: C_10  and  C_13
REMARK    7  A    between atoms: N_15  and  N_16
REMARK    8  A    between atoms: C_17  and  C_19
REMARK    9  A    between atoms: C_19  and  O_20
REMARK   10  A    between atoms: O_20  and  C_21
REMARK   11  A    between atoms: C_22  and  C_29
REMARK                            x       y       z     vdW  Elec       q    Type
REMARK                         _______ _______ _______ _____ _____    ______ ____
ROOT
ATOM      1  C   UNL     1      -0.171  11.203  -2.963  0.00  0.00    +0.260 C 
ATOM      2  O   UNL     1       0.018  10.745  -4.073  0.00  0.00    -0.269 OA
ATOM      3  N   UNL     1      -0.361  10.376  -1.916  0.00  0.00    -0.230 N 
ATOM      4  H   UNL     1      -0.512  10.741  -1.031  0.00  0.00    +0.173 HD
ENDROOT
BRANCH   1   8
ATOM      5  C   UNL     1      -0.233  15.410  -2.383  0.00  0.00    +0.121 A 
ATOM      6  C   UNL     1      -0.017  14.888  -3.653  0.00  0.00    +0.046 A 
ATOM      7  C   UNL     1       0.004  13.525  -3.845  0.00  0.00    +0.016 A 
ATOM      8  C   UNL     1      -0.193  12.665  -2.761  0.00  0.00    +0.038 A 
ATOM      9  C   UNL     1      -0.416  13.194  -1.487  0.00  0.00    +0.016 A 
ATOM     10  C   UNL     1      -0.430  14.558  -1.302  0.00  0.00    +0.046 A 
BRANCH   5  11
ATOM     11  O   UNL     1      -0.253  16.754  -2.197  0.00  0.00    -0.489 OA
BRANCH  11  12
ATOM     12  C   UNL     1      -0.164  17.571  -3.366  0.00  0.00    +0.170 C 
ATOM     13  C   UNL     1       1.306  17.763  -3.744  0.00  0.00    +0.052 C 
BRANCH  12  15
ATOM     14  C   UNL     1      -2.298  18.755  -2.829  0.00  0.00    +0.007 C 
ATOM     15  C   UNL     1      -0.800  18.934  -3.085  0.00  0.00    +0.041 C 
ENDBRANCH  12  15
ENDBRANCH  11  12
ENDBRANCH   5  11
ENDBRANCH   1   8
BRANCH   3  16
ATOM     16  N   UNL     1      -0.341   8.988  -2.108  0.00  0.00    -0.231 N 
ATOM     17  C   UNL     1      -0.531   8.161  -1.061  0.00  0.00    +0.267 C 
ATOM     18  O   UNL     1      -0.720   8.617   0.046  0.00  0.00    -0.271 OA
ATOM     19  H   UNL     1      -0.190   8.623  -2.994  0.00  0.00    +0.173 HD
BRANCH  17  20
ATOM     20  C   UNL     1      -0.509   6.668  -1.267  0.00  0.00    +0.326 C 
BRANCH  20  21
ATOM     21  O   UNL     1      -0.733   6.011  -0.018  0.00  0.00    -0.481 OA
BRANCH  21  22
ATOM     22  C   UNL     1      -0.744   4.652  -0.028  0.00  0.00    +0.138 A 
ATOM     23  C   UNL     1      -1.932   3.969  -0.239  0.00  0.00    -0.007 A 
ATOM     24  C   UNL     1      -1.940   2.587  -0.255  0.00  0.00    +0.022 A 
ATOM     25  C   UNL     1      -0.766   1.885  -0.048  0.00  0.00    +0.019 A 
ATOM     26  C   UNL     1       0.420   2.564   0.162  0.00  0.00    +0.034 A 
ATOM     27  C   UNL     1       0.434   3.946   0.173  0.00  0.00    +0.061 A 
ATOM     28 BR   UNL     1       2.056   4.874   0.460  0.00  0.00    -0.046 Br
ATOM     29 BR   UNL     1      -0.782  -0.006  -0.062  0.00  0.00    -0.050 Br
ATOM     30  C   UNL     1      -3.213   4.732  -0.457  0.00  0.00    +0.047 C 
ENDBRANCH  21  22
ENDBRANCH  20  21
ENDBRANCH  17  20
ENDBRANCH   3  16
TORSDOF 8
