REMARK  Name = ZINC39679198
REMARK  5 active torsions:
REMARK  status: ('A' for Active; 'I' for Inactive)
REMARK    1  A    between atoms: C_3  and  S_24
REMARK    2  A    between atoms: C_6  and  N_7
REMARK    3  A    between atoms: C_8  and  C_10
REMARK    4  A    between atoms: C_17  and  C_19
REMARK    5  A    between atoms: S_24  and  N_27
REMARK                            x       y       z     vdW  Elec       q    Type
REMARK                         _______ _______ _______ _____ _____    ______ ____
ROOT
ATOM      1  C   UNL     1      -4.234   2.887  -0.189  0.00  0.00    +0.025 A 
ATOM      2  C   UNL     1      -3.757   4.183  -0.162  0.00  0.00    +0.031 A 
ATOM      3  C   UNL     1      -2.482   4.442   0.306  0.00  0.00    +0.113 A 
ATOM      4  C   UNL     1      -1.681   3.406   0.748  0.00  0.00    +0.031 A 
ATOM      5  C   UNL     1      -2.152   2.108   0.724  0.00  0.00    +0.025 A 
ATOM      6  C   UNL     1      -3.432   1.844   0.255  0.00  0.00    +0.034 A 
ENDROOT
BRANCH   6   7
ATOM      7  N   UNL     1      -3.912   0.530   0.229  0.00  0.00    -0.285 N 
ATOM      8  C   UNL     1      -3.061  -0.494   0.024  0.00  0.00    +0.222 C 
ATOM      9  O   UNL     1      -1.867  -0.289  -0.036  0.00  0.00    -0.275 OA
ATOM     10  H   UNL     1      -4.858   0.357   0.358  0.00  0.00    +0.155 HD
BRANCH   8  11
ATOM     11  C   UNL     1      -3.593  -1.896  -0.131  0.00  0.00    +0.096 C 
ATOM     12  C   UNL     1      -2.894  -2.863   0.877  0.00  0.00    +0.025 C 
ATOM     13  C   UNL     1      -3.064  -4.232   0.122  0.00  0.00    +0.016 C 
ATOM     14  C   UNL     1      -2.331  -3.715  -1.169  0.00  0.00    +0.027 C 
ATOM     15  C   UNL     1      -3.215  -2.472  -1.518  0.00  0.00    +0.121 C 
ATOM     16  C   UNL     1      -1.072  -3.114  -0.531  0.00  0.00    -0.027 C 
ATOM     17  C   UNL     1      -1.397  -2.606   0.664  0.00  0.00    -0.027 C 
BRANCH  15  18
ATOM     18  C   UNL     1      -2.425  -1.464  -2.312  0.00  0.00    +0.360 C 
ATOM     19  O   UNL     1      -1.266  -1.696  -2.610  0.00  0.00    -0.246 OA
ATOM     20  O   UNL     1      -2.945  -0.416  -2.656  0.00  0.00    -0.246 OA
ENDBRANCH  15  18
ENDBRANCH   8  11
ENDBRANCH   6   7
BRANCH   3  21
ATOM     21  S   UNL     1      -1.877   6.097   0.337  0.00  0.00    +0.100 S 
ATOM     22  O   UNL     1      -0.459   6.011   0.308  0.00  0.00    -0.146 OA
ATOM     23  O   UNL     1      -2.617   6.819  -0.638  0.00  0.00    -0.146 OA
BRANCH  21  24
ATOM     24  N   UNL     1      -2.282   6.738   1.809  0.00  0.00    -0.118 NA
ATOM     25  C   UNL     1      -1.953   7.955   2.097  0.00  0.00    +0.117 C 
ATOM     26  C   UNL     1      -1.196   8.805   1.079  0.00  0.00    +0.073 C 
ATOM     27  C   UNL     1      -2.145   9.881   0.597  0.00  0.00    +0.008 C 
ATOM     28  C   UNL     1      -2.121  11.145   1.458  0.00  0.00    +0.002 C 
ATOM     29  C   UNL     1      -2.091  10.848   2.958  0.00  0.00    +0.019 C 
ATOM     30  C   UNL     1      -3.031   9.734   3.365  0.00  0.00    +0.102 C 
ATOM     31  N   UNL     1      -2.275   8.468   3.268  0.00  0.00    -0.331 N 
ATOM     32  H   UNL     1      -2.011   8.009   4.081  0.00  0.00    +0.147 HD
ENDBRANCH  21  24
ENDBRANCH   3  21
TORSDOF 5
