REMARK  Name = ZINC15854365
REMARK  9 active torsions:
REMARK  status: ('A' for Active; 'I' for Inactive)
REMARK    1  A    between atoms: C_1  and  N_2
REMARK    2  A    between atoms: N_2  and  C_3
REMARK    3  A    between atoms: N_2  and  S_4
REMARK    4  A    between atoms: S_4  and  C_7
REMARK    5  A    between atoms: C_10  and  N_13
REMARK    6  A    between atoms: C_14  and  C_16
REMARK    7  A    between atoms: C_16  and  C_17
REMARK    8  A    between atoms: C_17  and  C_18
REMARK    9  A    between atoms: C_27  and  C_28
REMARK                            x       y       z     vdW  Elec       q    Type
REMARK                         _______ _______ _______ _____ _____    ______ ____
ROOT
ATOM      1  C   UNL     1       0.553   4.648   0.023  0.00  0.00    +0.047 C 
ENDROOT
BRANCH   1   2
ATOM      2  C   UNL     1       1.532   3.502   0.007  0.00  0.00    -0.014 A 
ATOM      3  C   UNL     1       1.204   2.078  -0.004  0.00  0.00    +0.003 A 
ATOM      4  C   UNL     1       0.004   1.360  -0.003  0.00  0.00    +0.010 A 
ATOM      5  C   UNL     1       0.031  -0.005  -0.015  0.00  0.00    +0.001 A 
ATOM      6  C   UNL     1       1.240  -0.687  -0.029  0.00  0.00    +0.002 A 
ATOM      7  C   UNL     1       2.435  -0.001  -0.030  0.00  0.00    +0.026 A 
ATOM      8  C   UNL     1       2.433   1.390  -0.018  0.00  0.00    +0.047 A 
ATOM      9  N   UNL     1       3.435   2.336  -0.016  0.00  0.00    -0.354 N 
ATOM     10  H   UNL     1       4.385   2.142  -0.025  0.00  0.00    +0.166 HD
ATOM     11  C   UNL     1       2.885   3.597  -0.002  0.00  0.00    +0.051 A 
BRANCH  11  12
ATOM     12  C   UNL     1       3.651   4.862   0.004  0.00  0.00    -0.001 A 
ATOM     13  C   UNL     1       3.286   5.898   0.865  0.00  0.00    +0.013 A 
ATOM     14  C   UNL     1       4.008   7.073   0.870  0.00  0.00    +0.039 A 
ATOM     15  C   UNL     1       5.086   7.231   0.014  0.00  0.00    +0.123 A 
ATOM     16  C   UNL     1       5.450   6.207  -0.846  0.00  0.00    +0.039 A 
ATOM     17  C   UNL     1       4.739   5.025  -0.855  0.00  0.00    +0.013 A 
ATOM     18  F   UNL     1       5.786   8.386   0.019  0.00  0.00    -0.205 F 
ENDBRANCH  11  12
ENDBRANCH   1   2
BRANCH   1  19
ATOM     19  C   UNL     1       0.212   5.048  -1.414  0.00  0.00    +0.101 C 
BRANCH  19  21
ATOM     20  N   UNL     1      -1.213   6.716  -2.557  0.00  0.00    -0.285 N 
ATOM     21  C   UNL     1      -0.767   6.194  -1.397  0.00  0.00    +0.218 C 
ATOM     22  O   UNL     1      -1.154   6.645  -0.340  0.00  0.00    -0.275 OA
ATOM     23  H   UNL     1      -0.853   6.401  -3.401  0.00  0.00    +0.155 HD
BRANCH  20  27
ATOM     24  C   UNL     1      -4.134   9.686  -2.517  0.00  0.00    +0.106 A 
ATOM     25  C   UNL     1      -3.182   9.641  -1.515  0.00  0.00    +0.030 A 
ATOM     26  C   UNL     1      -2.212   8.658  -1.525  0.00  0.00    +0.025 A 
ATOM     27  C   UNL     1      -2.194   7.714  -2.543  0.00  0.00    +0.033 A 
ATOM     28  C   UNL     1      -3.148   7.765  -3.551  0.00  0.00    +0.025 A 
ATOM     29  C   UNL     1      -4.119   8.747  -3.532  0.00  0.00    +0.030 A 
BRANCH  24  30
ATOM     30  S   UNL     1      -5.370  10.942  -2.500  0.00  0.00    +0.060 S 
ATOM     31  O   UNL     1      -6.469  10.440  -3.247  0.00  0.00    -0.153 OA
ATOM     32  O   UNL     1      -5.496  11.369  -1.151  0.00  0.00    -0.153 OA
BRANCH  30  34
ATOM     33  C   UNL     1      -5.000  12.328  -4.793  0.00  0.00    +0.131 C 
ATOM     34  N   UNL     1      -4.769  12.231  -3.350  0.00  0.00    -0.183 NA
ATOM     35  C   UNL     1      -4.008  13.274  -2.658  0.00  0.00    +0.131 C 
ENDBRANCH  30  34
ENDBRANCH  24  30
ENDBRANCH  20  27
ENDBRANCH  19  21
ENDBRANCH   1  19
TORSDOF 7
