REMARK  Name = ZINC27836947
REMARK  6 active torsions:
REMARK  status: ('A' for Active; 'I' for Inactive)
REMARK    1  A    between atoms: C_1  and  N_2
REMARK    2  A    between atoms: N_2  and  S_3
REMARK    3  A    between atoms: S_3  and  C_6
REMARK    4  A    between atoms: C_10  and  C_12
REMARK    5  A    between atoms: N_14  and  C_15
REMARK    6  A    between atoms: C_20  and  C_23
REMARK                            x       y       z     vdW  Elec       q    Type
REMARK                         _______ _______ _______ _____ _____    ______ ____
ROOT
ATOM      1  C   UNL     1      -0.018   1.474   0.010  0.00  0.00    +0.244 C 
ATOM      2  O   UNL     1      -1.079   2.068   0.018  0.00  0.00    -0.270 OA
ATOM      3  N   UNL     1       1.140   2.164   0.003  0.00  0.00    -0.308 N 
ATOM      4  H   UNL     1       2.100   1.627  -0.009  0.00  0.00    +0.149 HD
ENDROOT
BRANCH   1   9
ATOM      5  C   UNL     1      -1.170  -2.100   0.002  0.00  0.00    +0.106 A 
ATOM      6  C   UNL     1       0.040  -2.773  -0.013  0.00  0.00    +0.028 A 
ATOM      7  C   UNL     1       1.230  -2.068  -0.020  0.00  0.00    +0.003 A 
ATOM      8  C   UNL     1       1.218  -0.688  -0.019  0.00  0.00    +0.013 A 
ATOM      9  C   UNL     1       0.002  -0.004   0.002  0.00  0.00    +0.039 A 
ATOM     10  C   UNL     1      -1.195  -0.721   0.010  0.00  0.00    +0.041 A 
BRANCH   5  11
ATOM     11  S   UNL     1      -2.680  -3.008   0.011  0.00  0.00    +0.058 S 
ATOM     12  O   UNL     1      -2.382  -4.288   0.552  0.00  0.00    -0.153 OA
ATOM     13  O   UNL     1      -3.664  -2.153   0.575  0.00  0.00    -0.153 OA
BRANCH  11  15
ATOM     14  C   UNL     1      -2.276  -4.080  -2.439  0.00  0.00    +0.127 C 
ATOM     15  N   UNL     1      -3.114  -3.252  -1.568  0.00  0.00    -0.193 NA
ATOM     16  H   UNL     1      -3.936  -2.660  -1.997  0.00  0.00    +0.148 HD
ENDBRANCH  11  15
ENDBRANCH   5  11
ENDBRANCH   1   9
BRANCH   3  17
ATOM     17  C   UNL     1       1.120   3.629   0.011  0.00  0.00    +0.074 C 
ATOM     18  C   UNL     1       1.001   4.129   1.452  0.00  0.00    +0.022 C 
ATOM     19  C   UNL     1       0.980   5.659   1.460  0.00  0.00    +0.002 C 
ATOM     20  C   UNL     1       2.275   6.190   0.841  0.00  0.00    +0.012 C 
ATOM     21  C   UNL     1       2.394   5.690  -0.600  0.00  0.00    +0.095 C 
ATOM     22  C   UNL     1       2.414   4.160  -0.608  0.00  0.00    +0.034 C 
BRANCH  21  23
ATOM     23  C   UNL     1       3.688   6.221  -1.219  0.00  0.00    +0.393 C 
ATOM     24  F   UNL     1       3.797   5.763  -2.537  0.00  0.00    -0.170 F 
ATOM     25  F   UNL     1       3.669   7.620  -1.211  0.00  0.00    -0.170 F 
ATOM     26  F   UNL     1       4.782   5.765  -0.475  0.00  0.00    -0.170 F 
ENDBRANCH  21  23
ENDBRANCH   3  17
TORSDOF 5
