REMARK  Name = ZINC17287198
REMARK  11 active torsions:
REMARK  status: ('A' for Active; 'I' for Inactive)
REMARK    1  A    between atoms: C_1  and  C_2
REMARK    2  A    between atoms: C_2  and  C_3
REMARK    3  A    between atoms: C_3  and  S_4
REMARK    4  A    between atoms: S_4  and  C_5
REMARK    5  A    between atoms: C_16  and  C_18
REMARK    6  A    between atoms: C_21  and  O_26
REMARK    7  A    between atoms: C_22  and  O_24
REMARK    8  A    between atoms: O_24  and  C_25
REMARK    9  A    between atoms: O_26  and  C_27
REMARK   10  A    between atoms: C_31  and  C_33
REMARK   11  A    between atoms: C_31  and  C_34
REMARK                            x       y       z     vdW  Elec       q    Type
REMARK                         _______ _______ _______ _____ _____    ______ ____
ROOT
ATOM      1  C   UNL     1      -0.028   4.203   0.017  0.00  0.00    +0.171 A 
ATOM      2  N   UNL     1      -1.216   3.536   0.029  0.00  0.00    -0.302 N 
ATOM      3  H   UNL     1      -2.049   4.032   0.041  0.00  0.00    +0.171 HD
ATOM      4  C   UNL     1      -1.236   2.186   0.020  0.00  0.00    +0.258 A 
ATOM      5  O   UNL     1      -2.295   1.580   0.024  0.00  0.00    -0.267 OA
ATOM      6  C   UNL     1      -0.018   1.495   0.010  0.00  0.00    +0.069 A 
ATOM      7  C   UNL     1       1.161   2.220   0.003  0.00  0.00    +0.135 A 
ATOM      8  N   UNL     1       1.120   3.557   0.004  0.00  0.00    -0.208 NA
ATOM      9  N   UNL     1       2.372   1.556  -0.005  0.00  0.00    -0.302 N 
ATOM     10  C   UNL     1       2.451   0.247   0.385  0.00  0.00    +0.017 C 
ATOM     11  C   UNL     1       1.353  -0.538   0.406  0.00  0.00    +0.024 C 
ATOM     12  C   UNL     1       0.002  -0.004   0.002  0.00  0.00    +0.093 C 
ATOM     13  C   UNL     1       1.434  -1.885   0.803  0.00  0.00    +0.162 C 
ATOM     14  O   UNL     1       0.424  -2.560   0.828  0.00  0.00    -0.292 OA
ATOM     15  C   UNL     1       2.746  -2.506   1.197  0.00  0.00    +0.086 C 
ATOM     16  C   UNL     1       3.880  -1.784   0.461  0.00  0.00    -0.023 C 
ATOM     17  C   UNL     1       3.799  -0.293   0.795  0.00  0.00    +0.058 C 
ATOM     18  C   UNL     1       3.724  -1.983  -1.048  0.00  0.00    +0.011 C 
ATOM     19  C   UNL     1       5.229  -2.342   0.918  0.00  0.00    +0.011 C 
ATOM     20  H   UNL     1       3.173   2.022  -0.290  0.00  0.00    +0.153 HD
ENDROOT
BRANCH  12  21
ATOM     21  C   UNL     1      -0.327  -0.494  -1.385  0.00  0.00    -0.032 A 
ATOM     22  C   UNL     1       0.473  -0.132  -2.452  0.00  0.00    +0.008 A 
ATOM     23  C   UNL     1       0.178  -0.584  -3.725  0.00  0.00    +0.050 A 
ATOM     24  C   UNL     1      -0.928  -1.391  -3.935  0.00  0.00    +0.162 A 
ATOM     25  C   UNL     1      -1.737  -1.751  -2.861  0.00  0.00    +0.162 A 
ATOM     26  C   UNL     1      -1.432  -1.300  -1.587  0.00  0.00    +0.054 A 
BRANCH  25  27
ATOM     27  O   UNL     1      -2.824  -2.543  -3.062  0.00  0.00    -0.491 OA
ATOM     28  C   UNL     1      -3.608  -2.872  -1.914  0.00  0.00    +0.277 C 
ENDBRANCH  25  27
BRANCH  24  29
ATOM     29  O   UNL     1      -1.223  -1.831  -5.188  0.00  0.00    -0.491 OA
ATOM     30  C   UNL     1      -0.348  -1.423  -6.241  0.00  0.00    +0.277 C 
ENDBRANCH  24  29
ENDBRANCH  12  21
BRANCH   1  31
ATOM     31  S   UNL     1      -0.028   5.965   0.017  0.00  0.00    -0.088 S 
BRANCH  31  32
ATOM     32  C   UNL     1       1.755   6.279  -0.001  0.00  0.00    +0.077 C 
BRANCH  32  34
ATOM     33  C   UNL     1       3.514   8.053  -0.019  0.00  0.00    +0.004 C 
ATOM     34  C   UNL     1       2.007   7.788  -0.003  0.00  0.00    +0.008 C 
ENDBRANCH  32  34
ENDBRANCH  31  32
ENDBRANCH   1  31
TORSDOF 6
