REMARK  Name = ZINC01149638
REMARK  9 active torsions:
REMARK  status: ('A' for Active; 'I' for Inactive)
REMARK    1  A    between atoms: C_1  and  C_2
REMARK    2  A    between atoms: C_2  and  C_4
REMARK    3  A    between atoms: C_2  and  O_13
REMARK    4  A    between atoms: C_4  and  C_6
REMARK    5  A    between atoms: O_13  and  C_14
REMARK    6  A    between atoms: C_14  and  C_16
REMARK    7  A    between atoms: C_19  and  N_22
REMARK    8  A    between atoms: C_23  and  C_25
REMARK    9  A    between atoms: C_29  and  N_31
REMARK                            x       y       z     vdW  Elec       q    Type
REMARK                         _______ _______ _______ _____ _____    ______ ____
ROOT
ATOM      1  C   UNL     1       7.065   0.674   1.333  0.00  0.00    +0.059 A 
ATOM      2  C   UNL     1       6.995  -0.716   1.204  0.00  0.00    +0.017 A 
ATOM      3  C   UNL     1       8.079  -1.493   1.546  0.00  0.00    +0.024 A 
ATOM      4  C   UNL     1       9.239  -0.896   2.029  0.00  0.00    +0.034 A 
ATOM      5  C   UNL     1       9.310   0.487   2.164  0.00  0.00    +0.024 A 
ATOM      6  C   UNL     1       8.232   1.270   1.819  0.00  0.00    +0.017 A 
ENDROOT
BRANCH   4   7
ATOM      7  N   UNL     1      10.333  -1.685   2.380  0.00  0.00    -0.282 N 
ATOM      8  C   UNL     1      10.592  -2.818   1.698  0.00  0.00    +0.248 C 
ATOM      9  O   UNL     1       9.932  -3.102   0.718  0.00  0.00    -0.270 OA
ATOM     10  H   UNL     1      10.907  -1.419   3.115  0.00  0.00    +0.155 HD
BRANCH   8  11
ATOM     11  C   UNL     1      11.680  -3.716   2.142  0.00  0.00    +0.039 A 
ATOM     12  C   UNL     1      12.440  -3.392   3.267  0.00  0.00    +0.013 A 
ATOM     13  C   UNL     1      13.453  -4.234   3.676  0.00  0.00    +0.003 A 
ATOM     14  C   UNL     1      13.716  -5.397   2.974  0.00  0.00    +0.033 A 
ATOM     15  C   UNL     1      12.966  -5.724   1.858  0.00  0.00    +0.127 A 
ATOM     16  C   UNL     1      11.947  -4.893   1.441  0.00  0.00    +0.045 A 
BRANCH  15  17
ATOM     17  N   UNL     1      13.254  -6.970   1.114  0.00  0.00    +0.056 N 
ATOM     18  O   UNL     1      14.150  -7.707   1.484  0.00  0.00    -0.126 OA
ATOM     19  O   UNL     1      12.595  -7.259   0.132  0.00  0.00    -0.126 OA
ENDBRANCH  15  17
ENDBRANCH   8  11
ENDBRANCH   4   7
BRANCH   1  20
ATOM     20  C   UNL     1       5.907   1.510   0.962  0.00  0.00    +0.340 C 
ATOM     21  O   UNL     1       5.968   2.717   1.079  0.00  0.00    -0.245 OA
BRANCH  20  22
ATOM     22  O   UNL     1       4.783   0.933   0.494  0.00  0.00    -0.450 OA
BRANCH  22  24
ATOM     23  C   UNL     1       3.805   2.232  -1.319  0.00  0.00    +0.061 C 
ATOM     24  C   UNL     1       3.684   1.817   0.149  0.00  0.00    +0.244 C 
BRANCH  24  25
ATOM     25  C   UNL     1       2.376   1.099   0.362  0.00  0.00    +0.203 C 
ATOM     26  O   UNL     1       2.361  -0.106   0.497  0.00  0.00    -0.288 OA
BRANCH  25  27
ATOM     27  C   UNL     1       1.117   1.860   0.405  0.00  0.00    +0.023 A 
ATOM     28  C   UNL     1       1.131   3.250   0.248  0.00  0.00    +0.011 A 
ATOM     29  C   UNL     1      -0.053   3.957   0.289  0.00  0.00    +0.002 A 
ATOM     30  C   UNL     1      -1.252   3.295   0.485  0.00  0.00    +0.020 A 
ATOM     31  C   UNL     1      -1.275   1.918   0.635  0.00  0.00    +0.042 A 
ATOM     32  C   UNL     1      -0.098   1.198   0.602  0.00  0.00    +0.031 A 
ATOM     33 CL   UNL     1      -2.786   1.098   0.873  0.00  0.00    -0.084 Cl
ENDBRANCH  25  27
ENDBRANCH  24  25
ENDBRANCH  22  24
ENDBRANCH  20  22
ENDBRANCH   1  20
TORSDOF 8
