REMARK  Name = ZINC51994250
REMARK  6 active torsions:
REMARK  status: ('A' for Active; 'I' for Inactive)
REMARK    1  A    between atoms: C_1  and  C_2
REMARK    2  A    between atoms: C_6  and  N_21
REMARK    3  A    between atoms: C_7  and  S_8
REMARK    4  A    between atoms: S_8  and  N_11
REMARK    5  A    between atoms: N_11  and  C_12
REMARK    6  A    between atoms: C_18  and  O_20
REMARK                            x       y       z     vdW  Elec       q    Type
REMARK                         _______ _______ _______ _____ _____    ______ ____
ROOT
ATOM      1  S   UNL     1       1.450  -0.344   2.594  0.00  0.00    +0.061 S 
ATOM      2  O   UNL     1       1.915  -1.493   3.290  0.00  0.00    -0.153 OA
ATOM      3  O   UNL     1       2.319   0.705   2.189  0.00  0.00    -0.153 OA
ENDROOT
BRANCH   1  10
ATOM      4  C   UNL     1       0.929   1.352   0.146  0.00  0.00    +0.046 C 
ATOM      5  C   UNL     1       0.456  -0.076   0.067  0.00  0.00    -0.022 A 
ATOM      6  C   UNL     1      -0.166  -0.535  -1.080  0.00  0.00    +0.005 A 
ATOM      7  C   UNL     1      -0.602  -1.845  -1.157  0.00  0.00    +0.002 A 
ATOM      8  C   UNL     1      -0.416  -2.700  -0.088  0.00  0.00    +0.025 A 
ATOM      9  C   UNL     1       0.209  -2.243   1.065  0.00  0.00    +0.051 A 
ATOM     10  C   UNL     1       0.650  -0.928   1.137  0.00  0.00    +0.129 A 
BRANCH   9  11
ATOM     11  N   UNL     1       0.399  -3.105   2.147  0.00  0.00    -0.356 N 
ATOM     12  H   UNL     1       0.461  -4.062   2.000  0.00  0.00    +0.142 HD
ATOM     13  H   UNL     1       0.468  -2.747   3.046  0.00  0.00    +0.142 HD
ENDBRANCH   9  11
ENDBRANCH   1  10
BRANCH   1  14
ATOM     14  N   UNL     1       0.287   0.347   3.548  0.00  0.00    -0.184 NA
ATOM     15  H   UNL     1       0.315   1.299   3.735  0.00  0.00    +0.148 HD
BRANCH  14  16
ATOM     16  C   UNL     1      -0.786  -0.478   4.110  0.00  0.00    +0.105 C 
ATOM     17  C   UNL     1      -2.012  -0.411   3.197  0.00  0.00    +0.023 C 
ATOM     18  C   UNL     1      -2.488   1.039   3.088  0.00  0.00    +0.002 C 
ATOM     19  C   UNL     1      -2.858   1.561   4.478  0.00  0.00    +0.003 C 
ATOM     20  C   UNL     1      -1.632   1.494   5.391  0.00  0.00    +0.033 C 
ATOM     21  C   UNL     1      -1.156   0.044   5.500  0.00  0.00    +0.133 C 
BRANCH  21  22
ATOM     22  O   UNL     1      -0.011  -0.019   6.352  0.00  0.00    -0.390 OA
ATOM     23  H   UNL     1      -0.172   0.297   7.252  0.00  0.00    +0.210 HD
ENDBRANCH  21  22
ENDBRANCH  14  16
ENDBRANCH   1  14
TORSDOF 5
