REMARK  Name = ZINC22472693
REMARK  7 active torsions:
REMARK  status: ('A' for Active; 'I' for Inactive)
REMARK    1  A    between atoms: C_9  and  O_10
REMARK    2  A    between atoms: N_12  and  C_13
REMARK    3  A    between atoms: C_13  and  C_14
REMARK    4  A    between atoms: C_14  and  N_15
REMARK    5  A    between atoms: C_21  and  C_23
REMARK    6  A    between atoms: C_26  and  C_28
REMARK    7  A    between atoms: C_32  and  N_34
REMARK                            x       y       z     vdW  Elec       q    Type
REMARK                         _______ _______ _______ _____ _____    ______ ____
ROOT
ATOM      1  N   UNL     1       5.325   8.156  -1.290  0.00  0.00    +0.383 N 
ATOM      2  C   UNL     1       4.659   9.465  -1.301  0.00  0.00    -0.059 C 
ATOM      3  C   UNL     1       3.735   9.574  -0.084  0.00  0.00    +0.089 C 
ATOM      4  N   UNL     1       2.828   8.416  -0.079  0.00  0.00    -0.299 N 
ATOM      5  C   UNL     1       3.416   7.073  -0.198  0.00  0.00    +0.089 C 
ATOM      6  C   UNL     1       4.352   7.062  -1.417  0.00  0.00    -0.059 C 
ATOM      7  C   UNL     1       1.496   8.581   0.036  0.00  0.00    +0.282 C 
ATOM      8  O   UNL     1       0.766   7.609   0.105  0.00  0.00    -0.267 OA
ATOM      9  H   UNL     1       5.828   8.044  -0.318  0.00  0.00    -0.082 HD
ENDROOT
BRANCH   7  10
ATOM     10  C   UNL     1       0.925   9.930   0.077  0.00  0.00    +0.190 A 
ATOM     11  C   UNL     1      -0.417  10.241   0.058  0.00  0.00    +0.055 A 
ATOM     12  C   UNL     1      -0.508  11.636   0.113  0.00  0.00    +0.050 A 
ATOM     13  C   UNL     1       0.768  12.120   0.162  0.00  0.00    +0.136 A 
ATOM     14  O   UNL     1       1.622  11.084   0.134  0.00  0.00    -0.450 OA
BRANCH  13  15
ATOM     15  C   UNL     1       1.145  13.546   0.228  0.00  0.00    +0.019 A 
ATOM     16  C   UNL     1       0.158  14.533   0.244  0.00  0.00    +0.012 A 
ATOM     17  C   UNL     1       0.517  15.863   0.312  0.00  0.00    +0.003 A 
ATOM     18  C   UNL     1       1.853  16.221   0.352  0.00  0.00    +0.033 A 
ATOM     19  C   UNL     1       2.837  15.248   0.336  0.00  0.00    +0.127 A 
ATOM     20  C   UNL     1       2.491  13.914   0.274  0.00  0.00    +0.044 A 
BRANCH  19  21
ATOM     21  N   UNL     1       4.264  15.639   0.384  0.00  0.00    +0.056 N 
ATOM     22  O   UNL     1       4.571  16.817   0.438  0.00  0.00    -0.126 OA
ATOM     23  O   UNL     1       5.131  14.784   0.370  0.00  0.00    -0.126 OA
ENDBRANCH  19  21
ENDBRANCH  13  15
ENDBRANCH   7  10
BRANCH   1  24
ATOM     24  C   UNL     1       6.347   8.076  -2.342  0.00  0.00    -0.057 C 
BRANCH  24  25
ATOM     25  C   UNL     1       7.183   6.810  -2.146  0.00  0.00    +0.094 C 
BRANCH  25  36
ATOM     26  C   UNL     1      11.200   6.407  -6.233  0.00  0.00    +0.001 A 
ATOM     27  C   UNL     1      12.060   5.319  -6.220  0.00  0.00    +0.004 A 
ATOM     28  C   UNL     1      11.962   4.358  -5.235  0.00  0.00    +0.047 A 
ATOM     29  C   UNL     1      10.983   4.466  -4.255  0.00  0.00    +0.141 A 
ATOM     30  C   UNL     1      10.109   5.564  -4.272  0.00  0.00    +0.041 A 
ATOM     31  C   UNL     1      10.226   6.536  -5.267  0.00  0.00    +0.013 A 
ATOM     32  C   UNL     1       9.080   5.669  -3.224  0.00  0.00    +0.053 A 
ATOM     33  C   UNL     1       9.018   4.676  -2.281  0.00  0.00    +0.113 A 
ATOM     34  C   UNL     1       9.924   3.609  -2.337  0.00  0.00    +0.286 A 
ATOM     35  O   UNL     1      10.863   3.525  -3.294  0.00  0.00    -0.425 OA
ATOM     36  N   UNL     1       8.202   6.731  -3.195  0.00  0.00    -0.385 N 
ATOM     37  H   UNL     1       8.267   7.519  -3.960  0.00  0.00    +0.160 HD
BRANCH  34  38
ATOM     38  O   UNL     1       9.859   2.732  -1.493  0.00  0.00    -0.480 OA
ATOM     39  H   UNL     1      10.563   1.887  -1.523  0.00  0.00    +0.295 HD
ENDBRANCH  34  38
ENDBRANCH  25  36
ENDBRANCH  24  25
ENDBRANCH   1  24
TORSDOF 7
