REMARK  Name = ZINC64164801
REMARK  8 active torsions:
REMARK  status: ('A' for Active; 'I' for Inactive)
REMARK    1  A    between atoms: C_1  and  C_2
REMARK    2  A    between atoms: C_7  and  C_8
REMARK    3  A    between atoms: N_10  and  C_11
REMARK    4  A    between atoms: C_13  and  C_29
REMARK    5  A    between atoms: C_15  and  C_28
REMARK    6  A    between atoms: C_17  and  C_27
REMARK    7  A    between atoms: N_19  and  C_20
REMARK    8  A    between atoms: C_20  and  C_21
REMARK                            x       y       z     vdW  Elec       q    Type
REMARK                         _______ _______ _______ _____ _____    ______ ____
ROOT
ATOM      1  C   UNL     1       0.663  -0.099   5.145  0.00  0.00    +0.151 C 
ATOM      2  C   UNL     1       0.038  -0.957   6.273  0.00  0.00    +0.071 C 
ATOM      3  C   UNL     1       1.224  -1.834   6.737  0.00  0.00    +0.013 C 
ATOM      4  C   UNL     1       2.486  -1.071   6.295  0.00  0.00    +0.059 C 
ATOM      5  N   UNL     1       2.033   0.183   5.645  0.00  0.00    -0.279 NA
ATOM      6  C   UNL     1       3.353  -0.747   7.513  0.00  0.00    +0.024 C 
ATOM      7  C   UNL     1       1.203  -1.994   8.259  0.00  0.00    +0.009 C 
ENDROOT
BRANCH   2   8
ATOM      8  C   UNL     1      -1.100  -1.822   5.729  0.00  0.00    +0.180 C 
ATOM      9  N   UNL     1      -2.197  -0.970   5.252  0.00  0.00    -0.363 N 
ATOM     10  C   UNL     1      -3.253  -1.266   5.953  0.00  0.00    +0.060 A 
ATOM     11  C   UNL     1      -4.633  -0.760   5.941  0.00  0.00    +0.027 A 
ATOM     12  C   UNL     1      -5.535  -1.268   6.805  0.00  0.00    +0.002 A 
ATOM     13  C   UNL     1      -5.212  -2.274   7.733  0.00  0.00    +0.002 A 
ATOM     14  C   UNL     1      -3.978  -2.807   7.827  0.00  0.00    +0.027 A 
ATOM     15  C   UNL     1      -2.912  -2.332   6.934  0.00  0.00    +0.060 A 
ATOM     16  N   UNL     1      -1.658  -2.654   6.802  0.00  0.00    -0.363 N 
ATOM     17  H   UNL     1      -2.144  -0.309   4.545  0.00  0.00    +0.162 HD
ATOM     18  H   UNL     1      -1.180  -3.322   7.318  0.00  0.00    +0.162 HD
ENDBRANCH   2   8
BRANCH   1  21
ATOM     19  C   UNL     1       0.380  -0.257   2.730  0.00  0.00    +0.245 C 
ATOM     20  O   UNL     1       0.032   0.908   2.724  0.00  0.00    -0.270 OA
ATOM     21  N   UNL     1       0.716  -0.854   3.890  0.00  0.00    -0.295 N 
ATOM     22  H   UNL     1       0.993  -1.783   3.895  0.00  0.00    +0.151 HD
BRANCH  19  29
ATOM     23  C   UNL     1      -0.596   0.953   0.289  0.00  0.00    +0.044 C 
ATOM     24  C   UNL     1      -0.034  -0.446   0.281  0.00  0.00    -0.038 A 
ATOM     25  C   UNL     1       0.024  -1.160  -0.898  0.00  0.00    +0.004 A 
ATOM     26  C   UNL     1       0.539  -2.444  -0.908  0.00  0.00    +0.000 A 
ATOM     27  C   UNL     1       0.999  -3.020   0.263  0.00  0.00    +0.001 A 
ATOM     28  C   UNL     1       0.947  -2.317   1.448  0.00  0.00    +0.013 A 
ATOM     29  C   UNL     1       0.433  -1.019   1.464  0.00  0.00    +0.040 A 
ENDBRANCH  19  29
ENDBRANCH   1  21
BRANCH   5  30
ATOM     30  C   UNL     1       2.927   0.565   4.544  0.00  0.00    +0.118 C 
BRANCH  30  31
ATOM     31  C   UNL     1       2.649   2.014   4.140  0.00  0.00    +0.132 C 
ATOM     32  C   UNL     1       3.544   2.405   2.944  0.00  0.00    +0.035 C 
ATOM     33  C   UNL     1       3.940   3.865   3.292  0.00  0.00    +0.031 C 
ATOM     34  C   UNL     1       4.025   3.787   4.837  0.00  0.00    +0.160 C 
ATOM     35  O   UNL     1       2.968   2.891   5.226  0.00  0.00    -0.375 OA
ENDBRANCH  30  31
ENDBRANCH   5  30
TORSDOF 5
