REMARK  Name = ZINC11525779
REMARK  7 active torsions:
REMARK  status: ('A' for Active; 'I' for Inactive)
REMARK    1  A    between atoms: C_1  and  C_2
REMARK    2  A    between atoms: C_5  and  N_9
REMARK    3  A    between atoms: C_10  and  C_12
REMARK    4  A    between atoms: C_12  and  N_13
REMARK    5  A    between atoms: C_16  and  C_20
REMARK    6  A    between atoms: C_16  and  C_27
REMARK    7  A    between atoms: C_20  and  C_21
REMARK                            x       y       z     vdW  Elec       q    Type
REMARK                         _______ _______ _______ _____ _____    ______ ____
ROOT
ATOM      1  N   UNL     1      -2.192  -4.262  -0.313  0.00  0.00    -0.215 N 
ATOM      2  C   UNL     1      -2.013  -4.912  -1.480  0.00  0.00    +0.252 C 
ATOM      3  O   UNL     1      -2.055  -4.441  -2.595  0.00  0.00    -0.272 OA
ATOM      4  C   UNL     1      -1.744  -6.357  -1.106  0.00  0.00    +0.142 C 
ATOM      5  N   UNL     1      -1.818  -6.353   0.365  0.00  0.00    -0.281 N 
ATOM      6  C   UNL     1      -2.083  -5.087   0.734  0.00  0.00    +0.310 C 
ATOM      7  O   UNL     1      -2.209  -4.732   1.890  0.00  0.00    -0.252 OA
ATOM      8  H   UNL     1      -1.698  -7.115   0.954  0.00  0.00    +0.152 HD
ENDROOT
BRANCH   4   9
ATOM      9  C   UNL     1      -2.802  -7.259  -1.687  0.00  0.00    -0.015 A 
ATOM     10  C   UNL     1      -2.584  -7.887  -2.899  0.00  0.00    +0.006 A 
ATOM     11  C   UNL     1      -3.553  -8.718  -3.431  0.00  0.00    +0.000 A 
ATOM     12  C   UNL     1      -4.742  -8.914  -2.754  0.00  0.00    +0.000 A 
ATOM     13  C   UNL     1      -4.962  -8.282  -1.545  0.00  0.00    +0.000 A 
ATOM     14  C   UNL     1      -3.992  -7.455  -1.011  0.00  0.00    +0.006 A 
ENDBRANCH   4   9
BRANCH   1  15
ATOM     15  C   UNL     1      -2.478  -2.829  -0.206  0.00  0.00    +0.214 C 
BRANCH  15  17
ATOM     16  N   UNL     1      -1.200  -0.722   0.009  0.00  0.00    -0.283 N 
ATOM     17  C   UNL     1      -1.183  -2.065  -0.100  0.00  0.00    +0.235 C 
ATOM     18  O   UNL     1      -0.125  -2.659  -0.113  0.00  0.00    -0.274 OA
ATOM     19  H   UNL     1      -2.045  -0.252   0.085  0.00  0.00    +0.155 HD
BRANCH  16  24
ATOM     20  C   UNL     1       3.675   2.183   0.021  0.00  0.00    +0.044 C 
ATOM     21  C   UNL     1       2.380   1.412   0.018  0.00  0.00    -0.049 A 
ATOM     22  C   UNL     1       2.320   0.162   0.606  0.00  0.00    +0.005 A 
ATOM     23  C   UNL     1       1.135  -0.548   0.605  0.00  0.00    +0.024 A 
ATOM     24  C   UNL     1       0.003  -0.005   0.013  0.00  0.00    +0.048 A 
ATOM     25  C   UNL     1       0.066   1.251  -0.577  0.00  0.00    +0.039 A 
ATOM     26  C   UNL     1       1.254   1.956  -0.573  0.00  0.00    +0.020 A 
ATOM     27 BR   UNL     1      -1.471   1.993  -1.393  0.00  0.00    -0.048 Br
ENDBRANCH  16  24
ENDBRANCH  15  17
ENDBRANCH   1  15
BRANCH   4  28
ATOM     28  C   UNL     1      -0.353  -6.789  -1.574  0.00  0.00    +0.075 C 
BRANCH  28  29
ATOM     29  C   UNL     1       0.689  -5.916  -0.924  0.00  0.00    -0.045 A 
ATOM     30  C   UNL     1       1.101  -4.752  -1.545  0.00  0.00    +0.004 A 
ATOM     31  C   UNL     1       2.054  -3.949  -0.947  0.00  0.00    +0.000 A 
ATOM     32  C   UNL     1       2.602  -4.316   0.268  0.00  0.00    +0.000 A 
ATOM     33  C   UNL     1       2.194  -5.482   0.887  0.00  0.00    +0.000 A 
ATOM     34  C   UNL     1       1.238  -6.283   0.291  0.00  0.00    +0.004 A 
ENDBRANCH  28  29
ENDBRANCH   4  28
TORSDOF 6
