REMARK  Name = ZINC41178093
REMARK  10 active torsions:
REMARK  status: ('A' for Active; 'I' for Inactive)
REMARK    1  A    between atoms: C_1  and  C_2
REMARK    2  A    between atoms: C_2  and  C_3
REMARK    3  A    between atoms: C_3  and  C_4
REMARK    4  A    between atoms: C_4  and  C_5
REMARK    5  A    between atoms: N_7  and  C_8
REMARK    6  A    between atoms: C_8  and  C_9
REMARK    7  A    between atoms: N_12  and  C_16
REMARK    8  A    between atoms: C_19  and  C_22
REMARK    9  A    between atoms: C_22  and  C_23
REMARK   10  A    between atoms: C_22  and  C_24
REMARK                            x       y       z     vdW  Elec       q    Type
REMARK                         _______ _______ _______ _____ _____    ______ ____
ROOT
ATOM      1  C   UNL     1      -4.408  -5.950   0.012  0.00  0.00    +0.213 C 
ATOM      2  C   UNL     1      -5.845  -6.522  -0.029  0.00  0.00    +0.163 C 
ATOM      3  N   UNL     1      -5.736  -7.704   0.849  0.00  0.00    -0.234 N 
ATOM      4  C   UNL     1      -4.587  -7.596   1.542  0.00  0.00    +0.408 C 
ATOM      5  O   UNL     1      -4.197  -8.432   2.332  0.00  0.00    -0.226 OA
ATOM      6  O   UNL     1      -3.915  -6.465   1.264  0.00  0.00    -0.444 OA
ENDROOT
BRANCH   3   7
ATOM      7  C   UNL     1      -6.662  -8.749   0.944  0.00  0.00    +0.040 A 
ATOM      8  C   UNL     1      -7.810  -8.736   0.163  0.00  0.00    +0.024 A 
ATOM      9  C   UNL     1      -8.721  -9.769   0.259  0.00  0.00    +0.006 A 
ATOM     10  C   UNL     1      -8.491 -10.817   1.132  0.00  0.00    -0.045 A 
ATOM     11  C   UNL     1      -7.350 -10.833   1.912  0.00  0.00    +0.006 A 
ATOM     12  C   UNL     1      -6.431  -9.805   1.817  0.00  0.00    +0.024 A 
BRANCH  10  13
ATOM     13  C   UNL     1      -9.488 -11.942   1.235  0.00  0.00    +0.013 C 
ATOM     14  C   UNL     1      -8.806 -13.262   0.866  0.00  0.00    +0.012 C 
ATOM     15  C   UNL     1     -10.018 -12.025   2.667  0.00  0.00    +0.012 C 
ENDBRANCH  10  13
ENDBRANCH   3   7
BRANCH   1  16
ATOM     16  C   UNL     1      -4.429  -4.420   0.021  0.00  0.00    +0.150 C 
BRANCH  16  19
ATOM     17  C   UNL     1      -2.826  -2.585   0.015  0.00  0.00    +0.213 C 
ATOM     18  O   UNL     1      -3.759  -1.810   0.028  0.00  0.00    -0.276 OA
ATOM     19  N   UNL     1      -3.055  -3.913   0.010  0.00  0.00    -0.312 N 
ATOM     20  H   UNL     1      -2.309  -4.534  -0.000  0.00  0.00    +0.149 HD
BRANCH  17  21
ATOM     21  C   UNL     1      -1.413  -2.063   0.004  0.00  0.00    +0.096 C 
BRANCH  21  22
ATOM     22  C   UNL     1      -1.433  -0.534   0.013  0.00  0.00    +0.009 C 
BRANCH  22  24
ATOM     23  C   UNL     1      -0.019   1.526   0.010  0.00  0.00    +0.004 C 
ATOM     24  C   UNL     1       0.002  -0.004   0.002  0.00  0.00    -0.003 C 
ENDBRANCH  22  24
ENDBRANCH  21  22
ENDBRANCH  17  21
ENDBRANCH  16  19
ENDBRANCH   1  16
TORSDOF 7
