REMARK  Name = ZINC14039911
REMARK  11 active torsions:
REMARK  status: ('A' for Active; 'I' for Inactive)
REMARK    1  A    between atoms: C_1  and  C_2
REMARK    2  A    between atoms: C_2  and  C_3
REMARK    3  A    between atoms: C_6  and  O_9
REMARK    4  A    between atoms: O_9  and  C_10
REMARK    5  A    between atoms: C_10  and  C_12
REMARK    6  A    between atoms: C_10  and  C_13
REMARK    7  A    between atoms: N_15  and  N_16
REMARK    8  A    between atoms: C_17  and  C_19
REMARK    9  A    between atoms: C_19  and  O_20
REMARK   10  A    between atoms: O_20  and  C_21
REMARK   11  A    between atoms: C_22  and  C_29
REMARK                            x       y       z     vdW  Elec       q    Type
REMARK                         _______ _______ _______ _____ _____    ______ ____
ROOT
ATOM      1  C   UNL     1      -3.265   4.764   6.022  0.00  0.00    +0.270 C 
ATOM      2  O   UNL     1      -4.337   4.209   6.143  0.00  0.00    -0.270 OA
ATOM      3  N   UNL     1      -3.063   5.969   6.590  0.00  0.00    -0.231 N 
ATOM      4  H   UNL     1      -2.205   6.413   6.494  0.00  0.00    +0.173 HD
ENDROOT
BRANCH   3   5
ATOM      5  N   UNL     1      -4.090   6.581   7.320  0.00  0.00    -0.231 N 
ATOM      6  C   UNL     1      -3.888   7.786   7.888  0.00  0.00    +0.267 C 
ATOM      7  O   UNL     1      -2.816   8.341   7.768  0.00  0.00    -0.271 OA
ATOM      8  H   UNL     1      -4.947   6.137   7.416  0.00  0.00    +0.173 HD
BRANCH   6   9
ATOM      9  C   UNL     1      -4.993   8.444   8.673  0.00  0.00    +0.326 C 
BRANCH   9  10
ATOM     10  O   UNL     1      -4.539   9.704   9.172  0.00  0.00    -0.481 OA
BRANCH  10  11
ATOM     11  C   UNL     1      -5.421  10.431   9.907  0.00  0.00    +0.138 A 
ATOM     12  C   UNL     1      -5.481  10.266  11.283  0.00  0.00    -0.007 A 
ATOM     13  C   UNL     1      -6.378  11.007  12.028  0.00  0.00    +0.022 A 
ATOM     14  C   UNL     1      -7.216  11.913  11.403  0.00  0.00    +0.019 A 
ATOM     15  C   UNL     1      -7.158  12.080  10.031  0.00  0.00    +0.034 A 
ATOM     16  C   UNL     1      -6.259  11.345   9.282  0.00  0.00    +0.061 A 
ATOM     17 BR   UNL     1      -6.174  11.579   7.408  0.00  0.00    -0.046 Br
ATOM     18 BR   UNL     1      -8.442  12.926  12.427  0.00  0.00    -0.050 Br
ATOM     19  C   UNL     1      -4.569   9.279  11.964  0.00  0.00    +0.047 C 
ENDBRANCH  10  11
ENDBRANCH   9  10
ENDBRANCH   6   9
ENDBRANCH   3   5
BRANCH   1  20
ATOM     20  C   UNL     1      -2.159   4.106   5.237  0.00  0.00    +0.257 C 
ATOM     21  C   UNL     1      -0.996   3.774   6.174  0.00  0.00    +0.062 C 
BRANCH  20  22
ATOM     22  O   UNL     1      -2.649   2.902   4.642  0.00  0.00    -0.480 OA
BRANCH  22  26
ATOM     23  C   UNL     1      -0.714   1.568   1.252  0.00  0.00    -0.047 A 
ATOM     24  C   UNL     1      -1.857   0.926   1.692  0.00  0.00    +0.007 A 
ATOM     25  C   UNL     1      -2.503   1.367   2.830  0.00  0.00    +0.046 A 
ATOM     26  C   UNL     1      -2.012   2.463   3.525  0.00  0.00    +0.122 A 
ATOM     27  C   UNL     1      -0.869   3.109   3.078  0.00  0.00    +0.046 A 
ATOM     28  C   UNL     1      -0.222   2.661   1.942  0.00  0.00    +0.007 A 
BRANCH  23  30
ATOM     29  C   UNL     1       1.044   0.039   0.403  0.00  0.00    +0.009 C 
ATOM     30  C   UNL     1      -0.007   1.081   0.013  0.00  0.00    +0.032 C 
ENDBRANCH  23  30
ENDBRANCH  22  26
ENDBRANCH  20  22
ENDBRANCH   1  20
TORSDOF 8
