REMARK  Name = ZINC17304461
REMARK  10 active torsions:
REMARK  status: ('A' for Active; 'I' for Inactive)
REMARK    1  A    between atoms: C_1  and  C_2
REMARK    2  A    between atoms: C_4  and  C_31
REMARK    3  A    between atoms: C_5  and  C_30
REMARK    4  A    between atoms: C_6  and  S_9
REMARK    5  A    between atoms: C_7  and  C_8
REMARK    6  A    between atoms: S_9  and  N_12
REMARK    7  A    between atoms: N_12  and  C_13
REMARK    8  A    between atoms: C_13  and  C_15
REMARK    9  A    between atoms: C_13  and  C_16
REMARK   10  A    between atoms: C_16  and  N_18
REMARK                            x       y       z     vdW  Elec       q    Type
REMARK                         _______ _______ _______ _____ _____    ______ ____
ROOT
ATOM      1  C   UNL     1       1.905  -2.287   3.899  0.00  0.00    +0.161 C 
ATOM      2  C   UNL     1       1.667  -1.978   5.378  0.00  0.00    +0.035 C 
ENDROOT
BRANCH   1   3
ATOM      3  N   UNL     1       0.994  -3.350   3.469  0.00  0.00    -0.178 NA
ATOM      4  H   UNL     1       1.234  -4.279   3.606  0.00  0.00    +0.149 HD
BRANCH   3   5
ATOM      5  S   UNL     1      -0.447  -2.964   2.749  0.00  0.00    +0.060 S 
ATOM      6  O   UNL     1      -1.061  -1.980   3.571  0.00  0.00    -0.153 OA
ATOM      7  O   UNL     1      -1.083  -4.194   2.429  0.00  0.00    -0.153 OA
BRANCH   5  13
ATOM      8  C   UNL     1       0.913  -3.154  -2.294  0.00  0.00    +0.044 C 
ATOM      9  C   UNL     1       0.555  -2.323  -1.089  0.00  0.00    -0.045 A 
ATOM     10  C   UNL     1       0.521  -0.944  -1.184  0.00  0.00    +0.007 A 
ATOM     11  C   UNL     1       0.193  -0.182  -0.079  0.00  0.00    -0.045 A 
ATOM     12  C   UNL     1      -0.103  -0.799   1.123  0.00  0.00    -0.021 A 
ATOM     13  C   UNL     1      -0.071  -2.178   1.218  0.00  0.00    +0.112 A 
ATOM     14  C   UNL     1       0.254  -2.940   0.111  0.00  0.00    -0.021 A 
ATOM     15  C   UNL     1       0.284  -4.443   0.214  0.00  0.00    +0.046 C 
ATOM     16  C   UNL     1      -0.461   0.031   2.328  0.00  0.00    +0.046 C 
ATOM     17  C   UNL     1       0.157   1.321  -0.183  0.00  0.00    +0.044 C 
ENDBRANCH   5  13
ENDBRANCH   3   5
ENDBRANCH   1   3
BRANCH   1  18
ATOM     18  C   UNL     1       3.330  -2.737   3.703  0.00  0.00    +0.257 C 
ATOM     19  O   UNL     1       3.562  -3.840   3.247  0.00  0.00    -0.272 OA
BRANCH  18  20
ATOM     20  N   UNL     1       4.334  -1.927   4.027  0.00  0.00    -0.145 NA
ATOM     21  C   UNL     1       5.589  -2.360   3.947  0.00  0.00    +0.198 A 
ATOM     22  N   UNL     1       5.981  -3.547   3.415  0.00  0.00    -0.326 N 
ATOM     23  H   UNL     1       5.395  -4.219   3.032  0.00  0.00    +0.169 HD
ATOM     24  C   UNL     1       7.365  -3.635   3.515  0.00  0.00    +0.065 A 
ATOM     25  C   UNL     1       8.282  -4.607   3.141  0.00  0.00    +0.028 A 
ATOM     26  C   UNL     1       9.628  -4.409   3.374  0.00  0.00    +0.002 A 
ATOM     27  C   UNL     1      10.068  -3.244   3.980  0.00  0.00    +0.002 A 
ATOM     28  C   UNL     1       9.164  -2.271   4.356  0.00  0.00    +0.028 A 
ATOM     29  C   UNL     1       7.809  -2.460   4.125  0.00  0.00    +0.065 A 
ATOM     30  N   UNL     1       6.684  -1.681   4.379  0.00  0.00    -0.326 N 
ATOM     31  H   UNL     1       6.683  -0.805   4.795  0.00  0.00    +0.169 HD
ENDBRANCH  18  20
ENDBRANCH   1  18
TORSDOF 5
