REMARK  Name = ZINC63739226
REMARK  11 active torsions:
REMARK  status: ('A' for Active; 'I' for Inactive)
REMARK    1  A    between atoms: C_1  and  C_2
REMARK    2  A    between atoms: C_2  and  C_4
REMARK    3  A    between atoms: C_2  and  N_32
REMARK    4  A    between atoms: C_4  and  C_5
REMARK    5  A    between atoms: C_5  and  N_6
REMARK    6  A    between atoms: C_7  and  C_9
REMARK    7  A    between atoms: C_9  and  C_11
REMARK    8  A    between atoms: C_9  and  C_12
REMARK    9  A    between atoms: C_18  and  C_20
REMARK   10  A    between atoms: C_26  and  O_30
REMARK   11  A    between atoms: O_30  and  C_31
REMARK                            x       y       z     vdW  Elec       q    Type
REMARK                         _______ _______ _______ _____ _____    ______ ____
ROOT
ATOM      1  C   UNL     1       1.609  -5.755  -4.386  0.00  0.00    +0.004 C 
ATOM      2  C   UNL     1       0.122  -6.114  -4.368  0.00  0.00    +0.023 C 
ATOM      3  C   UNL     1      -0.032  -7.636  -4.459  0.00  0.00    +0.108 C 
ATOM      4  N   UNL     1       0.690  -8.114  -5.646  0.00  0.00    -0.300 N 
ATOM      5  C   UNL     1       2.104  -7.748  -5.807  0.00  0.00    +0.108 C 
ATOM      6  C   UNL     1       2.234  -6.225  -5.701  0.00  0.00    +0.023 C 
ATOM      7  C   UNL     1       0.068  -8.875  -6.568  0.00  0.00    +0.242 C 
ATOM      8  O   UNL     1      -1.099  -9.171  -6.423  0.00  0.00    -0.273 OA
ENDROOT
BRANCH   7   9
ATOM      9  C   UNL     1       0.822  -9.358  -7.780  0.00  0.00    +0.190 C 
ATOM     10  C   UNL     1       1.283  -8.181  -8.610  0.00  0.00    +0.016 C 
ATOM     11  C   UNL     1       0.696  -8.320  -9.819  0.00  0.00    -0.003 A 
ATOM     12  C   UNL     1       0.743  -7.513 -11.045  0.00  0.00    +0.013 A 
ATOM     13  C   UNL     1       0.033  -7.911 -12.121  0.00  0.00    +0.046 A 
ATOM     14  C   UNL     1      -0.751  -9.080 -12.097  0.00  0.00    +0.122 A 
ATOM     15  C   UNL     1      -0.843  -9.874 -11.000  0.00  0.00    +0.071 A 
ATOM     16  C   UNL     1      -0.136  -9.546  -9.816  0.00  0.00    +0.047 A 
ATOM     17  N   UNL     1      -0.063 -10.142  -8.647  0.00  0.00    -0.370 N 
ATOM     18  H   UNL     1      -0.518 -10.962  -8.399  0.00  0.00    +0.161 HD
BRANCH  14  19
ATOM     19  O   UNL     1      -1.442  -9.426 -13.211  0.00  0.00    -0.495 OA
ATOM     20  C   UNL     1      -1.319  -8.564 -14.344  0.00  0.00    +0.277 C 
ENDBRANCH  14  19
ENDBRANCH   7   9
BRANCH   1  21
ATOM     21  C   UNL     1       1.768  -4.238  -4.260  0.00  0.00    +0.075 C 
ATOM     22  C   UNL     1       3.255  -3.878  -4.276  0.00  0.00    +0.017 C 
BRANCH  21  24
ATOM     23  N   UNL     1       1.175  -2.466  -2.639  0.00  0.00    -0.315 N 
ATOM     24  C   UNL     1       1.153  -3.774  -2.965  0.00  0.00    +0.216 C 
ATOM     25  O   UNL     1       0.638  -4.577  -2.216  0.00  0.00    -0.276 OA
ATOM     26  H   UNL     1       1.587  -1.824  -3.238  0.00  0.00    +0.149 HD
BRANCH  23  27
ATOM     27  C   UNL     1       0.577  -2.015  -1.380  0.00  0.00    +0.102 C 
BRANCH  27  28
ATOM     28  C   UNL     1       0.736  -0.499  -1.254  0.00  0.00    +0.003 C 
BRANCH  28  30
ATOM     29  C   UNL     1       0.054   1.518   0.054  0.00  0.00    -0.013 C 
ATOM     30  C   UNL     1      -0.004  -0.010  -0.007  0.00  0.00    -0.070 C 
BRANCH  30  31
ATOM     31  N   UNL     1       0.633  -0.573   1.191  0.00  0.00    +0.381 N 
ATOM     32  C   UNL     1      -0.226  -0.292   2.359  0.00  0.00    -0.078 C 
ATOM     33  C   UNL     1       0.064  -1.325   3.418  0.00  0.00    -0.019 C 
ATOM     34  C   UNL     1       1.086  -0.806   4.447  0.00  0.00    -0.002 C 
ATOM     35  C   UNL     1       2.223  -0.010   3.773  0.00  0.00    -0.002 C 
ATOM     36  C   UNL     1       2.692  -0.653   2.493  0.00  0.00    -0.019 C 
ATOM     37  C   UNL     1       1.918  -0.040   1.308  0.00  0.00    -0.078 C 
ATOM     38  H   UNL     1       0.706  -1.573   1.079  0.00  0.00    -0.081 HD
ENDBRANCH  30  31
ENDBRANCH  28  30
ENDBRANCH  27  28
ENDBRANCH  23  27
ENDBRANCH  21  24
ENDBRANCH   1  21
TORSDOF 8
