REMARK  Name = ZINC15746670
REMARK  7 active torsions:
REMARK  status: ('A' for Active; 'I' for Inactive)
REMARK    1  A    between atoms: C_1  and  C_2
REMARK    2  A    between atoms: C_7  and  C_8
REMARK    3  A    between atoms: C_10  and  C_12
REMARK    4  A    between atoms: C_14  and  N_19
REMARK    5  A    between atoms: N_19  and  C_20
REMARK    6  A    between atoms: C_20  and  N_22
REMARK    7  A    between atoms: C_23  and  C_25
REMARK                            x       y       z     vdW  Elec       q    Type
REMARK                         _______ _______ _______ _____ _____    ______ ____
ROOT
ATOM      1  C   UNL     1       5.937   0.753   0.198  0.00  0.00    +0.057 A 
ATOM      2  C   UNL     1       6.635   1.961   0.206  0.00  0.00    +0.038 A 
ATOM      3  C   UNL     1       7.993   1.974  -0.069  0.00  0.00    +0.033 A 
ATOM      4  C   UNL     1       8.657   0.786  -0.351  0.00  0.00    +0.025 A 
ATOM      5  C   UNL     1       7.968  -0.412  -0.359  0.00  0.00    +0.022 A 
ATOM      6  C   UNL     1       6.614  -0.437  -0.081  0.00  0.00    +0.053 A 
ATOM      7 CL   UNL     1       5.755  -1.945  -0.086  0.00  0.00    -0.083 Cl
ENDROOT
BRANCH   1  17
ATOM      8  C   UNL     1      -1.167  -0.802   1.455  0.00  0.00    +0.044 C 
ATOM      9  C   UNL     1       0.118  -0.034   1.288  0.00  0.00    -0.045 A 
ATOM     10  C   UNL     1       1.279  -0.702   0.968  0.00  0.00    +0.035 A 
ATOM     11  C   UNL     1       2.469   0.011   0.814  0.00  0.00    +0.110 A 
ATOM     12  C   UNL     1       2.471   1.405   0.986  0.00  0.00    +0.156 A 
ATOM     13  C   UNL     1       1.294   2.061   1.308  0.00  0.00    +0.052 A 
ATOM     14  C   UNL     1       0.125   1.343   1.457  0.00  0.00    -0.044 A 
ATOM     15  C   UNL     1      -1.155   2.060   1.801  0.00  0.00    +0.044 C 
ATOM     16  O   UNL     1       3.743   1.814   0.778  0.00  0.00    -0.435 OA
ATOM     17  C   UNL     1       4.489   0.730   0.491  0.00  0.00    +0.230 A 
ATOM     18  N   UNL     1       3.744  -0.345   0.509  0.00  0.00    -0.209 NA
ENDBRANCH   1  17
BRANCH   3  19
ATOM     19  N   UNL     1       8.696   3.184  -0.062  0.00  0.00    -0.297 N 
ATOM     20  H   UNL     1       9.355   3.366  -0.750  0.00  0.00    +0.154 HD
BRANCH  19  21
ATOM     21  C   UNL     1       8.459   4.096   0.902  0.00  0.00    +0.141 C 
ATOM     22  S   UNL     1       7.403   3.719   2.195  0.00  0.00    -0.018 S 
BRANCH  21  23
ATOM     23  N   UNL     1       9.053   5.304   0.846  0.00  0.00    -0.261 N 
ATOM     24  C   UNL     1       8.815   6.217   1.810  0.00  0.00    +0.285 C 
ATOM     25  O   UNL     1       8.065   5.949   2.729  0.00  0.00    -0.266 OA
ATOM     26  H   UNL     1       9.651   5.518   0.113  0.00  0.00    +0.157 HD
BRANCH  24  27
ATOM     27  C   UNL     1       9.461   7.531   1.750  0.00  0.00    +0.189 A 
ATOM     28  C   UNL     1       9.309   8.542   2.655  0.00  0.00    +0.054 A 
ATOM     29  C   UNL     1      10.105   9.608   2.207  0.00  0.00    +0.042 A 
ATOM     30  C   UNL     1      10.700   9.206   1.063  0.00  0.00    +0.196 A 
ATOM     31  O   UNL     1      10.315   7.952   0.793  0.00  0.00    -0.458 OA
ENDBRANCH  24  27
ENDBRANCH  21  23
ENDBRANCH  19  21
ENDBRANCH   3  19
TORSDOF 5
