REMARK  Name = ZINC39856856
REMARK  6 active torsions:
REMARK  status: ('A' for Active; 'I' for Inactive)
REMARK    1  A    between atoms: C_6  and  C_7
REMARK    2  A    between atoms: C_10  and  C_12
REMARK    3  A    between atoms: N_13  and  N_14
REMARK    4  A    between atoms: C_19  and  C_22
REMARK    5  A    between atoms: C_22  and  C_23
REMARK    6  A    between atoms: N_25  and  C_26
REMARK                            x       y       z     vdW  Elec       q    Type
REMARK                         _______ _______ _______ _____ _____    ______ ____
ROOT
ATOM      1  N   UNL     1      -6.599   0.313   0.063  0.00  0.00    -0.127 NA
ATOM      2  C   UNL     1      -7.123   1.522   0.064  0.00  0.00    +0.183 C 
ATOM      3  N   UNL     1      -8.457   1.871   0.072  0.00  0.00    -0.263 N 
ATOM      4  C   UNL     1      -8.861   3.130   0.072  0.00  0.00    +0.233 C 
ATOM      5  O   UNL     1     -10.036   3.430   0.079  0.00  0.00    -0.274 OA
ATOM      6  C   UNL     1      -7.760   4.178   0.062  0.00  0.00    +0.149 C 
ATOM      7  S   UNL     1      -6.273   3.093   0.062  0.00  0.00    -0.075 S 
ATOM      8  H   UNL     1      -9.125   1.167   0.078  0.00  0.00    +0.157 HD
ENDROOT
BRANCH   1  10
ATOM      9  C   UNL     1      -4.797  -1.036   0.060  0.00  0.00    +0.181 C 
ATOM     10  N   UNL     1      -5.318   0.166   0.061  0.00  0.00    -0.152 NA
BRANCH   9  14
ATOM     11  C   UNL     1      -1.239  -0.733   0.052  0.00  0.00    +0.136 A 
ATOM     12  C   UNL     1      -1.345  -2.093   0.053  0.00  0.00    +0.050 A 
ATOM     13  C   UNL     1      -2.711  -2.399   0.056  0.00  0.00    +0.051 A 
ATOM     14  C   UNL     1      -3.389  -1.197   0.058  0.00  0.00    +0.148 A 
ATOM     15  O   UNL     1      -2.477  -0.203   0.060  0.00  0.00    -0.454 OA
BRANCH  11  21
ATOM     16  C   UNL     1      -0.002   1.428   0.055  0.00  0.00    +0.014 A 
ATOM     17  C   UNL     1       1.181   2.137   0.053  0.00  0.00    +0.039 A 
ATOM     18  C   UNL     1       2.394   1.466   0.045  0.00  0.00    +0.123 A 
ATOM     19  C   UNL     1       2.426   0.080   0.040  0.00  0.00    +0.039 A 
ATOM     20  C   UNL     1       1.250  -0.639   0.041  0.00  0.00    +0.014 A 
ATOM     21  C   UNL     1       0.024   0.031   0.050  0.00  0.00    +0.017 A 
ATOM     22  F   UNL     1       3.550   2.165   0.043  0.00  0.00    -0.205 F 
ENDBRANCH  11  21
ENDBRANCH   9  14
ENDBRANCH   1  10
BRANCH   6  23
ATOM     23  C   UNL     1      -7.825   5.040  -1.201  0.00  0.00    +0.120 C 
BRANCH  23  24
ATOM     24  C   UNL     1      -6.798   6.139  -1.112  0.00  0.00    +0.219 C 
ATOM     25  O   UNL     1      -6.084   6.225  -0.136  0.00  0.00    -0.275 OA
ATOM     26  N   UNL     1      -6.673   7.026  -2.119  0.00  0.00    -0.285 N 
ATOM     27  H   UNL     1      -7.196   6.918  -2.929  0.00  0.00    +0.155 HD
BRANCH  26  28
ATOM     28  C   UNL     1      -5.787   8.104  -1.996  0.00  0.00    +0.033 A 
ATOM     29  C   UNL     1      -6.108   9.335  -2.553  0.00  0.00    +0.025 A 
ATOM     30  C   UNL     1      -5.233  10.396  -2.430  0.00  0.00    +0.022 A 
ATOM     31  C   UNL     1      -4.037  10.233  -1.753  0.00  0.00    +0.041 A 
ATOM     32  C   UNL     1      -3.715   9.008  -1.197  0.00  0.00    +0.022 A 
ATOM     33  C   UNL     1      -4.589   7.945  -1.312  0.00  0.00    +0.025 A 
ATOM     34 CL   UNL     1      -2.939  11.569  -1.601  0.00  0.00    -0.084 Cl
ENDBRANCH  26  28
ENDBRANCH  23  24
ENDBRANCH   6  23
TORSDOF 6
