REMARK  Name = ZINC24174001
REMARK  12 active torsions:
REMARK  status: ('A' for Active; 'I' for Inactive)
REMARK    1  A    between atoms: C_1  and  C_2
REMARK    2  A    between atoms: C_5  and  S_9
REMARK    3  A    between atoms: C_7  and  C_8
REMARK    4  A    between atoms: S_9  and  C_10
REMARK    5  A    between atoms: C_13  and  N_16
REMARK    6  A    between atoms: C_17  and  C_19
REMARK    7  A    between atoms: C_19  and  C_21
REMARK    8  A    between atoms: C_19  and  S_22
REMARK    9  A    between atoms: S_22  and  C_23
REMARK   10  A    between atoms: C_26  and  S_28
REMARK   11  A    between atoms: S_28  and  C_29
REMARK   12  A    between atoms: C_29  and  C_30
REMARK                            x       y       z     vdW  Elec       q    Type
REMARK                         _______ _______ _______ _____ _____    ______ ____
ROOT
ATOM      1  N   UNL     1       4.628  -2.749   7.848  0.00  0.00    -0.285 N 
ATOM      2  C   UNL     1       4.443  -3.612   6.829  0.00  0.00    +0.230 C 
ATOM      3  O   UNL     1       4.682  -4.791   6.982  0.00  0.00    -0.274 OA
ATOM      4  H   UNL     1       4.485  -1.670   7.689  0.00  0.00    +0.155 HD
ENDROOT
BRANCH   1   8
ATOM      5  C   UNL     1       5.744  -4.171  11.607  0.00  0.00    +0.013 A 
ATOM      6  C   UNL     1       6.221  -4.793  10.459  0.00  0.00    +0.017 A 
ATOM      7  C   UNL     1       5.851  -4.322   9.215  0.00  0.00    +0.024 A 
ATOM      8  C   UNL     1       5.003  -3.227   9.111  0.00  0.00    +0.033 A 
ATOM      9  C   UNL     1       4.531  -2.602  10.258  0.00  0.00    +0.024 A 
ATOM     10  C   UNL     1       4.896  -3.076  11.502  0.00  0.00    +0.017 A 
BRANCH   5  11
ATOM     11  S   UNL     1       6.215  -4.772  13.195  0.00  0.00    -0.089 S 
BRANCH  11  16
ATOM     12  C   UNL     1      10.939  -1.336  14.715  0.00  0.00    +0.044 C 
ATOM     13  C   UNL     1       9.760  -2.194  14.335  0.00  0.00    -0.047 A 
ATOM     14  C   UNL     1       9.189  -2.067  13.082  0.00  0.00    +0.005 A 
ATOM     15  C   UNL     1       8.112  -2.855  12.729  0.00  0.00    +0.015 A 
ATOM     16  C   UNL     1       7.594  -3.769  13.639  0.00  0.00    +0.013 A 
ATOM     17  C   UNL     1       8.170  -3.894  14.897  0.00  0.00    +0.018 A 
ATOM     18  C   UNL     1       9.251  -3.107  15.241  0.00  0.00    -0.046 A 
ATOM     19  C   UNL     1       9.876  -3.241  16.605  0.00  0.00    +0.044 C 
ENDBRANCH  11  16
ENDBRANCH   5  11
ENDBRANCH   1   8
BRANCH   2  20
ATOM     20  C   UNL     1       3.940  -3.111   5.500  0.00  0.00    +0.136 C 
ATOM     21  C   UNL     1       2.423  -2.924   5.567  0.00  0.00    +0.029 C 
BRANCH  20  22
ATOM     22  S   UNL     1       4.344  -4.317   4.207  0.00  0.00    -0.084 S 
BRANCH  22  23
ATOM     23  C   UNL     1       3.832  -3.530   2.716  0.00  0.00    +0.160 A 
ATOM     24  N   UNL     1       3.280  -2.345   2.543  0.00  0.00    -0.134 NA
ATOM     25  N   UNL     1       2.953  -1.920   1.275  0.00  0.00    -0.134 NA
ATOM     26  C   UNL     1       3.194  -2.700   0.239  0.00  0.00    +0.160 A 
ATOM     27  S   UNL     1       3.914  -4.129   1.034  0.00  0.00    -0.033 S 
BRANCH  26  28
ATOM     28  S   UNL     1       2.882  -2.413  -1.471  0.00  0.00    -0.088 S 
BRANCH  28  29
ATOM     29  C   UNL     1       2.134  -0.761  -1.509  0.00  0.00    +0.171 C 
BRANCH  29  30
ATOM     30  C   UNL     1       1.814  -0.388  -2.934  0.00  0.00    +0.221 C 
ATOM     31  O   UNL     1       2.065  -1.160  -3.834  0.00  0.00    -0.275 OA
ATOM     32  N   UNL     1       1.248   0.805  -3.207  0.00  0.00    -0.329 N 
ATOM     33  H   UNL     1       1.014   1.077  -4.247  0.00  0.00    +0.145 HD
ATOM     34  H   UNL     1       1.020   1.505  -2.390  0.00  0.00    +0.145 HD
ENDBRANCH  29  30
ENDBRANCH  28  29
ENDBRANCH  26  28
ENDBRANCH  22  23
ENDBRANCH  20  22
ENDBRANCH   2  20
TORSDOF 9
