REMARK  Name = ZINC16194388
REMARK  9 active torsions:
REMARK  status: ('A' for Active; 'I' for Inactive)
REMARK    1  A    between atoms: C_1  and  C_2
REMARK    2  A    between atoms: N_6  and  C_14
REMARK    3  A    between atoms: C_14  and  C_15
REMARK    4  A    between atoms: C_15  and  C_16
REMARK    5  A    between atoms: C_16  and  O_18
REMARK    6  A    between atoms: O_18  and  C_19
REMARK    7  A    between atoms: C_19  and  C_21
REMARK    8  A    between atoms: C_19  and  C_27
REMARK    9  A    between atoms: N_29  and  C_30
REMARK                            x       y       z     vdW  Elec       q    Type
REMARK                         _______ _______ _______ _____ _____    ______ ____
ROOT
ATOM      1  C   UNL     1      -3.530   1.408   0.761  0.00  0.00    +0.310 C 
ATOM      2  O   UNL     1      -3.593   2.535   1.193  0.00  0.00    -0.251 OA
ENDROOT
BRANCH   1   3
ATOM      3  C   UNL     1      -4.700   0.473   0.923  0.00  0.00    +0.140 C 
BRANCH   3   4
ATOM      4  C   UNL     1      -5.830   1.193   1.662  0.00  0.00    +0.125 C 
BRANCH   4   9
ATOM      5  C   UNL     1      -9.648  -1.137  -0.291  0.00  0.00    +0.062 C 
ATOM      6  C   UNL     1      -9.116  -0.691   1.072  0.00  0.00    +0.256 C 
ATOM      7  C   UNL     1      -7.936   0.228   0.878  0.00  0.00    +0.260 C 
ATOM      8  O   UNL     1      -7.854   0.910  -0.122  0.00  0.00    -0.271 OA
ATOM      9  N   UNL     1      -6.968   0.284   1.819  0.00  0.00    -0.265 N 
ATOM     10  C   UNL     1      -7.072  -0.537   2.950  0.00  0.00    +0.078 A 
ATOM     11  C   UNL     1      -6.303  -0.293   4.076  0.00  0.00    +0.027 A 
ATOM     12  C   UNL     1      -6.420  -1.116   5.181  0.00  0.00    +0.002 A 
ATOM     13  C   UNL     1      -7.303  -2.180   5.165  0.00  0.00    +0.004 A 
ATOM     14  C   UNL     1      -8.074  -2.429   4.044  0.00  0.00    +0.047 A 
ATOM     15  C   UNL     1      -7.963  -1.610   2.935  0.00  0.00    +0.143 A 
ATOM     16  O   UNL     1      -8.715  -1.839   1.825  0.00  0.00    -0.478 OA
ENDBRANCH   4   9
ENDBRANCH   3   4
ENDBRANCH   1   3
BRANCH   1  17
ATOM     17  O   UNL     1      -2.417   0.990   0.138  0.00  0.00    -0.447 OA
BRANCH  17  18
ATOM     18  C   UNL     1      -1.330   1.944   0.019  0.00  0.00    +0.292 C 
BRANCH  18  19
ATOM     19  C   UNL     1      -1.481   2.721  -1.264  0.00  0.00    +0.002 A 
ATOM     20  C   UNL     1      -1.982   2.099  -2.393  0.00  0.00    +0.008 A 
ATOM     21  C   UNL     1      -2.126   2.813  -3.568  0.00  0.00    +0.000 A 
ATOM     22  C   UNL     1      -1.758   4.145  -3.617  0.00  0.00    +0.000 A 
ATOM     23  C   UNL     1      -1.252   4.764  -2.490  0.00  0.00    +0.000 A 
ATOM     24  C   UNL     1      -1.113   4.052  -1.313  0.00  0.00    +0.008 A 
ENDBRANCH  18  19
BRANCH  18  25
ATOM     25  C   UNL     1      -0.014   1.209   0.009  0.00  0.00    +0.259 C 
ATOM     26  O   UNL     1       0.002  -0.004   0.002  0.00  0.00    -0.271 OA
ATOM     27  N   UNL     1       1.143   1.898   0.001  0.00  0.00    -0.309 N 
ATOM     28  H   UNL     1       1.130   2.868   0.007  0.00  0.00    +0.149 HD
BRANCH  27  29
ATOM     29  C   UNL     1       2.422   1.183  -0.015  0.00  0.00    +0.073 C 
ATOM     30  C   UNL     1       3.527   1.691   0.914  0.00  0.00    +0.024 C 
ATOM     31  C   UNL     1       3.634   1.915  -0.596  0.00  0.00    +0.024 C 
ENDBRANCH  27  29
ENDBRANCH  18  25
ENDBRANCH  17  18
ENDBRANCH   1  17
TORSDOF 8
