REMARK  Name = ZINC33437199
REMARK  20 active torsions:
REMARK  status: ('A' for Active; 'I' for Inactive)
REMARK    1  A    between atoms: C_1  and  C_2
REMARK    2  A    between atoms: C_2  and  C_3
REMARK    3  A    between atoms: C_3  and  C_5
REMARK    4  A    between atoms: C_3  and  C_6
REMARK    5  A    between atoms: C_6  and  C_8
REMARK    6  A    between atoms: C_6  and  N_38
REMARK    7  A    between atoms: C_10  and  C_13
REMARK    8  A    between atoms: N_15  and  C_16
REMARK    9  A    between atoms: C_16  and  C_18
REMARK   10  A    between atoms: C_16  and  C_33
REMARK   11  A    between atoms: C_18  and  C_19
REMARK   12  A    between atoms: C_19  and  C_20
REMARK   13  A    between atoms: C_20  and  C_21
REMARK   14  A    between atoms: C_21  and  N_22
REMARK   15  A    between atoms: N_22  and  S_23
REMARK   16  A    between atoms: S_23  and  C_26
REMARK   17  A    between atoms: C_29  and  C_32
REMARK   18  A    between atoms: C_33  and  O_35
REMARK   19  A    between atoms: O_35  and  C_36
REMARK   20  A    between atoms: C_36  and  C_37
REMARK                            x       y       z     vdW  Elec       q    Type
REMARK                         _______ _______ _______ _____ _____    ______ ____
ROOT
ATOM      1  C   UNL     1       2.831   4.115  -0.003  0.00  0.00    +0.182 C 
ENDROOT
BRANCH   1   4
ATOM      2  C   UNL     1       4.846   3.621   1.275  0.00  0.00    +0.266 C 
ATOM      3  O   UNL     1       5.500   3.842   0.274  0.00  0.00    -0.268 OA
ATOM      4  N   UNL     1       3.503   3.729   1.240  0.00  0.00    -0.297 N 
ATOM      5  H   UNL     1       2.912   3.529   2.146  0.00  0.00    +0.150 HD
BRANCH   2   8
ATOM      6  C   UNL     1       5.846   2.654   4.580  0.00  0.00    +0.182 A 
ATOM      7  N   UNL     1       4.924   2.956   3.716  0.00  0.00    -0.210 NA
ATOM      8  C   UNL     1       5.523   3.233   2.526  0.00  0.00    +0.163 A 
ATOM      9  C   UNL     1       6.863   3.079   2.707  0.00  0.00    +0.230 A 
ATOM     10  O   UNL     1       7.047   2.724   3.988  0.00  0.00    -0.449 OA
BRANCH   6  11
ATOM     11  C   UNL     1       5.604   2.284   6.021  0.00  0.00    +0.016 C 
BRANCH  11  12
ATOM     12  N   UNL     1       6.419   1.111   6.369  0.00  0.00    +0.386 N 
ATOM     13  H   UNL     1       6.141   0.267   5.721  0.00  0.00    -0.089 HD
ATOM     14  H   UNL     1       6.242   0.841   7.420  0.00  0.00    -0.089 HD
ATOM     15  H   UNL     1       7.483   1.349   6.225  0.00  0.00    -0.089 HD
ENDBRANCH  11  12
BRANCH  11  16
ATOM     16  C   UNL     1       5.991   3.458   6.921  0.00  0.00    -0.020 C 
ATOM     17  C   UNL     1       5.142   4.679   6.559  0.00  0.00    +0.006 C 
BRANCH  16  19
ATOM     18  C   UNL     1       6.247   4.208   9.291  0.00  0.00    +0.004 C 
ATOM     19  C   UNL     1       5.745   3.083   8.384  0.00  0.00    -0.001 C 
ENDBRANCH  16  19
ENDBRANCH  11  16
ENDBRANCH   6  11
ENDBRANCH   2   8
ENDBRANCH   1   4
BRANCH   1  20
ATOM     20  C   UNL     1       2.812   5.617  -0.118  0.00  0.00    +0.328 C 
ATOM     21  O   UNL     1       3.308   6.296   0.749  0.00  0.00    -0.249 OA
BRANCH  20  22
ATOM     22  O   UNL     1       2.243   6.201  -1.185  0.00  0.00    -0.464 OA
BRANCH  22  23
ATOM     23  C   UNL     1       2.260   7.652  -1.230  0.00  0.00    +0.229 C 
ATOM     24  C   UNL     1       1.571   8.131  -2.509  0.00  0.00    +0.048 C 
ENDBRANCH  22  23
ENDBRANCH  20  22
ENDBRANCH   1  20
BRANCH   1  25
ATOM     25  C   UNL     1       1.396   3.585   0.008  0.00  0.00    +0.034 C 
BRANCH  25  26
ATOM     26  C   UNL     1       1.417   2.055  -0.000  0.00  0.00    +0.004 C 
BRANCH  26  27
ATOM     27  C   UNL     1      -0.019   1.526   0.010  0.00  0.00    +0.017 C 
BRANCH  27  28
ATOM     28  C   UNL     1       0.002  -0.004   0.002  0.00  0.00    +0.106 C 
BRANCH  28  29
ATOM     29  N   UNL     1      -1.372  -0.511   0.012  0.00  0.00    -0.190 NA
ATOM     30  H   UNL     1      -2.183   0.106   0.426  0.00  0.00    +0.148 HD
BRANCH  29  31
ATOM     31  S   UNL     1      -1.673  -2.095  -0.364  0.00  0.00    +0.058 S 
ATOM     32  O   UNL     1      -3.076  -2.283  -0.241  0.00  0.00    -0.153 OA
ATOM     33  O   UNL     1      -0.972  -2.366  -1.570  0.00  0.00    -0.153 OA
BRANCH  31  34
ATOM     34  C   UNL     1      -0.921  -3.081   0.888  0.00  0.00    +0.105 A 
ATOM     35  C   UNL     1       0.383  -3.512   0.738  0.00  0.00    +0.029 A 
ATOM     36  C   UNL     1       0.975  -4.281   1.722  0.00  0.00    +0.005 A 
ATOM     37  C   UNL     1       0.258  -4.627   2.853  0.00  0.00    -0.050 A 
ATOM     38  C   UNL     1      -1.048  -4.200   3.001  0.00  0.00    +0.005 A 
ATOM     39  C   UNL     1      -1.638  -3.427   2.018  0.00  0.00    +0.029 A 
ATOM     40  C   UNL     1       0.902  -5.470   3.924  0.00  0.00    +0.044 C 
ENDBRANCH  31  34
ENDBRANCH  29  31
ENDBRANCH  28  29
ENDBRANCH  27  28
ENDBRANCH  26  27
ENDBRANCH  25  26
ENDBRANCH   1  25
TORSDOF 16
