REMARK  Name = ZINC13511028
REMARK  7 active torsions:
REMARK  status: ('A' for Active; 'I' for Inactive)
REMARK    1  A    between atoms: C_1  and  C_2
REMARK    2  A    between atoms: C_5  and  N_9
REMARK    3  A    between atoms: C_10  and  C_12
REMARK    4  A    between atoms: C_12  and  S_13
REMARK    5  A    between atoms: S_13  and  C_14
REMARK    6  A    between atoms: C_17  and  C_20
REMARK    7  A    between atoms: C_23  and  N_26
REMARK                            x       y       z     vdW  Elec       q    Type
REMARK                         _______ _______ _______ _____ _____    ______ ____
ROOT
ATOM      1  C   UNL     1      -7.650   3.801  -0.358  0.00  0.00    +0.116 A 
ATOM      2  C   UNL     1      -8.950   3.324  -0.468  0.00  0.00    +0.090 A 
ATOM      3  C   UNL     1     -10.041   4.213  -0.541  0.00  0.00    +0.110 A 
ATOM      4  C   UNL     1     -11.321   3.531  -0.644  0.00  0.00    +0.106 A 
ATOM      5  N   UNL     1     -11.356   2.223  -0.655  0.00  0.00    -0.208 NA
ATOM      6  S   UNL     1      -9.724   1.734  -0.531  0.00  0.00    +0.017 S 
ATOM      7  N   UNL     1      -9.739   5.530  -0.510  0.00  0.00    -0.233 NA
ATOM      8  C   UNL     1      -8.500   5.939  -0.411  0.00  0.00    +0.223 A 
ATOM      9  N   UNL     1      -7.465   5.121  -0.336  0.00  0.00    -0.228 NA
ENDROOT
BRANCH   4  10
ATOM     10  C   UNL     1     -12.577   4.313  -0.737  0.00  0.00    +0.003 A 
ATOM     11  C   UNL     1     -12.707   5.514  -0.041  0.00  0.00    +0.012 A 
ATOM     12  C   UNL     1     -13.877   6.239  -0.135  0.00  0.00    +0.033 A 
ATOM     13  C   UNL     1     -14.924   5.772  -0.909  0.00  0.00    +0.126 A 
ATOM     14  C   UNL     1     -14.803   4.578  -1.597  0.00  0.00    +0.033 A 
ATOM     15  C   UNL     1     -13.636   3.846  -1.515  0.00  0.00    +0.012 A 
BRANCH  13  16
ATOM     16  N   UNL     1     -16.179   6.551  -1.000  0.00  0.00    +0.056 N 
ATOM     17  O   UNL     1     -17.102   6.142  -1.681  0.00  0.00    -0.126 OA
ATOM     18  O   UNL     1     -16.288   7.603  -0.395  0.00  0.00    -0.126 OA
ENDBRANCH  13  16
ENDBRANCH   4  10
BRANCH   1  19
ATOM     19  S   UNL     1      -6.284   2.692  -0.259  0.00  0.00    -0.095 S 
BRANCH  19  20
ATOM     20  C   UNL     1      -4.923   3.881  -0.146  0.00  0.00    +0.172 C 
BRANCH  20  22
ATOM     21  N   UNL     1      -2.457   3.822   0.045  0.00  0.00    -0.285 N 
ATOM     22  C   UNL     1      -3.615   3.139  -0.049  0.00  0.00    +0.227 C 
ATOM     23  O   UNL     1      -3.604   1.926  -0.055  0.00  0.00    -0.275 OA
ATOM     24  H   UNL     1      -2.470   4.789   0.127  0.00  0.00    +0.155 HD
BRANCH  21  29
ATOM     25  C   UNL     1       2.493   1.052  -0.040  0.00  0.00    +0.045 C 
ATOM     26  C   UNL     1       1.178   1.787  -0.017  0.00  0.00    -0.032 A 
ATOM     27  C   UNL     1       1.044   2.938   0.738  0.00  0.00    +0.006 A 
ATOM     28  C   UNL     1      -0.161   3.611   0.765  0.00  0.00    +0.023 A 
ATOM     29  C   UNL     1      -1.237   3.138   0.024  0.00  0.00    +0.035 A 
ATOM     30  C   UNL     1      -1.100   1.983  -0.733  0.00  0.00    +0.043 A 
ATOM     31  C   UNL     1       0.107   1.310  -0.752  0.00  0.00    +0.046 A 
ATOM     32 CL   UNL     1       0.280  -0.135  -1.699  0.00  0.00    -0.083 Cl
ENDBRANCH  21  29
ENDBRANCH  20  22
ENDBRANCH  19  20
ENDBRANCH   1  19
TORSDOF 6
