REMARK  Name = ZINC02900771
REMARK  9 active torsions:
REMARK  status: ('A' for Active; 'I' for Inactive)
REMARK    1  A    between atoms: C_1  and  C_2
REMARK    2  A    between atoms: C_2  and  C_30
REMARK    3  A    between atoms: C_3  and  C_26
REMARK    4  A    between atoms: C_5  and  C_7
REMARK    5  A    between atoms: N_9  and  C_10
REMARK    6  A    between atoms: C_10  and  C_11
REMARK    7  A    between atoms: C_11  and  O_12
REMARK    8  A    between atoms: O_12  and  C_13
REMARK    9  A    between atoms: N_15  and  C_16
REMARK                            x       y       z     vdW  Elec       q    Type
REMARK                         _______ _______ _______ _____ _____    ______ ____
ROOT
ATOM      1  C   UNL     1      -4.977   7.910  -0.217  0.00  0.00    +0.252 C 
ENDROOT
BRANCH   1   2
ATOM      2  C   UNL     1      -4.794   9.425  -0.316  0.00  0.00    +0.145 C 
BRANCH   2   5
ATOM      3  C   UNL     1      -3.843  11.040  -1.874  0.00  0.00    +0.217 C 
ATOM      4  O   UNL     1      -4.165  11.924  -1.109  0.00  0.00    -0.275 OA
ATOM      5  N   UNL     1      -4.112   9.754  -1.570  0.00  0.00    -0.312 N 
ATOM      6  H   UNL     1      -3.855   9.047  -2.182  0.00  0.00    +0.149 HD
BRANCH   3  10
ATOM      7  C   UNL     1      -2.944  13.320  -4.906  0.00  0.00    +0.012 C 
ATOM      8  C   UNL     1      -2.863  12.854  -3.451  0.00  0.00    -0.016 C 
ATOM      9  C   UNL     1      -1.713  11.917  -3.072  0.00  0.00    +0.033 C 
ATOM     10  C   UNL     1      -3.142  11.378  -3.164  0.00  0.00    +0.089 C 
ATOM     11  C   UNL     1      -3.317  13.875  -2.405  0.00  0.00    +0.012 C 
BRANCH   9  12
ATOM     12  C   UNL     1      -0.749  11.524  -4.161  0.00  0.00    +0.010 C 
ATOM     13  C   UNL     1       0.526  11.815  -4.046  0.00  0.00    +0.103 C 
ATOM     14 CL   UNL     1       1.101  12.654  -2.639  0.00  0.00    -0.071 Cl
ATOM     15 CL   UNL     1       1.637  11.361  -5.301  0.00  0.00    -0.071 Cl
ENDBRANCH   9  12
ENDBRANCH   3  10
ENDBRANCH   2   5
ENDBRANCH   1   2
BRANCH   1  16
ATOM     16  O   UNL     1      -3.676   7.270  -0.127  0.00  0.00    -0.449 OA
BRANCH  16  17
ATOM     17  C   UNL     1      -3.661   5.927  -0.033  0.00  0.00    +0.405 C 
ATOM     18  O   UNL     1      -4.705   5.306  -0.026  0.00  0.00    -0.226 OA
ATOM     19  N   UNL     1      -2.487   5.271   0.054  0.00  0.00    -0.251 N 
ATOM     20  H   UNL     1      -1.658   5.769   0.131  0.00  0.00    +0.158 HD
BRANCH  19  21
ATOM     21  C   UNL     1      -2.464   3.875   0.033  0.00  0.00    +0.044 A 
ATOM     22  C   UNL     1      -3.487   3.172  -0.565  0.00  0.00    +0.024 A 
ATOM     23  C   UNL     1      -3.474   1.780  -0.591  0.00  0.00    +0.002 A 
ATOM     24  C   UNL     1      -2.454   1.076  -0.028  0.00  0.00    +0.008 A 
ATOM     25  C   UNL     1      -1.388   1.756   0.587  0.00  0.00    -0.016 A 
ATOM     26  C   UNL     1      -1.393   3.172   0.625  0.00  0.00    +0.003 A 
ATOM     27  C   UNL     1      -0.331   3.849   1.245  0.00  0.00    +0.010 A 
ATOM     28  C   UNL     1       0.685   3.138   1.807  0.00  0.00    +0.001 A 
ATOM     29  C   UNL     1       0.688   1.744   1.775  0.00  0.00    +0.001 A 
ATOM     30  C   UNL     1      -0.324   1.055   1.182  0.00  0.00    +0.008 A 
ENDBRANCH  19  21
ENDBRANCH  16  17
ENDBRANCH   1  16
TORSDOF 7
