REMARK  Name = ZINC49452542
REMARK  3 active torsions:
REMARK  status: ('A' for Active; 'I' for Inactive)
REMARK    1  A    between atoms: C_6  and  N_7
REMARK    2  A    between atoms: C_8  and  C_10
REMARK    3  A    between atoms: C_10  and  C_11
REMARK                            x       y       z     vdW  Elec       q    Type
REMARK                         _______ _______ _______ _____ _____    ______ ____
ROOT
ATOM      1  C   UNL     1      -2.197  -4.302  -0.324  0.00  0.00    +0.059 A 
ATOM      2  C   UNL     1      -2.748  -5.198   0.530  0.00  0.00    +0.072 A 
ATOM      3  S   UNL     1      -2.047  -6.720  -0.086  0.00  0.00    -0.060 S 
ATOM      4  C   UNL     1      -1.141  -6.066  -1.344  0.00  0.00    +0.164 A 
ATOM      5  N   UNL     1      -1.396  -4.778  -1.259  0.00  0.00    -0.229 NA
ATOM      6  N   UNL     1      -0.327  -6.726  -2.254  0.00  0.00    -0.279 N 
ATOM      7  C   UNL     1      -0.268  -8.117  -2.254  0.00  0.00    +0.124 A 
ATOM      8  C   UNL     1       0.463  -8.775  -3.238  0.00  0.00    +0.045 A 
ATOM      9  C   UNL     1       0.513 -10.157  -3.227  0.00  0.00    +0.025 A 
ATOM     10  C   UNL     1      -0.172 -10.838  -2.227  0.00  0.00    +0.059 A 
ATOM     11  C   UNL     1      -0.878 -10.119  -1.282  0.00  0.00    +0.132 A 
ATOM     12  N   UNL     1      -0.903  -8.800  -1.315  0.00  0.00    -0.239 NA
ATOM     13 CL   UNL     1      -0.141 -12.573  -2.168  0.00  0.00    -0.082 Cl
ATOM     14  H   UNL     1       0.201  -6.218  -2.890  0.00  0.00    +0.155 HD
ENDROOT
BRANCH   1  15
ATOM     15  C   UNL     1      -2.491  -2.828  -0.214  0.00  0.00    +0.152 C 
BRANCH  15  17
ATOM     16  N   UNL     1      -1.214  -0.721   0.005  0.00  0.00    -0.285 N 
ATOM     17  C   UNL     1      -1.197  -2.065  -0.104  0.00  0.00    +0.223 C 
ATOM     18  O   UNL     1      -0.139  -2.659  -0.113  0.00  0.00    -0.275 OA
ATOM     19  H   UNL     1      -2.058  -0.252   0.087  0.00  0.00    +0.155 HD
BRANCH  16  25
ATOM     20  C   UNL     1       1.065  -0.456  -0.752  0.00  0.00    +0.026 A 
ATOM     21  C   UNL     1       2.251   0.254  -0.757  0.00  0.00    +0.043 A 
ATOM     22  C   UNL     1       2.367   1.415  -0.014  0.00  0.00    +0.159 A 
ATOM     23  C   UNL     1       1.293   1.870   0.738  0.00  0.00    +0.160 A 
ATOM     24  C   UNL     1       0.105   1.162   0.745  0.00  0.00    +0.064 A 
ATOM     25  C   UNL     1      -0.011  -0.003  -0.001  0.00  0.00    +0.036 A 
ATOM     26  F   UNL     1       1.409   3.004   1.463  0.00  0.00    -0.202 F 
ATOM     27  F   UNL     1       3.527   2.107  -0.020  0.00  0.00    -0.202 F 
ENDBRANCH  16  25
ENDBRANCH  15  17
ENDBRANCH   1  15
TORSDOF 3
