REMARK  Name = ZINC39693487
REMARK  14 active torsions:
REMARK  status: ('A' for Active; 'I' for Inactive)
REMARK    1  A    between atoms: C_1  and  C_2
REMARK    2  A    between atoms: C_3  and  C_12
REMARK    3  A    between atoms: C_7  and  O_8
REMARK    4  A    between atoms: O_8  and  C_9
REMARK    5  A    between atoms: C_9  and  C_11
REMARK    6  A    between atoms: C_16  and  C_25
REMARK    7  A    between atoms: N_27  and  C_28
REMARK    8  A    between atoms: C_28  and  C_29
REMARK    9  A    between atoms: C_29  and  N_30
REMARK   10  A    between atoms: C_31  and  O_33
REMARK   11  A    between atoms: O_33  and  C_34
REMARK   12  A    between atoms: C_34  and  C_35
REMARK   13  A    between atoms: C_34  and  C_36
REMARK   14  A    between atoms: C_34  and  C_37
REMARK                            x       y       z     vdW  Elec       q    Type
REMARK                         _______ _______ _______ _____ _____    ______ ____
ROOT
ATOM      1  C   UNL     1      -0.375   0.006  -2.845  0.00  0.00    +0.247 C 
ATOM      2  O   UNL     1      -0.329   1.213  -2.987  0.00  0.00    -0.270 OA
ATOM      3  N   UNL     1      -0.553  -0.791  -3.917  0.00  0.00    -0.296 N 
ATOM      4  C   UNL     1      -0.762  -2.259  -3.932  0.00  0.00    +0.121 C 
ATOM      5  C   UNL     1      -1.819  -2.491  -5.034  0.00  0.00    +0.100 C 
ATOM      6  C   UNL     1      -1.697  -1.269  -5.960  0.00  0.00    -0.004 C 
ATOM      7  C   UNL     1      -0.591  -0.399  -5.346  0.00  0.00    +0.115 C 
ATOM      8  C   UNL     1      -3.012  -0.496  -5.991  0.00  0.00    -0.010 C 
ATOM      9  C   UNL     1      -2.883   0.682  -6.962  0.00  0.00    -0.082 C 
ATOM     10  N   UNL     1      -2.555   0.180  -8.302  0.00  0.00    +0.379 N 
ATOM     11  C   UNL     1      -1.245  -0.482  -8.282  0.00  0.00    -0.082 C 
ATOM     12  C   UNL     1      -1.305  -1.708  -7.367  0.00  0.00    -0.010 C 
ATOM     13  H   UNL     1      -3.260  -0.480  -8.594  0.00  0.00    -0.086 HD
ATOM     14  H   UNL     1      -2.531   0.952  -8.951  0.00  0.00    -0.086 HD
ENDROOT
BRANCH   1  17
ATOM     15  C   UNL     1      -1.493   1.381  -0.558  0.00  0.00    +0.048 C 
ATOM     16  C   UNL     1      -0.773   0.068  -0.387  0.00  0.00    +0.004 A 
ATOM     17  C   UNL     1      -0.238  -0.586  -1.497  0.00  0.00    +0.043 A 
ATOM     18  C   UNL     1       0.428  -1.801  -1.331  0.00  0.00    +0.013 A 
ATOM     19  C   UNL     1       0.555  -2.351  -0.072  0.00  0.00    +0.004 A 
ATOM     20  C   UNL     1       0.024  -1.702   1.027  0.00  0.00    +0.047 A 
ATOM     21  C   UNL     1      -0.636  -0.490   0.872  0.00  0.00    +0.135 A 
BRANCH  21  22
ATOM     22  O   UNL     1      -1.151   0.147   1.957  0.00  0.00    -0.426 OA
BRANCH  22  23
ATOM     23  C   UNL     1      -0.486   1.208   2.440  0.00  0.00    +0.309 C 
ATOM     24  O   UNL     1       0.584   1.515   1.972  0.00  0.00    -0.251 OA
ATOM     25  C   UNL     1      -1.075   2.017   3.567  0.00  0.00    +0.136 C 
ENDBRANCH  22  23
ENDBRANCH  21  22
ENDBRANCH   1  17
BRANCH   5  26
ATOM     26  C   UNL     1      -3.199  -2.559  -4.431  0.00  0.00    +0.218 C 
ATOM     27  O   UNL     1      -3.476  -1.872  -3.471  0.00  0.00    -0.275 OA
ATOM     28  N   UNL     1      -4.125  -3.384  -4.960  0.00  0.00    -0.314 N 
ATOM     29  H   UNL     1      -3.904  -3.933  -5.728  0.00  0.00    +0.149 HD
BRANCH  28  30
ATOM     30  C   UNL     1      -5.466  -3.450  -4.373  0.00  0.00    +0.123 C 
BRANCH  30  31
ATOM     31  C   UNL     1      -6.315  -4.455  -5.155  0.00  0.00    +0.126 C 
BRANCH  31  32
ATOM     32  N   UNL     1      -7.656  -4.521  -4.569  0.00  0.00    -0.280 N 
ATOM     33  C   UNL     1      -8.582  -5.346  -5.097  0.00  0.00    +0.401 C 
ATOM     34  O   UNL     1      -8.305  -6.034  -6.059  0.00  0.00    -0.226 OA
ATOM     35  H   UNL     1      -7.878  -3.972  -3.801  0.00  0.00    +0.152 HD
BRANCH  33  36
ATOM     36  O   UNL     1      -9.815  -5.407  -4.559  0.00  0.00    -0.445 OA
BRANCH  36  37
ATOM     37  C   UNL     1     -10.746  -6.303  -5.169  0.00  0.00    +0.107 C 
ATOM     38  C   UNL     1     -10.198  -7.730  -5.105  0.00  0.00    +0.055 C 
ATOM     39  C   UNL     1     -12.081  -6.235  -4.426  0.00  0.00    +0.055 C 
ATOM     40  C   UNL     1     -10.955  -5.902  -6.631  0.00  0.00    +0.055 C 
ENDBRANCH  36  37
ENDBRANCH  33  36
ENDBRANCH  31  32
ENDBRANCH  30  31
ENDBRANCH  28  30
ENDBRANCH   5  26
TORSDOF 9
