REMARK  Name = ZINC12566334
REMARK  12 active torsions:
REMARK  status: ('A' for Active; 'I' for Inactive)
REMARK    1  A    between atoms: C_1  and  C_2
REMARK    2  A    between atoms: C_2  and  O_3
REMARK    3  A    between atoms: O_3  and  C_4
REMARK    4  A    between atoms: C_4  and  C_6
REMARK    5  A    between atoms: C_10  and  N_11
REMARK    6  A    between atoms: C_12  and  C_14
REMARK    7  A    between atoms: C_14  and  C_16
REMARK    8  A    between atoms: C_14  and  N_72
REMARK    9  A    between atoms: C_17  and  C_19
REMARK   10  A    between atoms: C_17  and  C_20
REMARK   11  A    between atoms: C_17  and  N_72
REMARK   12  A    between atoms: C_31  and  C_35
REMARK                            x       y       z     vdW  Elec       q    Type
REMARK                         _______ _______ _______ _____ _____    ______ ____
ROOT
ATOM      1  N   UNL     1      -3.440   3.542   2.802  0.00  0.00    -0.281 N 
ATOM      2  C   UNL     1      -2.199   3.243   2.369  0.00  0.00    +0.203 C 
ATOM      3  O   UNL     1      -1.247   3.876   2.773  0.00  0.00    -0.277 OA
ATOM      4  H   UNL     1      -4.202   3.036   2.479  0.00  0.00    +0.155 HD
ENDROOT
BRANCH   1   9
ATOM      5  C   UNL     1      -4.816   5.024   4.269  0.00  0.00    +0.091 A 
ATOM      6  C   UNL     1      -4.738   6.133   5.206  0.00  0.00    -0.021 A 
ATOM      7  C   UNL     1      -3.494   6.607   5.433  0.00  0.00    -0.004 A 
ATOM      8  S   UNL     1      -2.435   5.602   4.431  0.00  0.00    -0.077 S 
ATOM      9  C   UNL     1      -3.627   4.572   3.711  0.00  0.00    +0.086 A 
ATOM     10  C   UNL     1      -3.109   7.733   6.343  0.00  0.00    +0.046 C 
ATOM     11  C   UNL     1      -4.295   8.032   7.271  0.00  0.00    -0.009 C 
ATOM     12  C   UNL     1      -5.570   8.127   6.427  0.00  0.00    +0.008 C 
ATOM     13  C   UNL     1      -5.949   6.742   5.900  0.00  0.00    +0.037 C 
ATOM     14  C   UNL     1      -4.059   9.360   7.994  0.00  0.00    +0.008 C 
BRANCH   5  15
ATOM     15  C   UNL     1      -6.099   4.409   3.926  0.00  0.00    +0.342 C 
ATOM     16  O   UNL     1      -6.519   3.472   4.579  0.00  0.00    -0.245 OA
BRANCH  15  17
ATOM     17  O   UNL     1      -6.817   4.880   2.885  0.00  0.00    -0.461 OA
BRANCH  17  19
ATOM     18  C   UNL     1      -8.745   4.889   1.398  0.00  0.00    +0.048 C 
ATOM     19  C   UNL     1      -8.079   4.221   2.603  0.00  0.00    +0.229 C 
ENDBRANCH  17  19
ENDBRANCH  15  17
ENDBRANCH   5  15
ENDBRANCH   1   9
BRANCH   2  20
ATOM     20  C   UNL     1      -1.995   2.123   1.381  0.00  0.00    +0.014 C 
ATOM     21  C   UNL     1      -2.501   0.812   1.986  0.00  0.00    -0.004 C 
BRANCH  20  22
ATOM     22  N   UNL     1      -0.557   1.999   1.077  0.00  0.00    +0.388 N 
ATOM     23  H   UNL     1      -0.188   1.153   1.525  0.00  0.00    -0.084 HD
ATOM     24  H   UNL     1      -0.062   2.822   1.440  0.00  0.00    -0.084 HD
BRANCH  22  25
ATOM     25  C   UNL     1      -0.348   1.909  -0.381  0.00  0.00    -0.068 C 
ATOM     26  C   UNL     1      -0.495   0.453  -0.828  0.00  0.00    -0.013 C 
BRANCH  25  27
ATOM     27  C   UNL     1       1.059   2.406  -0.718  0.00  0.00    -0.041 C 
ATOM     28  C   UNL     1       2.093   1.542   0.008  0.00  0.00    +0.009 C 
ATOM     29  C   UNL     1       3.500   2.039  -0.329  0.00  0.00    -0.010 C 
ATOM     30  C   UNL     1       3.726   1.945  -1.839  0.00  0.00    +0.007 C 
ATOM     31  C   UNL     1       2.692   2.809  -2.565  0.00  0.00    -0.010 C 
ATOM     32  C   UNL     1       1.285   2.312  -2.228  0.00  0.00    +0.009 C 
ATOM     33  C   UNL     1       2.840   4.264  -2.117  0.00  0.00    +0.007 C 
ATOM     34  C   UNL     1       2.614   4.359  -0.607  0.00  0.00    -0.010 C 
ATOM     35  C   UNL     1       3.647   3.495   0.118  0.00  0.00    +0.007 C 
ATOM     36  C   UNL     1       1.207   3.862  -0.270  0.00  0.00    +0.009 C 
ENDBRANCH  25  27
ENDBRANCH  22  25
ENDBRANCH  20  22
ENDBRANCH   2  20
TORSDOF 8
