REMARK  Name = ZINC40426500
REMARK  9 active torsions:
REMARK  status: ('A' for Active; 'I' for Inactive)
REMARK    1  A    between atoms: C_1  and  N_2
REMARK    2  A    between atoms: C_5  and  C_10
REMARK    3  A    between atoms: N_19  and  C_21
REMARK    4  A    between atoms: C_21  and  C_23
REMARK    5  A    between atoms: C_21  and  C_30
REMARK    6  A    between atoms: C_23  and  C_24
REMARK    7  A    between atoms: N_32  and  C_33
REMARK    8  A    between atoms: C_33  and  C_34
REMARK    9  A    between atoms: C_34  and  C_35
REMARK                            x       y       z     vdW  Elec       q    Type
REMARK                         _______ _______ _______ _____ _____    ______ ____
ROOT
ATOM      1  C   UNL     1      -0.493   1.424   0.029  0.00  0.00    +0.139 C 
ATOM      2  N   UNL     1      -0.309  -0.029   0.015  0.00  0.00    -0.260 N 
ATOM      3  C   UNL     1      -1.417  -0.822   0.113  0.00  0.00    +0.042 C 
ATOM      4  C   UNL     1      -1.317  -2.166   0.106  0.00  0.00    +0.058 C 
ATOM      5  C   UNL     1       0.068  -2.769  -0.014  0.00  0.00    +0.143 C 
ATOM      6  N   UNL     1       1.198  -1.830  -0.114  0.00  0.00    -0.288 N 
ATOM      7  C   UNL     1       0.937  -0.508  -0.098  0.00  0.00    +0.307 C 
ATOM      8  O   UNL     1       1.863   0.275  -0.184  0.00  0.00    -0.252 OA
ATOM      9  C   UNL     1      -2.594  -2.753   0.218  0.00  0.00    +0.247 C 
ATOM     10  O   UNL     1      -2.800  -3.953   0.238  0.00  0.00    -0.270 OA
ATOM     11  N   UNL     1      -3.554  -1.815   0.301  0.00  0.00    -0.280 N 
ATOM     12  C   UNL     1      -2.890  -0.505   0.241  0.00  0.00    +0.160 C 
ATOM     13  H   UNL     1       2.108  -2.156  -0.193  0.00  0.00    +0.151 HD
ENDROOT
BRANCH   5  14
ATOM     14  C   UNL     1       0.087  -3.650  -1.237  0.00  0.00    -0.004 A 
ATOM     15  C   UNL     1      -0.886  -3.505  -2.209  0.00  0.00    +0.007 A 
ATOM     16  C   UNL     1      -0.868  -4.312  -3.331  0.00  0.00    +0.000 A 
ATOM     17  C   UNL     1       0.122  -5.265  -3.482  0.00  0.00    +0.001 A 
ATOM     18  C   UNL     1       1.095  -5.411  -2.512  0.00  0.00    +0.020 A 
ATOM     19  C   UNL     1       1.081  -4.599  -1.391  0.00  0.00    +0.046 A 
ATOM     20 CL   UNL     1       2.307  -4.777  -0.175  0.00  0.00    -0.083 Cl
ENDBRANCH   5  14
BRANCH  11  21
ATOM     21  C   UNL     1      -4.994  -2.054   0.427  0.00  0.00    +0.167 C 
BRANCH  21  22
ATOM     22  C   UNL     1      -5.479  -2.839  -0.764  0.00  0.00    +0.234 C 
ATOM     23  O   UNL     1      -4.699  -3.166  -1.633  0.00  0.00    -0.274 OA
ATOM     24  N   UNL     1      -6.780  -3.177  -0.865  0.00  0.00    -0.313 N 
ATOM     25  H   UNL     1      -7.404  -2.915  -0.170  0.00  0.00    +0.149 HD
BRANCH  24  26
ATOM     26  C   UNL     1      -7.252  -3.939  -2.023  0.00  0.00    +0.109 C 
BRANCH  26  27
ATOM     27  C   UNL     1      -8.755  -4.189  -1.891  0.00  0.00    +0.054 C 
BRANCH  27  28
ATOM     28  C   UNL     1      -9.241  -4.974  -3.083  0.00  0.00    -0.046 A 
ATOM     29  C   UNL     1      -9.678  -4.312  -4.215  0.00  0.00    +0.004 A 
ATOM     30  C   UNL     1     -10.123  -5.031  -5.308  0.00  0.00    +0.000 A 
ATOM     31  C   UNL     1     -10.130  -6.413  -5.270  0.00  0.00    +0.000 A 
ATOM     32  C   UNL     1      -9.691  -7.075  -4.138  0.00  0.00    +0.000 A 
ATOM     33  C   UNL     1      -9.242  -6.356  -3.047  0.00  0.00    +0.004 A 
ENDBRANCH  27  28
ENDBRANCH  26  27
ENDBRANCH  24  26
ENDBRANCH  21  22
BRANCH  21  34
ATOM     34  C   UNL     1      -5.270  -2.847   1.706  0.00  0.00    +0.067 C 
BRANCH  34  35
ATOM     35  C   UNL     1      -4.898  -2.013   2.905  0.00  0.00    -0.045 A 
ATOM     36  C   UNL     1      -3.614  -2.069   3.415  0.00  0.00    +0.004 A 
ATOM     37  C   UNL     1      -3.273  -1.304   4.514  0.00  0.00    +0.000 A 
ATOM     38  C   UNL     1      -4.215  -0.481   5.103  0.00  0.00    +0.000 A 
ATOM     39  C   UNL     1      -5.499  -0.424   4.592  0.00  0.00    +0.000 A 
ATOM     40  C   UNL     1      -5.838  -1.186   3.490  0.00  0.00    +0.004 A 
ENDBRANCH  34  35
ENDBRANCH  21  34
ENDBRANCH  11  21
TORSDOF 8
