REMARK  Name = ZINC04356126
REMARK  9 active torsions:
REMARK  status: ('A' for Active; 'I' for Inactive)
REMARK    1  A    between atoms: C_1  and  C_2
REMARK    2  A    between atoms: C_2  and  C_3
REMARK    3  A    between atoms: C_4  and  C_17
REMARK    4  A    between atoms: N_7  and  C_9
REMARK    5  A    between atoms: C_13  and  C_16
REMARK    6  A    between atoms: C_14  and  C_15
REMARK    7  A    between atoms: N_21  and  C_25
REMARK    8  A    between atoms: C_25  and  C_26
REMARK    9  A    between atoms: C_26  and  C_27
REMARK                            x       y       z     vdW  Elec       q    Type
REMARK                         _______ _______ _______ _____ _____    ______ ____
ROOT
ATOM      1  C   UNL     1      -1.321  -0.574  -0.121  0.00  0.00    +0.074 A 
ATOM      2  C   UNL     1      -2.028  -0.930   1.053  0.00  0.00    +0.066 A 
ATOM      3  C   UNL     1      -3.282  -1.384   0.651  0.00  0.00    +0.281 A 
ATOM      4  O   UNL     1      -4.275  -1.825   1.458  0.00  0.00    -0.265 OA
ATOM      5  N   UNL     1      -3.320  -1.302  -0.697  0.00  0.00    -0.196 N 
ATOM      6  N   UNL     1      -2.097  -0.793  -1.146  0.00  0.00    -0.167 NA
ENDROOT
BRANCH   2   7
ATOM      7  C   UNL     1      -1.535  -0.839   2.429  0.00  0.00    +0.043 C 
ATOM      8  C   UNL     1      -2.288  -0.229   3.383  0.00  0.00    +0.099 C 
ATOM      9  C   UNL     1      -1.956  -0.052   4.752  0.00  0.00    +0.268 C 
ATOM     10  O   UNL     1      -0.934  -0.421   5.302  0.00  0.00    -0.268 OA
ATOM     11  N   UNL     1      -2.984   0.601   5.328  0.00  0.00    -0.220 N 
ATOM     12  C   UNL     1      -3.935   0.844   4.410  0.00  0.00    +0.313 C 
ATOM     13  O   UNL     1      -4.985   1.418   4.628  0.00  0.00    -0.252 OA
ATOM     14  N   UNL     1      -3.551   0.362   3.213  0.00  0.00    -0.265 N 
ATOM     15  H   UNL     1      -4.055   0.411   2.386  0.00  0.00    +0.157 HD
BRANCH  11  16
ATOM     16  C   UNL     1      -3.055   0.987   6.739  0.00  0.00    +0.122 C 
BRANCH  16  17
ATOM     17  C   UNL     1      -2.454   2.383   6.917  0.00  0.00    +0.046 C 
BRANCH  17  18
ATOM     18  C   UNL     1      -2.526   2.780   8.368  0.00  0.00    -0.033 C 
ATOM     19  C   UNL     1      -1.439   3.143   9.003  0.00  0.00    +0.004 C 
ENDBRANCH  17  18
ENDBRANCH  16  17
ENDBRANCH  11  16
ENDBRANCH   2   7
BRANCH   5  20
ATOM     20  C   UNL     1      -4.404  -1.662  -1.509  0.00  0.00    +0.072 A 
ATOM     21  C   UNL     1      -5.047  -2.877  -1.313  0.00  0.00    +0.028 A 
ATOM     22  C   UNL     1      -6.116  -3.228  -2.115  0.00  0.00    +0.002 A 
ATOM     23  C   UNL     1      -6.546  -2.371  -3.111  0.00  0.00    +0.004 A 
ATOM     24  C   UNL     1      -5.907  -1.161  -3.309  0.00  0.00    -0.046 A 
ATOM     25  C   UNL     1      -4.842  -0.801  -2.507  0.00  0.00    -0.022 A 
ATOM     26  C   UNL     1      -4.150   0.521  -2.719  0.00  0.00    +0.046 C 
ATOM     27  C   UNL     1      -6.378  -0.230  -4.397  0.00  0.00    +0.044 C 
ENDBRANCH   5  20
BRANCH   1  29
ATOM     28  C   UNL     1       0.041   1.498  -0.091  0.00  0.00    +0.010 C 
ATOM     29  C   UNL     1       0.083  -0.029  -0.176  0.00  0.00    +0.054 C 
ENDBRANCH   1  29
TORSDOF 6
