REMARK  Name = ZINC09229468
REMARK  8 active torsions:
REMARK  status: ('A' for Active; 'I' for Inactive)
REMARK    1  A    between atoms: C_3  and  N_28
REMARK    2  A    between atoms: C_6  and  C_7
REMARK    3  A    between atoms: C_8  and  C_9
REMARK    4  A    between atoms: N_11  and  N_12
REMARK    5  A    between atoms: C_13  and  C_15
REMARK    6  A    between atoms: C_15  and  C_16
REMARK    7  A    between atoms: C_16  and  C_17
REMARK    8  A    between atoms: N_19  and  C_20
REMARK                            x       y       z     vdW  Elec       q    Type
REMARK                         _______ _______ _______ _____ _____    ______ ____
ROOT
ATOM      1  N   UNL     1       4.927   1.112   0.003  0.00  0.00    -0.234 N 
ATOM      2  C   UNL     1       3.751   1.771   0.011  0.00  0.00    +0.230 C 
ATOM      3  O   UNL     1       3.736   2.983   0.022  0.00  0.00    -0.274 OA
ATOM      4  H   UNL     1       4.940   0.142  -0.005  0.00  0.00    +0.173 HD
ENDROOT
BRANCH   1   7
ATOM      5  C   UNL     1       7.307   1.170  -0.002  0.00  0.00    +0.253 C 
ATOM      6  O   UNL     1       7.323  -0.047  -0.012  0.00  0.00    -0.269 OA
ATOM      7  N   UNL     1       6.131   1.829   0.006  0.00  0.00    -0.231 N 
ATOM      8  H   UNL     1       6.119   2.799   0.015  0.00  0.00    +0.173 HD
BRANCH   5  10
ATOM      9  C   UNL     1       9.742   1.260  -0.006  0.00  0.00    +0.013 C 
ATOM     10  C   UNL     1       8.566   1.919   0.002  0.00  0.00    +0.069 C 
BRANCH   9  16
ATOM     11  C   UNL     1      10.993   3.411   0.003  0.00  0.00    +0.010 A 
ATOM     12  C   UNL     1      12.182   4.109   0.012  0.00  0.00    +0.033 A 
ATOM     13  C   UNL     1      13.387   3.430   0.004  0.00  0.00    +0.126 A 
ATOM     14  C   UNL     1      13.410   2.046  -0.008  0.00  0.00    +0.033 A 
ATOM     15  C   UNL     1      12.229   1.334  -0.011  0.00  0.00    +0.010 A 
ATOM     16  C   UNL     1      11.007   2.013  -0.003  0.00  0.00    -0.025 A 
BRANCH  13  17
ATOM     17  N   UNL     1      14.659   4.186   0.008  0.00  0.00    +0.056 N 
ATOM     18  O   UNL     1      15.722   3.591   0.001  0.00  0.00    -0.126 OA
ATOM     19  O   UNL     1      14.643   5.404   0.019  0.00  0.00    -0.126 OA
ENDBRANCH  13  17
ENDBRANCH   9  16
ENDBRANCH   5  10
ENDBRANCH   1   7
BRANCH   2  20
ATOM     20  C   UNL     1       2.456   1.000   0.008  0.00  0.00    +0.106 C 
BRANCH  20  21
ATOM     21  C   UNL     1       1.280   1.979   0.019  0.00  0.00    +0.105 C 
BRANCH  21  22
ATOM     22  C   UNL     1      -0.015   1.208   0.015  0.00  0.00    +0.218 C 
ATOM     23  O   UNL     1       0.001  -0.005   0.005  0.00  0.00    -0.275 OA
ATOM     24  N   UNL     1      -1.191   1.867   0.018  0.00  0.00    -0.284 N 
ATOM     25  H   UNL     1      -1.205   2.834   0.092  0.00  0.00    +0.155 HD
BRANCH  24  26
ATOM     26  C   UNL     1      -2.392   1.155  -0.086  0.00  0.00    +0.052 A 
ATOM     27  C   UNL     1      -2.510  -0.099   0.499  0.00  0.00    +0.026 A 
ATOM     28  C   UNL     1      -3.696  -0.799   0.395  0.00  0.00    +0.022 A 
ATOM     29  C   UNL     1      -4.766  -0.253  -0.291  0.00  0.00    +0.042 A 
ATOM     30  C   UNL     1      -4.652   0.996  -0.876  0.00  0.00    +0.041 A 
ATOM     31  C   UNL     1      -3.470   1.704  -0.770  0.00  0.00    +0.064 A 
ATOM     32 CL   UNL     1      -3.329   3.274  -1.497  0.00  0.00    -0.082 Cl
ATOM     33 CL   UNL     1      -6.255  -1.136  -0.420  0.00  0.00    -0.083 Cl
ENDBRANCH  24  26
ENDBRANCH  21  22
ENDBRANCH  20  21
ENDBRANCH   2  20
TORSDOF 8
