REMARK  Name = ZINC29185570
REMARK  9 active torsions:
REMARK  status: ('A' for Active; 'I' for Inactive)
REMARK    1  A    between atoms: C_1  and  C_2
REMARK    2  A    between atoms: C_2  and  N_3
REMARK    3  A    between atoms: N_3  and  C_4
REMARK    4  A    between atoms: N_3  and  C_6
REMARK    5  A    between atoms: C_4  and  C_5
REMARK    6  A    between atoms: C_6  and  C_7
REMARK    7  A    between atoms: C_12  and  C_13
REMARK    8  A    between atoms: C_13  and  N_14
REMARK    9  A    between atoms: N_14  and  C_15
REMARK                            x       y       z     vdW  Elec       q    Type
REMARK                         _______ _______ _______ _____ _____    ______ ____
ROOT
ATOM      1  N   UNL     1       2.412   4.163   0.105  0.00  0.00    -0.345 N 
ATOM      2  H   UNL     1       3.371   3.624   0.088  0.00  0.00    +0.146 HD
ENDROOT
BRANCH   1   3
ATOM      3  C   UNL     1       1.244   3.475   0.013  0.00  0.00    +0.081 C 
ATOM      4  C   UNL     1       1.252   2.098   0.043  0.00  0.00    +0.058 C 
ATOM      5  C   UNL     1       2.325   1.358   0.741  0.00  0.00    +0.000 A 
ATOM      6  C   UNL     1       3.364   2.015   1.390  0.00  0.00    +0.009 A 
ATOM      7  C   UNL     1       4.342   1.279   2.027  0.00  0.00    +0.001 A 
ATOM      8  C   UNL     1       4.295  -0.108   2.023  0.00  0.00    +0.001 A 
ATOM      9  C   UNL     1       3.274  -0.776   1.384  0.00  0.00    +0.013 A 
ATOM     10  C   UNL     1       2.275  -0.051   0.734  0.00  0.00    +0.045 A 
ATOM     11  C   UNL     1       1.169  -0.724   0.041  0.00  0.00    +0.251 C 
ATOM     12  O   UNL     1       1.120  -1.940   0.031  0.00  0.00    -0.270 OA
ATOM     13  N   UNL     1       0.210  -0.021  -0.584  0.00  0.00    -0.248 N 
ATOM     14  C   UNL     1       0.196   1.322  -0.617  0.00  0.00    +0.252 C 
ATOM     15  O   UNL     1      -0.700   1.901  -1.204  0.00  0.00    -0.270 OA
ATOM     16  H   UNL     1      -0.610  -0.544  -1.097  0.00  0.00    +0.158 HD
ENDBRANCH   1   3
BRANCH   1  17
ATOM     17  C   UNL     1       2.394   5.623   0.227  0.00  0.00    +0.136 C 
BRANCH  17  23
ATOM     18  C   UNL     1       4.562   6.277  -0.838  0.00  0.00    -0.059 A 
ATOM     19  C   UNL     1       5.860   6.749  -0.761  0.00  0.00    +0.002 A 
ATOM     20  C   UNL     1       6.402   7.082   0.466  0.00  0.00    +0.000 A 
ATOM     21  C   UNL     1       5.647   6.942   1.616  0.00  0.00    +0.000 A 
ATOM     22  C   UNL     1       4.349   6.475   1.538  0.00  0.00    +0.005 A 
ATOM     23  C   UNL     1       3.808   6.137   0.311  0.00  0.00    -0.029 A 
BRANCH  18  24
ATOM     24  C   UNL     1       3.971   5.915  -2.176  0.00  0.00    -0.043 C 
BRANCH  24  25
ATOM     25  N   UNL     1       3.116   7.013  -2.647  0.00  0.00    +0.382 N 
ATOM     26  H   UNL     1       2.408   7.258  -1.842  0.00  0.00    -0.081 HD
BRANCH  25  28
ATOM     27  C   UNL     1       4.860   7.935  -4.098  0.00  0.00    -0.017 C 
ATOM     28  C   UNL     1       3.912   8.215  -2.931  0.00  0.00    -0.082 C 
ENDBRANCH  25  28
BRANCH  25  29
ATOM     29  C   UNL     1       2.338   6.606  -3.825  0.00  0.00    -0.082 C 
ATOM     30  C   UNL     1       1.208   7.610  -4.061  0.00  0.00    -0.017 C 
ENDBRANCH  25  29
ENDBRANCH  24  25
ENDBRANCH  18  24
ENDBRANCH  17  23
ENDBRANCH   1  17
TORSDOF 7
