REMARK  Name = ZINC06712507
REMARK  14 active torsions:
REMARK  status: ('A' for Active; 'I' for Inactive)
REMARK    1  A    between atoms: C_1  and  C_2
REMARK    2  A    between atoms: C_2  and  C_3
REMARK    3  A    between atoms: C_2  and  N_4
REMARK    4  A    between atoms: N_4  and  C_5
REMARK    5  A    between atoms: C_5  and  C_6
REMARK    6  A    between atoms: C_8  and  N_15
REMARK    7  A    between atoms: C_11  and  N_12
REMARK    8  A    between atoms: N_12  and  C_13
REMARK    9  A    between atoms: N_12  and  C_14
REMARK   10  A    between atoms: C_16  and  C_18
REMARK   11  A    between atoms: N_25  and  C_26
REMARK   12  A    between atoms: C_26  and  C_27
REMARK   13  A    between atoms: C_26  and  C_28
REMARK   14  A    between atoms: C_26  and  C_29
REMARK                            x       y       z     vdW  Elec       q    Type
REMARK                         _______ _______ _______ _____ _____    ______ ____
ROOT
ATOM      1  C   UNL     1      -2.564  -5.143  -0.019  0.00  0.00    -0.007 A 
ATOM      2  C   UNL     1      -2.579  -4.485  -1.233  0.00  0.00    +0.030 A 
ATOM      3  C   UNL     1      -2.624  -3.098  -1.271  0.00  0.00    +0.034 A 
ATOM      4  C   UNL     1      -2.649  -2.372  -0.087  0.00  0.00    +0.025 A 
ATOM      5  C   UNL     1      -2.640  -3.029   1.126  0.00  0.00    +0.025 A 
ATOM      6  C   UNL     1      -2.594  -4.417   1.164  0.00  0.00    +0.034 A 
ENDROOT
BRANCH   3   7
ATOM      7  N   UNL     1      -2.639  -2.431  -2.502  0.00  0.00    -0.279 N 
ATOM      8  C   UNL     1      -3.321  -1.276  -2.635  0.00  0.00    +0.284 C 
ATOM      9  O   UNL     1      -3.998  -0.860  -1.713  0.00  0.00    -0.266 OA
ATOM     10  H   UNL     1      -2.159  -2.800  -3.260  0.00  0.00    +0.155 HD
BRANCH   8  11
ATOM     11  C   UNL     1      -3.247  -0.520  -3.889  0.00  0.00    +0.189 A 
ATOM     12  C   UNL     1      -3.884   0.658  -4.155  0.00  0.00    +0.054 A 
ATOM     13  C   UNL     1      -3.533   1.020  -5.465  0.00  0.00    +0.042 A 
ATOM     14  C   UNL     1      -2.708   0.059  -5.935  0.00  0.00    +0.196 A 
ATOM     15  O   UNL     1      -2.538  -0.867  -4.983  0.00  0.00    -0.458 OA
ENDBRANCH   8  11
ENDBRANCH   3   7
BRANCH   6  16
ATOM     16  N   UNL     1      -2.578  -5.083   2.394  0.00  0.00    -0.336 N 
ATOM     17  C   UNL     1      -1.355  -4.772   3.146  0.00  0.00    +0.129 C 
ATOM     18  C   UNL     1      -3.776  -4.763   3.182  0.00  0.00    +0.129 C 
ENDBRANCH   6  16
BRANCH   1  19
ATOM     19  C   UNL     1      -2.515  -6.649   0.021  0.00  0.00    +0.146 C 
BRANCH  19  20
ATOM     20  N   UNL     1      -2.631  -7.178  -1.340  0.00  0.00    -0.279 N 
ATOM     21  C   UNL     1      -1.535  -7.287  -2.116  0.00  0.00    +0.303 C 
ATOM     22  O   UNL     1      -0.437  -7.038  -1.657  0.00  0.00    -0.253 OA
ATOM     23  N   UNL     1      -1.655  -7.673  -3.402  0.00  0.00    -0.294 N 
ATOM     24  H   UNL     1      -2.535  -7.799  -3.790  0.00  0.00    +0.151 HD
BRANCH  23  25
ATOM     25  C   UNL     1      -0.457  -7.902  -4.213  0.00  0.00    +0.028 C 
ATOM     26  C   UNL     1       0.389  -9.005  -3.574  0.00  0.00    +0.031 C 
ATOM     27  C   UNL     1      -0.870  -8.328  -5.624  0.00  0.00    +0.031 C 
ATOM     28  C   UNL     1       0.361  -6.611  -4.290  0.00  0.00    +0.031 C 
ENDBRANCH  23  25
BRANCH  20  30
ATOM     29  C   UNL     1      -4.566  -8.611  -0.907  0.00  0.00    +0.028 C 
ATOM     30  C   UNL     1      -3.939  -7.588  -1.857  0.00  0.00    +0.072 C 
ATOM     31  C   UNL     1      -4.852  -6.365  -1.964  0.00  0.00    +0.028 C 
ENDBRANCH  20  30
ENDBRANCH  19  20
ENDBRANCH   1  19
TORSDOF 7
