REMARK  Name = ZINC39696037
REMARK  7 active torsions:
REMARK  status: ('A' for Active; 'I' for Inactive)
REMARK    1  A    between atoms: C_1  and  C_2
REMARK    2  A    between atoms: C_2  and  C_3
REMARK    3  A    between atoms: C_6  and  C_9
REMARK    4  A    between atoms: C_9  and  C_11
REMARK    5  A    between atoms: C_9  and  N_12
REMARK    6  A    between atoms: C_13  and  C_15
REMARK    7  A    between atoms: C_26  and  C_28
REMARK                            x       y       z     vdW  Elec       q    Type
REMARK                         _______ _______ _______ _____ _____    ______ ____
ROOT
ATOM      1  C   UNL     1       6.448   0.019  -6.036  0.00  0.00    +0.100 C 
ATOM      2  C   UNL     1       7.290  -0.954  -5.181  0.00  0.00    +0.121 C 
ATOM      3  N   UNL     1       7.897  -1.885  -6.161  0.00  0.00    -0.296 N 
ATOM      4  C   UNL     1       8.259  -1.024  -7.312  0.00  0.00    +0.115 C 
ATOM      5  C   UNL     1       7.089  -0.027  -7.433  0.00  0.00    -0.004 C 
ATOM      6  C   UNL     1       7.609   1.353  -7.821  0.00  0.00    -0.010 C 
ATOM      7  C   UNL     1       8.190   1.296  -9.237  0.00  0.00    -0.082 C 
ATOM      8  N   UNL     1       7.149   0.861 -10.177  0.00  0.00    +0.379 N 
ATOM      9  C   UNL     1       6.721  -0.505  -9.852  0.00  0.00    -0.082 C 
ATOM     10  C   UNL     1       6.078  -0.523  -8.463  0.00  0.00    -0.010 C 
ATOM     11  C   UNL     1       8.079  -3.215  -6.034  0.00  0.00    +0.247 C 
ATOM     12  O   UNL     1       7.614  -3.803  -5.078  0.00  0.00    -0.270 OA
ATOM     13  H   UNL     1       6.359   1.484 -10.114  0.00  0.00    -0.086 HD
ATOM     14  H   UNL     1       7.517   0.882 -11.117  0.00  0.00    -0.086 HD
ENDROOT
BRANCH  11  15
ATOM     15  C   UNL     1       8.845  -3.956  -7.058  0.00  0.00    +0.037 A 
ATOM     16  C   UNL     1       9.732  -3.279  -7.897  0.00  0.00    +0.014 A 
ATOM     17  C   UNL     1      10.443  -3.977  -8.851  0.00  0.00    +0.016 A 
ATOM     18  C   UNL     1      10.279  -5.346  -8.977  0.00  0.00    +0.018 A 
ATOM     19  C   UNL     1       9.401  -6.023  -8.147  0.00  0.00    +0.016 A 
ATOM     20  C   UNL     1       8.688  -5.338  -7.186  0.00  0.00    +0.014 A 
ATOM     21 BR   UNL     1      11.258  -6.295 -10.287  0.00  0.00    -0.050 Br
ENDBRANCH  11  15
BRANCH   1  23
ATOM     22  N   UNL     1       4.032   0.439  -6.361  0.00  0.00    -0.308 N 
ATOM     23  C   UNL     1       5.015  -0.445  -6.101  0.00  0.00    +0.219 C 
ATOM     24  O   UNL     1       4.748  -1.614  -5.919  0.00  0.00    -0.275 OA
ATOM     25  H   UNL     1       4.246   1.373  -6.507  0.00  0.00    +0.149 HD
BRANCH  22  26
ATOM     26  C   UNL     1       2.639  -0.012  -6.424  0.00  0.00    +0.100 C 
ATOM     27  C   UNL     1       2.046  -0.034  -5.014  0.00  0.00    +0.033 C 
BRANCH  26  31
ATOM     28  C   UNL     1       0.384   2.664  -8.874  0.00  0.00    -0.048 A 
ATOM     29  C   UNL     1       0.163   1.301  -8.953  0.00  0.00    +0.004 A 
ATOM     30  C   UNL     1       0.892   0.435  -8.160  0.00  0.00    +0.006 A 
ATOM     31  C   UNL     1       1.844   0.932  -7.289  0.00  0.00    -0.027 A 
ATOM     32  C   UNL     1       2.067   2.294  -7.211  0.00  0.00    +0.006 A 
ATOM     33  C   UNL     1       1.340   3.159  -8.007  0.00  0.00    +0.004 A 
BRANCH  28  35
ATOM     34  C   UNL     1       0.316   3.818 -11.067  0.00  0.00    +0.009 C 
ATOM     35  C   UNL     1      -0.411   3.608  -9.738  0.00  0.00    +0.032 C 
ENDBRANCH  28  35
ENDBRANCH  26  31
ENDBRANCH  22  26
ENDBRANCH   1  23
TORSDOF 5
