REMARK  Name = ZINC04677668
REMARK  8 active torsions:
REMARK  status: ('A' for Active; 'I' for Inactive)
REMARK    1  A    between atoms: C_1  and  C_2
REMARK    2  A    between atoms: C_2  and  O_3
REMARK    3  A    between atoms: O_3  and  C_4
REMARK    4  A    between atoms: C_7  and  C_10
REMARK    5  A    between atoms: C_12  and  C_16
REMARK    6  A    between atoms: N_18  and  N_19
REMARK    7  A    between atoms: C_20  and  C_21
REMARK    8  A    between atoms: C_20  and  C_22
REMARK                            x       y       z     vdW  Elec       q    Type
REMARK                         _______ _______ _______ _____ _____    ______ ____
ROOT
ATOM      1  C   UNL     1      -4.107  -4.236  -0.406  0.00  0.00    +0.093 A 
ATOM      2  C   UNL     1      -4.625  -2.930  -0.485  0.00  0.00    +0.062 A 
ATOM      3  C   UNL     1      -3.540  -2.095  -0.294  0.00  0.00    +0.122 A 
ATOM      4  N   UNL     1      -2.454  -2.906  -0.119  0.00  0.00    -0.272 N 
ATOM      5  H   UNL     1      -1.518  -2.588   0.036  0.00  0.00    +0.189 HD
ATOM      6  N   UNL     1      -2.813  -4.137  -0.184  0.00  0.00    -0.173 NA
ENDROOT
BRANCH   1  10
ATOM      7  C   UNL     1      -6.320  -7.847  -0.812  0.00  0.00    +0.121 A 
ATOM      8  C   UNL     1      -4.952  -7.895  -0.577  0.00  0.00    +0.046 A 
ATOM      9  C   UNL     1      -4.232  -6.726  -0.446  0.00  0.00    +0.013 A 
ATOM     10  C   UNL     1      -4.879  -5.496  -0.547  0.00  0.00    +0.002 A 
ATOM     11  C   UNL     1      -6.253  -5.450  -0.776  0.00  0.00    +0.013 A 
ATOM     12  C   UNL     1      -6.967  -6.623  -0.913  0.00  0.00    +0.046 A 
BRANCH   7  13
ATOM     13  O   UNL     1      -7.026  -9.000  -0.941  0.00  0.00    -0.492 OA
BRANCH  13  15
ATOM     14  C   UNL     1      -9.051 -10.271  -1.298  0.00  0.00    +0.048 C 
ATOM     15  C   UNL     1      -8.430  -8.877  -1.181  0.00  0.00    +0.225 C 
ENDBRANCH  13  15
ENDBRANCH   7  13
ENDBRANCH   1  10
BRANCH   3  16
ATOM     16  C   UNL     1      -3.551  -0.624  -0.285  0.00  0.00    +0.281 C 
ATOM     17  O   UNL     1      -4.595  -0.023  -0.460  0.00  0.00    -0.267 OA
ATOM     18  N   UNL     1      -2.406   0.058  -0.084  0.00  0.00    -0.201 N 
ATOM     19  H   UNL     1      -1.575  -0.422   0.055  0.00  0.00    +0.178 HD
BRANCH  18  20
ATOM     20  N   UNL     1      -2.417   1.459  -0.077  0.00  0.00    -0.184 NA
ATOM     21  C   UNL     1      -1.340   2.114   0.231  0.00  0.00    +0.063 C 
ATOM     22  C   UNL     1      -1.300   3.613   0.075  0.00  0.00    +0.068 C 
BRANCH  21  23
ATOM     23  C   UNL     1      -0.156   1.393   0.732  0.00  0.00    +0.000 A 
ATOM     24  C   UNL     1      -0.311   0.275   1.554  0.00  0.00    +0.029 A 
ATOM     25  C   UNL     1       0.801  -0.393   2.025  0.00  0.00    +0.043 A 
ATOM     26  C   UNL     1       2.070   0.044   1.684  0.00  0.00    +0.040 A 
ATOM     27  C   UNL     1       2.232   1.152   0.870  0.00  0.00    +0.043 A 
ATOM     28  C   UNL     1       1.127   1.829   0.392  0.00  0.00    +0.029 A 
ATOM     29 CL   UNL     1       3.827   1.692   0.447  0.00  0.00    -0.083 Cl
ATOM     30 CL   UNL     1       0.610  -1.784   3.046  0.00  0.00    -0.083 Cl
ENDBRANCH  21  23
ENDBRANCH  18  20
ENDBRANCH   3  16
TORSDOF 6
