REMARK  Name = ZINC20910626
REMARK  13 active torsions:
REMARK  status: ('A' for Active; 'I' for Inactive)
REMARK    1  A    between atoms: C_1  and  C_2
REMARK    2  A    between atoms: C_2  and  C_3
REMARK    3  A    between atoms: C_3  and  S_4
REMARK    4  A    between atoms: S_4  and  C_5
REMARK    5  A    between atoms: C_10  and  N_14
REMARK    6  A    between atoms: C_15  and  C_17
REMARK    7  A    between atoms: C_17  and  S_18
REMARK    8  A    between atoms: S_18  and  C_19
REMARK    9  A    between atoms: N_24  and  N_25
REMARK   10  A    between atoms: C_26  and  C_27
REMARK   11  A    between atoms: N_30  and  C_32
REMARK   12  A    between atoms: C_32  and  C_33
REMARK   13  A    between atoms: C_32  and  C_34
REMARK                            x       y       z     vdW  Elec       q    Type
REMARK                         _______ _______ _______ _____ _____    ______ ____
ROOT
ATOM      1  S   UNL     1      -3.244  -8.144  -0.396  0.00  0.00    -0.075 S 
ENDROOT
BRANCH   1   2
ATOM      2  C   UNL     1      -2.411  -6.591  -0.367  0.00  0.00    +0.211 A 
ATOM      3  N   UNL     1      -2.997  -5.364  -0.492  0.00  0.00    -0.186 NA
ATOM      4  C   UNL     1      -2.014  -4.417  -0.417  0.00  0.00    +0.232 A 
ATOM      5  N   UNL     1      -0.868  -5.034  -0.258  0.00  0.00    -0.245 N 
ATOM      6  N   UNL     1      -1.120  -6.412  -0.220  0.00  0.00    -0.144 NA
ATOM      7  N   UNL     1      -2.195  -3.044  -0.500  0.00  0.00    -0.205 N 
ATOM      8  H   UNL     1      -3.205  -2.630  -0.639  0.00  0.00    +0.177 HD
ATOM      9  H   UNL     1       0.064  -4.454  -0.180  0.00  0.00    +0.192 HD
BRANCH   7  10
ATOM     10  N   UNL     1      -1.093  -2.184  -0.407  0.00  0.00    -0.187 NA
ATOM     11  C   UNL     1      -1.263  -0.900  -0.485  0.00  0.00    +0.141 C 
BRANCH  11  12
ATOM     12  C   UNL     1      -0.101   0.005  -0.387  0.00  0.00    +0.032 A 
ATOM     13  C   UNL     1       1.246  -0.377  -0.209  0.00  0.00    +0.143 A 
ATOM     14  N   UNL     1       1.974   0.706  -0.171  0.00  0.00    -0.179 NA
ATOM     15  N   UNL     1       1.139   1.818  -0.320  0.00  0.00    -0.268 N 
ATOM     16  C   UNL     1      -0.131   1.381  -0.452  0.00  0.00    +0.118 A 
BRANCH  15  17
ATOM     17  C   UNL     1       1.569   3.219  -0.332  0.00  0.00    +0.101 C 
ATOM     18  C   UNL     1       1.770   3.679  -1.777  0.00  0.00    +0.032 C 
ATOM     19  C   UNL     1       0.500   4.086   0.336  0.00  0.00    +0.032 C 
ENDBRANCH  15  17
ENDBRANCH  11  12
ENDBRANCH   7  10
ENDBRANCH   1   2
BRANCH   1  20
ATOM     20  C   UNL     1      -1.914  -9.359  -0.183  0.00  0.00    +0.173 C 
BRANCH  20  22
ATOM     21  N   UNL     1      -1.691 -11.819  -0.045  0.00  0.00    -0.285 N 
ATOM     22  C   UNL     1      -2.497 -10.749  -0.190  0.00  0.00    +0.227 C 
ATOM     23  O   UNL     1      -3.693 -10.904  -0.325  0.00  0.00    -0.275 OA
ATOM     24  H   UNL     1      -0.600 -11.684  -0.009  0.00  0.00    +0.155 HD
BRANCH  21  30
ATOM     25  C   UNL     1      -5.147 -16.956   1.022  0.00  0.00    +0.136 A 
ATOM     26  N   UNL     1      -3.980 -16.872   0.425  0.00  0.00    -0.233 NA
ATOM     27  C   UNL     1      -3.334 -15.696   0.257  0.00  0.00    +0.080 A 
ATOM     28  C   UNL     1      -2.084 -15.470  -0.363  0.00  0.00    +0.031 A 
ATOM     29  C   UNL     1      -1.563 -14.206  -0.453  0.00  0.00    +0.025 A 
ATOM     30  C   UNL     1      -2.243 -13.103   0.059  0.00  0.00    +0.035 A 
ATOM     31  C   UNL     1      -3.471 -13.292   0.679  0.00  0.00    +0.040 A 
ATOM     32  C   UNL     1      -3.997 -14.556   0.766  0.00  0.00    +0.042 A 
ATOM     33  S   UNL     1      -5.485 -15.252   1.443  0.00  0.00    -0.061 S 
BRANCH  25  34
ATOM     34  S   UNL     1      -6.130 -18.386   1.330  0.00  0.00    -0.099 S 
BRANCH  34  35
ATOM     35  C   UNL     1      -5.073 -19.658   0.595  0.00  0.00    +0.076 C 
BRANCH  35  37
ATOM     36  C   UNL     1      -4.848 -22.102   0.127  0.00  0.00    +0.004 C 
ATOM     37  C   UNL     1      -5.741 -21.026   0.748  0.00  0.00    +0.008 C 
ENDBRANCH  35  37
ENDBRANCH  34  35
ENDBRANCH  25  34
ENDBRANCH  21  30
ENDBRANCH  20  22
ENDBRANCH   1  20
TORSDOF 10
