REMARK  Name = ZINC30994966
REMARK  7 active torsions:
REMARK  status: ('A' for Active; 'I' for Inactive)
REMARK    1  A    between atoms: C_1  and  C_2
REMARK    2  A    between atoms: C_2  and  C_3
REMARK    3  A    between atoms: C_2  and  N_4
REMARK    4  A    between atoms: N_7  and  C_8
REMARK    5  A    between atoms: C_11  and  N_14
REMARK    6  A    between atoms: C_15  and  C_17
REMARK    7  A    between atoms: N_22  and  C_24
REMARK                            x       y       z     vdW  Elec       q    Type
REMARK                         _______ _______ _______ _____ _____    ______ ____
ROOT
ATOM      1  C   UNL     1       8.218   1.432  -1.980  0.00  0.00    +0.035 A 
ATOM      2  C   UNL     1       7.701   2.654  -1.571  0.00  0.00    +0.025 A 
ATOM      3  C   UNL     1       6.470   2.710  -0.949  0.00  0.00    +0.025 A 
ATOM      4  C   UNL     1       5.749   1.543  -0.731  0.00  0.00    +0.034 A 
ATOM      5  C   UNL     1       6.269   0.320  -1.134  0.00  0.00    +0.025 A 
ATOM      6  C   UNL     1       7.497   0.265  -1.761  0.00  0.00    +0.025 A 
ENDROOT
BRANCH   1  10
ATOM      7  N   UNL     1      10.854   0.485  -4.265  0.00  0.00    -0.297 N 
ATOM      8  C   UNL     1       9.685   0.478  -3.594  0.00  0.00    +0.304 C 
ATOM      9  O   UNL     1       8.828  -0.337  -3.874  0.00  0.00    -0.253 OA
ATOM     10  N   UNL     1       9.467   1.375  -2.612  0.00  0.00    -0.269 N 
ATOM     11  H   UNL     1      11.630   1.222  -4.011  0.00  0.00    +0.151 HD
ATOM     12  H   UNL     1      10.269   2.063  -2.307  0.00  0.00    +0.156 HD
BRANCH   7  14
ATOM     13  C   UNL     1      10.504   0.035  -6.643  0.00  0.00    +0.027 C 
ATOM     14  C   UNL     1      11.091  -0.491  -5.332  0.00  0.00    +0.068 C 
ATOM     15  C   UNL     1      12.597  -0.708  -5.498  0.00  0.00    +0.027 C 
ENDBRANCH   7  14
ENDBRANCH   1  10
BRANCH   4  16
ATOM     16  N   UNL     1       4.500   1.600  -0.099  0.00  0.00    -0.285 N 
ATOM     17  C   UNL     1       3.531   0.728  -0.443  0.00  0.00    +0.222 C 
ATOM     18  O   UNL     1       3.707  -0.044  -1.361  0.00  0.00    -0.275 OA
ATOM     19  H   UNL     1       4.310   2.355   0.677  0.00  0.00    +0.155 HD
BRANCH  17  20
ATOM     20  C   UNL     1       2.228   0.713   0.315  0.00  0.00    +0.101 C 
ATOM     21  C   UNL     1       1.427   2.011   0.063  0.00  0.00    +0.110 C 
ATOM     22  C   UNL     1      -0.015   1.554   0.013  0.00  0.00    +0.217 C 
ATOM     23  O   UNL     1      -0.979   2.284   0.107  0.00  0.00    -0.276 OA
ATOM     24  N   UNL     1      -0.071   0.222  -0.158  0.00  0.00    -0.298 N 
ATOM     25  C   UNL     1       1.272  -0.361  -0.251  0.00  0.00    +0.121 C 
BRANCH  24  26
ATOM     26  C   UNL     1      -1.314  -0.548  -0.241  0.00  0.00    +0.076 C 
ATOM     27  C   UNL     1      -2.194  -0.010  -1.389  0.00  0.00    +0.022 C 
ATOM     28  C   UNL     1      -3.640  -0.123  -0.844  0.00  0.00    +0.002 C 
ATOM     29  C   UNL     1      -3.474   0.258   0.648  0.00  0.00    +0.002 C 
ATOM     30  C   UNL     1      -2.128  -0.378   1.054  0.00  0.00    +0.022 C 
ENDBRANCH  24  26
ENDBRANCH  17  20
ENDBRANCH   4  16
TORSDOF 5
