REMARK  Name = ZINC32972043
REMARK  20 active torsions:
REMARK  status: ('A' for Active; 'I' for Inactive)
REMARK    1  A    between atoms: C_1  and  C_2
REMARK    2  A    between atoms: C_2  and  O_3
REMARK    3  A    between atoms: O_3  and  C_4
REMARK    4  A    between atoms: C_4  and  C_6
REMARK    5  A    between atoms: C_7  and  C_39
REMARK    6  A    between atoms: C_8  and  C_13
REMARK    7  A    between atoms: C_11  and  C_12
REMARK    8  A    between atoms: N_15  and  C_16
REMARK    9  A    between atoms: N_15  and  C_17
REMARK   10  A    between atoms: C_17  and  C_18
REMARK   11  A    between atoms: N_20  and  C_21
REMARK   12  A    between atoms: N_20  and  C_25
REMARK   13  A    between atoms: C_21  and  C_22
REMARK   14  A    between atoms: C_22  and  C_23
REMARK   15  A    between atoms: C_22  and  C_24
REMARK   16  A    between atoms: C_26  and  N_38
REMARK   17  A    between atoms: N_27  and  C_34
REMARK   18  A    between atoms: C_34  and  C_35
REMARK   19  A    between atoms: C_35  and  C_36
REMARK   20  A    between atoms: C_35  and  C_37
REMARK                            x       y       z     vdW  Elec       q    Type
REMARK                         _______ _______ _______ _____ _____    ______ ____
ROOT
ATOM      1  C   UNL     1      -0.584   0.966  -0.142  0.00  0.00    +0.237 C 
ATOM      2  O   UNL     1      -0.455  -0.125  -0.657  0.00  0.00    -0.274 OA
ATOM      3  N   UNL     1       0.505   1.664   0.241  0.00  0.00    -0.263 N 
ENDROOT
BRANCH   3   4
ATOM      4  C   UNL     1       1.788   1.083   0.139  0.00  0.00    +0.140 A 
ATOM      5  C   UNL     1       2.560   0.885   1.265  0.00  0.00    +0.127 A 
ATOM      6  N   UNL     1       3.805   0.316   1.133  0.00  0.00    -0.280 N 
ATOM      7  C   UNL     1       4.265  -0.042  -0.079  0.00  0.00    +0.331 A 
ATOM      8  O   UNL     1       5.369  -0.543  -0.175  0.00  0.00    -0.246 OA
ATOM      9  N   UNL     1       3.527   0.145  -1.188  0.00  0.00    -0.273 N 
ATOM     10  H   UNL     1       3.925  -0.151  -2.170  0.00  0.00    +0.173 HD
ATOM     11  C   UNL     1       2.298   0.692  -1.113  0.00  0.00    +0.277 A 
ATOM     12  O   UNL     1       1.635   0.852  -2.124  0.00  0.00    -0.266 OA
BRANCH   5  13
ATOM     13  N   UNL     1       2.090   1.251   2.504  0.00  0.00    -0.343 N 
ATOM     14  H   UNL     1       2.711   1.089   3.397  0.00  0.00    +0.144 HD
ATOM     15  H   UNL     1       1.093   1.705   2.602  0.00  0.00    +0.144 HD
ENDBRANCH   5  13
BRANCH   6  16
ATOM     16  C   UNL     1       4.636   0.099   2.320  0.00  0.00    +0.131 C 
BRANCH  16  17
ATOM     17  C   UNL     1       4.345  -1.287   2.900  0.00  0.00    +0.003 C 
ATOM     18  C   UNL     1       4.780  -2.360   1.899  0.00  0.00    +0.009 C 
ATOM     19  C   UNL     1       5.118  -1.466   4.208  0.00  0.00    +0.009 C 
ENDBRANCH  16  17
ENDBRANCH   6  16
ENDBRANCH   3   4
BRANCH   1  20
ATOM     20  C   UNL     1      -1.960   1.544   0.065  0.00  0.00    +0.204 C 
BRANCH  20  23
ATOM     21  C   UNL     1      -3.418   0.524  -1.600  0.00  0.00    +0.263 C 
ATOM     22  O   UNL     1      -2.905   1.233  -2.446  0.00  0.00    -0.268 OA
ATOM     23  N   UNL     1      -2.968   0.557  -0.330  0.00  0.00    -0.291 N 
ATOM     24  C   UNL     1      -3.487  -0.395   0.655  0.00  0.00    +0.133 C 
BRANCH  21  27
ATOM     25  C   UNL     1      -6.058  -1.511  -3.117  0.00  0.00    +0.083 A 
ATOM     26  C   UNL     1      -4.991  -0.590  -3.226  0.00  0.00    -0.006 A 
ATOM     27  C   UNL     1      -4.527  -0.367  -1.963  0.00  0.00    +0.106 A 
ATOM     28  N   UNL     1      -5.282  -1.115  -1.086  0.00  0.00    -0.354 N 
ATOM     29  H   UNL     1      -5.071  -1.075  -0.007  0.00  0.00    +0.166 HD
ATOM     30  C   UNL     1      -6.204  -1.806  -1.774  0.00  0.00    +0.028 A 
ATOM     31  C   UNL     1      -7.226  -2.743  -1.183  0.00  0.00    +0.064 C 
ATOM     32  C   UNL     1      -4.465   0.026  -4.496  0.00  0.00    +0.047 C 
BRANCH  25  33
ATOM     33  C   UNL     1      -6.865  -2.051  -4.224  0.00  0.00    +0.341 C 
ATOM     34  O   UNL     1      -7.873  -1.473  -4.580  0.00  0.00    -0.245 OA
BRANCH  33  35
ATOM     35  O   UNL     1      -6.485  -3.186  -4.844  0.00  0.00    -0.461 OA
BRANCH  35  37
ATOM     36  C   UNL     1      -6.741  -4.949  -6.504  0.00  0.00    +0.048 C 
ATOM     37  C   UNL     1      -7.328  -3.659  -5.927  0.00  0.00    +0.229 C 
ENDBRANCH  35  37
ENDBRANCH  33  35
ENDBRANCH  25  33
ENDBRANCH  21  27
ENDBRANCH  20  23
ENDBRANCH   1  20
BRANCH   3  38
ATOM     38  C   UNL     1       0.357   3.025   0.764  0.00  0.00    +0.117 C 
BRANCH  38  39
ATOM     39  C   UNL     1       0.491   4.029  -0.383  0.00  0.00    +0.001 C 
ATOM     40  C   UNL     1       0.184   5.436   0.133  0.00  0.00    +0.009 C 
ATOM     41  C   UNL     1       1.918   3.987  -0.933  0.00  0.00    +0.009 C 
ENDBRANCH  38  39
ENDBRANCH   3  38
TORSDOF 12
