REMARK  Name = ZINC40304911
REMARK  6 active torsions:
REMARK  status: ('A' for Active; 'I' for Inactive)
REMARK    1  A    between atoms: C_6  and  N_7
REMARK    2  A    between atoms: C_11  and  C_12
REMARK    3  A    between atoms: N_14  and  C_15
REMARK    4  A    between atoms: N_14  and  C_18
REMARK    5  A    between atoms: C_15  and  C_16
REMARK    6  A    between atoms: C_16  and  O_17
REMARK                            x       y       z     vdW  Elec       q    Type
REMARK                         _______ _______ _______ _____ _____    ______ ____
ROOT
ATOM      1  C   UNL     1      -0.119   2.563  -1.371  0.00  0.00    +0.023 A 
ATOM      2  C   UNL     1       1.137   3.023  -1.090  0.00  0.00    +0.012 A 
ATOM      3  C   UNL     1       2.209   2.135  -1.052  0.00  0.00    +0.012 A 
ATOM      4  C   UNL     1       2.004   0.768  -1.301  0.00  0.00    +0.049 A 
ATOM      5  C   UNL     1       0.721   0.313  -1.587  0.00  0.00    +0.049 A 
ATOM      6  C   UNL     1      -0.334   1.209  -1.620  0.00  0.00    +0.027 A 
ATOM      7  N   UNL     1       3.227   0.139  -1.197  0.00  0.00    -0.360 N 
ATOM      8  H   UNL     1       3.374  -0.811  -1.323  0.00  0.00    +0.165 HD
ATOM      9  C   UNL     1       4.196   1.038  -0.894  0.00  0.00    +0.096 A 
ATOM     10  C   UNL     1       3.653   2.284  -0.788  0.00  0.00    +0.062 A 
ENDROOT
BRANCH   6  11
ATOM     11  N   UNL     1      -1.624   0.753  -1.906  0.00  0.00    -0.358 N 
ATOM     12  H   UNL     1      -2.365   1.377  -1.930  0.00  0.00    +0.142 HD
ATOM     13  H   UNL     1      -1.777  -0.189  -2.080  0.00  0.00    +0.142 HD
ENDBRANCH   6  11
BRANCH  10  14
ATOM     14  C   UNL     1       4.365   3.530  -0.474  0.00  0.00    +0.249 C 
ATOM     15  O   UNL     1       3.843   4.604  -0.705  0.00  0.00    -0.270 OA
ATOM     16  N   UNL     1       5.598   3.483   0.070  0.00  0.00    -0.292 N 
BRANCH  16  17
ATOM     17  C   UNL     1       6.237   4.713   0.542  0.00  0.00    +0.077 C 
ATOM     18  C   UNL     1       5.355   5.953   0.698  0.00  0.00    +0.024 C 
ATOM     19  C   UNL     1       6.362   5.870  -0.450  0.00  0.00    +0.024 C 
ENDBRANCH  16  17
BRANCH  16  20
ATOM     20  C   UNL     1       6.298   2.201   0.188  0.00  0.00    +0.136 C 
BRANCH  20  21
ATOM     21  C   UNL     1       6.935   1.842  -1.156  0.00  0.00    +0.174 C 
BRANCH  21  22
ATOM     22  O   UNL     1       7.948   2.798  -1.474  0.00  0.00    -0.393 OA
ATOM     23  H   UNL     1       8.395   2.632  -2.315  0.00  0.00    +0.209 HD
ENDBRANCH  21  22
ENDBRANCH  20  21
ENDBRANCH  16  20
ENDBRANCH  10  14
TORSDOF 6
