REMARK  Name = ZINC43706753
REMARK  5 active torsions:
REMARK  status: ('A' for Active; 'I' for Inactive)
REMARK    1  A    between atoms: C_1  and  C_2
REMARK    2  A    between atoms: C_2  and  C_3
REMARK    3  A    between atoms: C_3  and  N_4
REMARK    4  A    between atoms: N_4  and  C_5
REMARK    5  A    between atoms: C_17  and  C_20
REMARK                            x       y       z     vdW  Elec       q    Type
REMARK                         _______ _______ _______ _____ _____    ______ ____
ROOT
ATOM      1  N   UNL     1       1.023  -2.099  -1.412  0.00  0.00    -0.283 N 
ATOM      2  C   UNL     1       1.413  -2.139  -0.122  0.00  0.00    +0.305 C 
ATOM      3  O   UNL     1       1.899  -1.153   0.397  0.00  0.00    -0.252 OA
ATOM      4  N   UNL     1       1.264  -3.272   0.592  0.00  0.00    -0.280 N 
ATOM      5  C   UNL     1       0.291  -4.300   0.188  0.00  0.00    +0.137 C 
ATOM      6  C   UNL     1      -0.568  -4.658   1.407  0.00  0.00    +0.180 C 
ATOM      7  O   UNL     1       0.287  -4.989   2.504  0.00  0.00    -0.362 OA
ATOM      8  C   UNL     1       1.123  -3.915   2.939  0.00  0.00    +0.248 C 
ATOM      9  C   UNL     1       2.073  -3.521   1.796  0.00  0.00    +0.152 C 
ENDROOT
BRANCH   1  10
ATOM     10  C   UNL     1      -0.309  -2.578  -1.789  0.00  0.00    +0.074 C 
ATOM     11  C   UNL     1      -1.234  -2.534  -0.569  0.00  0.00    +0.003 C 
ATOM     12  C   UNL     1      -2.600  -3.110  -0.950  0.00  0.00    -0.081 C 
ATOM     13  N   UNL     1      -2.442  -4.498  -1.398  0.00  0.00    +0.379 N 
ATOM     14  C   UNL     1      -1.615  -4.541  -2.610  0.00  0.00    -0.081 C 
ATOM     15  C   UNL     1      -0.212  -4.021  -2.292  0.00  0.00    +0.003 C 
ATOM     16  H   UNL     1      -1.998  -5.037  -0.669  0.00  0.00    -0.086 HD
ATOM     17  H   UNL     1      -3.350  -4.891  -1.597  0.00  0.00    -0.086 HD
ENDBRANCH   1  10
BRANCH   8  18
ATOM     18  C   UNL     1       1.930  -4.357   4.133  0.00  0.00    +0.386 C 
ATOM     19  O   UNL     1       1.869  -5.513   4.515  0.00  0.00    -0.243 OA
ATOM     20  O   UNL     1       2.643  -3.558   4.716  0.00  0.00    -0.243 OA
ENDBRANCH   8  18
BRANCH   1  21
ATOM     21  C   UNL     1       1.931  -1.577  -2.436  0.00  0.00    +0.109 C 
BRANCH  21  23
ATOM     22  C   UNL     1       2.536   0.430  -3.795  0.00  0.00    +0.005 C 
ATOM     23  C   UNL     1       1.587  -0.115  -2.725  0.00  0.00    +0.016 C 
ENDBRANCH  21  23
ENDBRANCH   1  21
TORSDOF 4
