REMARK  Name = ZINC19912261
REMARK  6 active torsions:
REMARK  status: ('A' for Active; 'I' for Inactive)
REMARK    1  A    between atoms: C_6  and  C_7
REMARK    2  A    between atoms: N_9  and  C_10
REMARK    3  A    between atoms: C_10  and  C_12
REMARK    4  A    between atoms: C_10  and  N_16
REMARK    5  A    between atoms: N_16  and  C_17
REMARK    6  A    between atoms: C_20  and  N_23
REMARK                            x       y       z     vdW  Elec       q    Type
REMARK                         _______ _______ _______ _____ _____    ______ ____
ROOT
ATOM      1  C   UNL     1       1.453   1.798   0.067  0.00  0.00    +0.210 C 
ENDROOT
BRANCH   1   4
ATOM      2  C   UNL     1      -0.955   1.815   0.441  0.00  0.00    +0.246 C 
ATOM      3  O   UNL     1      -0.924   3.029   0.391  0.00  0.00    -0.270 OA
ATOM      4  N   UNL     1       0.181   1.106   0.293  0.00  0.00    -0.290 N 
ATOM      5  H   UNL     1       0.155   0.007   0.342  0.00  0.00    +0.151 HD
BRANCH   2  11
ATOM      6  C   UNL     1      -2.277  -0.278   0.714  0.00  0.00    +0.014 A 
ATOM      7  C   UNL     1      -3.477  -0.924   0.927  0.00  0.00    +0.016 A 
ATOM      8  C   UNL     1      -4.643  -0.193   1.079  0.00  0.00    +0.018 A 
ATOM      9  C   UNL     1      -4.612   1.190   1.023  0.00  0.00    +0.016 A 
ATOM     10  C   UNL     1      -3.417   1.848   0.816  0.00  0.00    +0.014 A 
ATOM     11  C   UNL     1      -2.238   1.116   0.662  0.00  0.00    +0.037 A 
ATOM     12 BR   UNL     1      -6.285  -1.087   1.363  0.00  0.00    -0.050 Br
ENDBRANCH   2  11
ENDBRANCH   1   4
BRANCH   1  13
ATOM     13  C   UNL     1       2.536   1.177   0.952  0.00  0.00    +0.225 C 
ATOM     14 CL   UNL     1       2.721  -0.568   0.541  0.00  0.00    -0.080 Cl
ATOM     15 CL   UNL     1       4.100   2.029   0.673  0.00  0.00    -0.080 Cl
ATOM     16 CL   UNL     1       2.062   1.340   2.684  0.00  0.00    -0.080 Cl
ENDBRANCH   1  13
BRANCH   1  17
ATOM     17  N   UNL     1       1.837   1.665  -1.341  0.00  0.00    -0.323 N 
ATOM     18  H   UNL     1       2.244   0.713  -1.713  0.00  0.00    +0.148 HD
BRANCH  17  19
ATOM     19  C   UNL     1       1.688   2.748  -2.210  0.00  0.00    +0.029 A 
ATOM     20  C   UNL     1       2.161   2.665  -3.514  0.00  0.00    +0.025 A 
ATOM     21  C   UNL     1       2.007   3.735  -4.373  0.00  0.00    +0.034 A 
ATOM     22  C   UNL     1       1.393   4.894  -3.933  0.00  0.00    +0.126 A 
ATOM     23  C   UNL     1       0.926   4.982  -2.634  0.00  0.00    +0.034 A 
ATOM     24  C   UNL     1       1.072   3.913  -1.772  0.00  0.00    +0.025 A 
BRANCH  22  25
ATOM     25  N   UNL     1       1.234   6.041  -4.854  0.00  0.00    +0.056 N 
ATOM     26  O   UNL     1       0.693   7.062  -4.468  0.00  0.00    -0.126 OA
ATOM     27  O   UNL     1       1.645   5.964  -5.998  0.00  0.00    -0.126 OA
ENDBRANCH  22  25
ENDBRANCH  17  19
ENDBRANCH   1  17
TORSDOF 6
