REMARK  Name = ZINC40134614
REMARK  10 active torsions:
REMARK  status: ('A' for Active; 'I' for Inactive)
REMARK    1  A    between atoms: C_1  and  C_2
REMARK    2  A    between atoms: C_2  and  N_3
REMARK    3  A    between atoms: C_4  and  C_6
REMARK    4  A    between atoms: C_6  and  N_12
REMARK    5  A    between atoms: C_13  and  C_15
REMARK    6  A    between atoms: C_15  and  C_16
REMARK    7  A    between atoms: C_17  and  C_28
REMARK    8  A    between atoms: C_21  and  S_26
REMARK    9  A    between atoms: C_24  and  C_25
REMARK   10  A    between atoms: S_26  and  C_27
REMARK                            x       y       z     vdW  Elec       q    Type
REMARK                         _______ _______ _______ _____ _____    ______ ____
ROOT
ATOM      1  N   UNL     1       2.494  -1.215   3.100  0.00  0.00    -0.301 N 
ATOM      2  C   UNL     1       2.273   0.061   3.473  0.00  0.00    +0.218 C 
ATOM      3  O   UNL     1       1.145   0.433   3.722  0.00  0.00    -0.275 OA
ATOM      4  H   UNL     1       3.402  -1.531   2.966  0.00  0.00    +0.150 HD
ENDROOT
BRANCH   1   5
ATOM      5  C   UNL     1       1.365  -2.125   2.896  0.00  0.00    +0.111 C 
ATOM      6  C   UNL     1       1.889  -3.512   2.516  0.00  0.00    +0.035 C 
ATOM      7  C   UNL     1       2.702  -3.412   1.224  0.00  0.00    +0.003 C 
ATOM      8  C   UNL     1       1.812  -2.877   0.100  0.00  0.00    +0.000 C 
ATOM      9  C   UNL     1       1.288  -1.491   0.481  0.00  0.00    +0.003 C 
ATOM     10  C   UNL     1       0.474  -1.591   1.773  0.00  0.00    +0.035 C 
BRANCH   5  12
ATOM     11  N   UNL     1       1.186  -2.171   5.363  0.00  0.00    -0.314 N 
ATOM     12  C   UNL     1       0.563  -2.223   4.169  0.00  0.00    +0.237 C 
ATOM     13  O   UNL     1      -0.642  -2.350   4.118  0.00  0.00    -0.273 OA
ATOM     14  H   UNL     1       2.139  -1.998   5.406  0.00  0.00    +0.149 HD
BRANCH  11  16
ATOM     15  C   UNL     1       1.333  -2.146   7.804  0.00  0.00    +0.024 C 
ATOM     16  C   UNL     1       0.422  -2.375   6.597  0.00  0.00    +0.101 C 
ENDBRANCH  11  16
ENDBRANCH   5  12
ENDBRANCH   1   5
BRANCH   2  17
ATOM     17  C   UNL     1       3.426   1.025   3.581  0.00  0.00    +0.134 C 
BRANCH  17  18
ATOM     18  C   UNL     1       2.932   2.339   4.130  0.00  0.00    +0.004 A 
ATOM     19  C   UNL     1       2.388   3.304   3.275  0.00  0.00    +0.047 A 
ATOM     20  N   UNL     1       1.958   4.449   3.756  0.00  0.00    -0.216 NA
ATOM     21  C   UNL     1       2.031   4.714   5.066  0.00  0.00    +0.254 A 
ATOM     22  N   UNL     1       1.673   5.772   5.786  0.00  0.00    -0.183 NA
ATOM     23  C   UNL     1       1.952   5.556   7.070  0.00  0.00    +0.211 A 
ATOM     24  N   UNL     1       2.493   4.362   7.206  0.00  0.00    -0.137 NA
ATOM     25  N   UNL     1       2.557   3.793   5.927  0.00  0.00    -0.200 N 
ATOM     26  C   UNL     1       3.005   2.598   5.462  0.00  0.00    +0.049 A 
ATOM     27  C   UNL     1       3.580   1.576   6.409  0.00  0.00    +0.066 C 
ATOM     28  C   UNL     1       2.295   3.029   1.796  0.00  0.00    +0.066 C 
BRANCH  23  29
ATOM     29  S   UNL     1       1.647   6.691   8.382  0.00  0.00    -0.088 S 
ATOM     30  C   UNL     1       0.903   8.126   7.558  0.00  0.00    +0.093 C 
ENDBRANCH  23  29
ENDBRANCH  17  18
ENDBRANCH   2  17
TORSDOF 6
