REMARK  Name = ZINC60318907
REMARK  5 active torsions:
REMARK  status: ('A' for Active; 'I' for Inactive)
REMARK    1  A    between atoms: C_4  and  N_24
REMARK    2  A    between atoms: C_5  and  N_7
REMARK    3  A    between atoms: C_8  and  C_10
REMARK    4  A    between atoms: N_15  and  C_17
REMARK    5  A    between atoms: N_24  and  C_25
REMARK                            x       y       z     vdW  Elec       q    Type
REMARK                         _______ _______ _______ _____ _____    ______ ____
ROOT
ATOM      1  C   UNL     1       1.996   0.816  -1.791  0.00  0.00    +0.002 A 
ATOM      2  C   UNL     1       3.255   1.365  -1.950  0.00  0.00    +0.002 A 
ATOM      3  C   UNL     1       4.380   0.572  -1.819  0.00  0.00    +0.025 A 
ATOM      4  C   UNL     1       4.247  -0.777  -1.527  0.00  0.00    +0.049 A 
ATOM      5  C   UNL     1       2.977  -1.330  -1.365  0.00  0.00    +0.055 A 
ATOM      6  C   UNL     1       1.854  -0.527  -1.499  0.00  0.00    +0.025 A 
ENDROOT
BRANCH   5   7
ATOM      7  N   UNL     1       2.836  -2.692  -1.070  0.00  0.00    -0.279 N 
ATOM      8  C   UNL     1       1.711  -3.345  -1.422  0.00  0.00    +0.268 C 
ATOM      9  O   UNL     1       0.865  -2.781  -2.089  0.00  0.00    -0.268 OA
ATOM     10  H   UNL     1       3.548  -3.165  -0.612  0.00  0.00    +0.155 HD
BRANCH   8  11
ATOM     11  C   UNL     1       1.506  -4.746  -0.998  0.00  0.00    +0.147 A 
ATOM     12  C   UNL     1       0.326  -5.431  -1.374  0.00  0.00    +0.040 A 
ATOM     13  C   UNL     1       0.171  -6.723  -0.963  0.00  0.00    +0.074 A 
ATOM     14  C   UNL     1       1.201  -7.298  -0.187  0.00  0.00    +0.272 A 
ATOM     15  O   UNL     1       1.106  -8.450   0.202  0.00  0.00    -0.266 OA
ATOM     16  N   UNL     1       2.288  -6.567   0.121  0.00  0.00    -0.196 N 
ATOM     17  N   UNL     1       2.422  -5.353  -0.276  0.00  0.00    -0.159 NA
BRANCH  16  18
ATOM     18  C   UNL     1       3.302  -7.146   0.891  0.00  0.00    +0.069 A 
ATOM     19  C   UNL     1       3.770  -6.497   2.027  0.00  0.00    +0.031 A 
ATOM     20  C   UNL     1       4.771  -7.072   2.785  0.00  0.00    +0.040 A 
ATOM     21  C   UNL     1       5.307  -8.294   2.415  0.00  0.00    +0.124 A 
ATOM     22  C   UNL     1       4.841  -8.943   1.284  0.00  0.00    +0.040 A 
ATOM     23  C   UNL     1       3.837  -8.375   0.525  0.00  0.00    +0.031 A 
ATOM     24  F   UNL     1       6.286  -8.854   3.159  0.00  0.00    -0.205 F 
ENDBRANCH  16  18
ENDBRANCH   8  11
ENDBRANCH   5   7
BRANCH   4  25
ATOM     25  N   UNL     1       5.385  -1.581  -1.394  0.00  0.00    -0.337 N 
ATOM     26  H   UNL     1       5.295  -2.505  -1.111  0.00  0.00    +0.147 HD
BRANCH  25  27
ATOM     27  C   UNL     1       6.710  -1.028  -1.682  0.00  0.00    +0.033 C 
ATOM     28  C   UNL     1       7.035   0.071  -0.669  0.00  0.00    +0.029 C 
ATOM     29  C   UNL     1       8.420   0.649  -0.970  0.00  0.00    -0.008 C 
ATOM     30  C   UNL     1       9.468  -0.462  -0.871  0.00  0.00    +0.007 C 
ATOM     31  C   UNL     1       9.143  -1.561  -1.884  0.00  0.00    -0.008 C 
ATOM     32  C   UNL     1       7.758  -2.139  -1.583  0.00  0.00    +0.029 C 
ATOM     33  C   UNL     1       9.155  -0.974  -3.296  0.00  0.00    +0.007 C 
ATOM     34  C   UNL     1       8.107   0.137  -3.395  0.00  0.00    -0.008 C 
ATOM     35  C   UNL     1       8.431   1.237  -2.382  0.00  0.00    +0.007 C 
ATOM     36  C   UNL     1       6.722  -0.441  -3.095  0.00  0.00    +0.029 C 
ENDBRANCH  25  27
ENDBRANCH   4  25
TORSDOF 5
