REMARK  Name = ZINC09051564
REMARK  7 active torsions:
REMARK  status: ('A' for Active; 'I' for Inactive)
REMARK    1  A    between atoms: C_3  and  C_6
REMARK    2  A    between atoms: C_6  and  N_7
REMARK    3  A    between atoms: C_10  and  C_15
REMARK    4  A    between atoms: C_13  and  O_14
REMARK    5  A    between atoms: C_15  and  C_16
REMARK    6  A    between atoms: C_16  and  C_17
REMARK    7  A    between atoms: N_19  and  C_20
REMARK                            x       y       z     vdW  Elec       q    Type
REMARK                         _______ _______ _______ _____ _____    ______ ____
ROOT
ATOM      1  N   UNL     1       4.101   0.607   1.347  0.00  0.00    -0.217 N 
ATOM      2  C   UNL     1       4.384   1.707   2.075  0.00  0.00    +0.248 C 
ATOM      3  O   UNL     1       4.278   2.865   1.734  0.00  0.00    -0.273 OA
ATOM      4  C   UNL     1       4.864   1.179   3.414  0.00  0.00    +0.197 C 
ATOM      5  N   UNL     1       4.786  -0.283   3.265  0.00  0.00    -0.224 NA
ATOM      6  C   UNL     1       4.341  -0.531   2.074  0.00  0.00    +0.286 C 
ENDROOT
BRANCH   6   7
ATOM      7  O   UNL     1       4.140  -1.779   1.598  0.00  0.00    -0.481 OA
ATOM      8  H   UNL     1       4.355  -2.480   2.228  0.00  0.00    +0.295 HD
ENDBRANCH   6   7
BRANCH   1   9
ATOM      9  C   UNL     1       3.599   0.625  -0.029  0.00  0.00    +0.192 C 
BRANCH   9  12
ATOM     10  C   UNL     1      -0.016   1.341   0.009  0.00  0.00    +0.041 A 
ATOM     11  C   UNL     1       1.331   1.769  -0.001  0.00  0.00    +0.046 A 
ATOM     12  C   UNL     1       2.092   0.660  -0.014  0.00  0.00    +0.123 A 
ATOM     13  O   UNL     1       1.282  -0.411  -0.012  0.00  0.00    -0.466 OA
ATOM     14  C   UNL     1       0.002  -0.004   0.002  0.00  0.00    +0.195 A 
ENDBRANCH   9  12
ENDBRANCH   1   9
BRANCH   4  15
ATOM     15  C   UNL     1       6.305   1.619   3.679  0.00  0.00    +0.045 C 
BRANCH  15  16
ATOM     16  C   UNL     1       6.721   1.181   5.085  0.00  0.00    +0.098 C 
BRANCH  16  17
ATOM     17  C   UNL     1       8.141   1.614   5.346  0.00  0.00    +0.213 C 
ATOM     18  O   UNL     1       8.759   2.214   4.492  0.00  0.00    -0.276 OA
ATOM     19  N   UNL     1       8.724   1.335   6.529  0.00  0.00    -0.312 N 
ATOM     20  H   UNL     1       8.230   0.855   7.212  0.00  0.00    +0.149 HD
BRANCH  19  21
ATOM     21  C   UNL     1      10.104   1.756   6.782  0.00  0.00    +0.073 C 
ATOM     22  C   UNL     1      11.068   0.706   6.226  0.00  0.00    +0.022 C 
ATOM     23  C   UNL     1      12.472   1.305   6.126  0.00  0.00    +0.002 C 
ATOM     24  C   UNL     1      12.385   2.715   5.538  0.00  0.00    +0.000 C 
ATOM     25  C   UNL     1      12.787   3.738   6.602  0.00  0.00    +0.000 C 
ATOM     26  C   UNL     1      11.641   3.910   7.601  0.00  0.00    +0.000 C 
ATOM     27  C   UNL     1      11.600   2.706   8.543  0.00  0.00    +0.002 C 
ATOM     28  C   UNL     1      10.323   1.902   8.290  0.00  0.00    +0.022 C 
ENDBRANCH  19  21
ENDBRANCH  16  17
ENDBRANCH  15  16
ENDBRANCH   4  15
TORSDOF 7
