REMARK  Name = ZINC12498325
REMARK  15 active torsions:
REMARK  status: ('A' for Active; 'I' for Inactive)
REMARK    1  A    between atoms: C_1  and  C_2
REMARK    2  A    between atoms: C_2  and  C_4
REMARK    3  A    between atoms: C_8  and  N_10
REMARK    4  A    between atoms: C_15  and  C_30
REMARK    5  A    between atoms: C_17  and  C_22
REMARK    6  A    between atoms: C_17  and  C_26
REMARK    7  A    between atoms: C_22  and  C_23
REMARK    8  A    between atoms: C_23  and  S_24
REMARK    9  A    between atoms: S_24  and  C_25
REMARK   10  A    between atoms: C_26  and  O_28
REMARK   11  A    between atoms: O_28  and  C_29
REMARK   12  A    between atoms: C_33  and  O_38
REMARK   13  A    between atoms: C_35  and  O_36
REMARK   14  A    between atoms: O_36  and  C_37
REMARK   15  A    between atoms: O_38  and  C_39
REMARK                            x       y       z     vdW  Elec       q    Type
REMARK                         _______ _______ _______ _____ _____    ______ ____
ROOT
ATOM      1  N   UNL     1      -0.168   1.204   0.250  0.00  0.00    -0.210 N 
ATOM      2  C   UNL     1      -0.063  -0.164   0.204  0.00  0.00    +0.229 C 
ATOM      3  O   UNL     1      -0.918  -0.981   0.470  0.00  0.00    -0.275 OA
ATOM      4  C   UNL     1       1.288  -0.414  -0.230  0.00  0.00    +0.077 C 
ATOM      5  C   UNL     1       2.303  -1.480  -0.252  0.00  0.00    -0.023 C 
ATOM      6  C   UNL     1       3.344   0.693  -0.386  0.00  0.00    +0.044 C 
ATOM      7  C   UNL     1       2.073   0.771   0.462  0.00  0.00    +0.086 C 
ATOM      8  C   UNL     1       1.043   1.830   0.168  0.00  0.00    +0.229 C 
ATOM      9  O   UNL     1       1.247   2.997  -0.089  0.00  0.00    -0.275 OA
ATOM     10  N   UNL     1       3.521  -0.752  -0.688  0.00  0.00    +0.395 N 
ATOM     11  H   UNL     1       3.658  -0.880  -1.698  0.00  0.00    -0.083 HD
ATOM     12  H   UNL     1       4.339  -1.113  -0.183  0.00  0.00    -0.083 HD
ENDROOT
BRANCH   1  17
ATOM     13  C   UNL     1      -3.788   1.859   0.550  0.00  0.00    +0.019 A 
ATOM     14  C   UNL     1      -3.794   3.257   0.590  0.00  0.00    +0.011 A 
ATOM     15  C   UNL     1      -2.607   3.954   0.516  0.00  0.00    +0.003 A 
ATOM     16  C   UNL     1      -1.406   3.275   0.409  0.00  0.00    +0.024 A 
ATOM     17  C   UNL     1      -1.388   1.886   0.364  0.00  0.00    +0.045 A 
ATOM     18  C   UNL     1      -2.574   1.175   0.436  0.00  0.00    +0.035 A 
BRANCH  13  20
ATOM     19  C   UNL     1      -6.359   1.852   0.751  0.00  0.00    +0.091 C 
ATOM     20  C   UNL     1      -5.053   1.111   0.629  0.00  0.00    +0.160 C 
ATOM     21  O   UNL     1      -5.044  -0.101   0.595  0.00  0.00    -0.292 OA
ENDBRANCH  13  20
ENDBRANCH   1  17
BRANCH   5  22
ATOM     22  C   UNL     1       1.925  -2.563  -1.230  0.00  0.00    -0.019 A 
ATOM     23  C   UNL     1       0.950  -2.325  -2.180  0.00  0.00    +0.009 A 
ATOM     24  C   UNL     1       0.604  -3.314  -3.081  0.00  0.00    +0.046 A 
ATOM     25  C   UNL     1       1.229  -4.552  -3.027  0.00  0.00    +0.124 A 
ATOM     26  C   UNL     1       2.204  -4.795  -2.071  0.00  0.00    +0.091 A 
ATOM     27  C   UNL     1       2.552  -3.799  -1.172  0.00  0.00    +0.125 A 
BRANCH  27  28
ATOM     28  O   UNL     1       3.508  -4.034  -0.234  0.00  0.00    -0.495 OA
ATOM     29  C   UNL     1       4.111  -5.329  -0.233  0.00  0.00    +0.277 C 
ENDBRANCH  27  28
BRANCH  25  30
ATOM     30  O   UNL     1       0.885  -5.526  -3.910  0.00  0.00    -0.495 OA
ATOM     31  C   UNL     1      -0.127  -5.207  -4.867  0.00  0.00    +0.277 C 
ENDBRANCH  25  30
ENDBRANCH   5  22
BRANCH   6  32
ATOM     32  C   UNL     1       4.523   1.217   0.392  0.00  0.00    +0.297 C 
ATOM     33  O   UNL     1       4.351   2.007   1.290  0.00  0.00    -0.252 OA
BRANCH  32  34
ATOM     34  O   UNL     1       5.764   0.806   0.088  0.00  0.00    -0.469 OA
ATOM     35  C   UNL     1       6.852   1.352   0.879  0.00  0.00    +0.280 C 
ENDBRANCH  32  34
ENDBRANCH   6  32
BRANCH   6  36
ATOM     36  C   UNL     1       3.166   1.489  -1.681  0.00  0.00    +0.010 C 
BRANCH  36  37
ATOM     37  C   UNL     1       4.396   1.298  -2.570  0.00  0.00    +0.068 C 
BRANCH  37  38
ATOM     38  S   UNL     1       4.186   2.242  -4.104  0.00  0.00    -0.164 S 
ATOM     39  C   UNL     1       5.708   1.913  -5.034  0.00  0.00    +0.084 C 
ENDBRANCH  37  38
ENDBRANCH  36  37
ENDBRANCH   6  36
TORSDOF 10
