REMARK  Name = ZINC14664896
REMARK  6 active torsions:
REMARK  status: ('A' for Active; 'I' for Inactive)
REMARK    1  A    between atoms: C_3  and  S_13
REMARK    2  A    between atoms: C_4  and  N_10
REMARK    3  A    between atoms: C_6  and  C_7
REMARK    4  A    between atoms: S_13  and  C_14
REMARK    5  A    between atoms: C_14  and  C_15
REMARK    6  A    between atoms: N_17  and  C_18
REMARK                            x       y       z     vdW  Elec       q    Type
REMARK                         _______ _______ _______ _____ _____    ______ ____
ROOT
ATOM      1  S   UNL     1       2.721   0.928  -0.017  0.00  0.00    -0.114 S 
ENDROOT
BRANCH   1   4
ATOM      2  C   UNL     1      -1.213   1.748   0.048  0.00  0.00    +0.014 A 
ATOM      3  C   UNL     1      -0.013   1.075   0.030  0.00  0.00    +0.018 A 
ATOM      4  C   UNL     1       1.183   1.789   0.013  0.00  0.00    +0.039 A 
ATOM      5  C   UNL     1       1.167   3.182   0.020  0.00  0.00    +0.140 A 
ATOM      6  C   UNL     1      -0.021   3.854   0.043  0.00  0.00    +0.047 A 
ATOM      7  C   UNL     1      -1.227   3.146   0.060  0.00  0.00    +0.039 A 
BRANCH   7   8
ATOM      8  C   UNL     1      -2.510   3.872   0.085  0.00  0.00    +0.242 C 
ATOM      9  O   UNL     1      -2.521   5.088   0.090  0.00  0.00    -0.270 OA
ATOM     10  N   UNL     1      -3.671   3.188   0.101  0.00  0.00    -0.325 N 
ATOM     11  H   UNL     1      -3.663   2.218   0.096  0.00  0.00    +0.145 HD
ATOM     12  H   UNL     1      -4.516   3.666   0.117  0.00  0.00    +0.145 HD
ENDBRANCH   7   8
BRANCH   5  13
ATOM     13  N   UNL     1       2.441   3.935   0.002  0.00  0.00    +0.058 N 
ATOM     14  O   UNL     1       2.428   5.153   0.008  0.00  0.00    -0.126 OA
ATOM     15  O   UNL     1       3.502   3.337  -0.018  0.00  0.00    -0.126 OA
ENDBRANCH   5  13
ENDBRANCH   1   4
BRANCH   1  16
ATOM     16  C   UNL     1       2.244  -0.822  -0.017  0.00  0.00    +0.170 C 
BRANCH  16  17
ATOM     17  C   UNL     1       3.482  -1.680  -0.042  0.00  0.00    +0.227 C 
ATOM     18  O   UNL     1       4.579  -1.162  -0.058  0.00  0.00    -0.275 OA
ATOM     19  N   UNL     1       3.371  -3.023  -0.047  0.00  0.00    -0.285 N 
ATOM     20  H   UNL     1       2.498  -3.438   0.034  0.00  0.00    +0.155 HD
BRANCH  19  21
ATOM     21  C   UNL     1       4.516  -3.819  -0.167  0.00  0.00    +0.034 A 
ATOM     22  C   UNL     1       5.710  -3.415   0.414  0.00  0.00    +0.023 A 
ATOM     23  C   UNL     1       6.835  -4.204   0.292  0.00  0.00    +0.006 A 
ATOM     24  C   UNL     1       6.779  -5.398  -0.408  0.00  0.00    -0.044 A 
ATOM     25  C   UNL     1       5.591  -5.803  -0.989  0.00  0.00    -0.042 A 
ATOM     26  C   UNL     1       4.459  -5.018  -0.864  0.00  0.00    +0.027 A 
ATOM     27  C   UNL     1       5.791  -7.130  -1.690  0.00  0.00    +0.036 C 
ATOM     28  C   UNL     1       7.102  -7.701  -1.109  0.00  0.00    +0.009 C 
ATOM     29  C   UNL     1       7.858  -6.426  -0.681  0.00  0.00    +0.036 C 
ENDBRANCH  19  21
ENDBRANCH  16  17
ENDBRANCH   1  16
TORSDOF 6
