REMARK  Name = ZINC06152921
REMARK  3 active torsions:
REMARK  status: ('A' for Active; 'I' for Inactive)
REMARK    1  A    between atoms: C_6  and  N_7
REMARK    2  A    between atoms: C_8  and  C_10
REMARK    3  A    between atoms: N_15  and  C_17
REMARK                            x       y       z     vdW  Elec       q    Type
REMARK                         _______ _______ _______ _____ _____    ______ ____
ROOT
ATOM      1  C   UNL     1      -3.295   8.908  -1.919  0.00  0.00    +0.102 C 
ATOM      2  C   UNL     1      -2.810   9.040  -0.457  0.00  0.00    +0.110 C 
ATOM      3  C   UNL     1      -2.389   7.638  -0.077  0.00  0.00    +0.221 C 
ATOM      4  O   UNL     1      -2.212   7.249   1.058  0.00  0.00    -0.275 OA
ATOM      5  N   UNL     1      -2.240   6.885  -1.181  0.00  0.00    -0.271 N 
ATOM      6  C   UNL     1      -2.515   7.660  -2.396  0.00  0.00    +0.127 C 
ENDROOT
BRANCH   5   7
ATOM      7  C   UNL     1      -1.864   5.535  -1.172  0.00  0.00    +0.040 A 
ATOM      8  C   UNL     1      -1.845   4.812  -2.357  0.00  0.00    +0.027 A 
ATOM      9  C   UNL     1      -1.476   3.481  -2.349  0.00  0.00    +0.051 A 
ATOM     10  C   UNL     1      -1.124   2.863  -1.159  0.00  0.00    +0.162 A 
ATOM     11  C   UNL     1      -1.140   3.585   0.029  0.00  0.00    +0.164 A 
ATOM     12  C   UNL     1      -1.512   4.920   0.021  0.00  0.00    +0.073 A 
ATOM     13  O   UNL     1      -0.790   2.997   1.206  0.00  0.00    -0.485 OA
ATOM     14  C   UNL     1      -0.783   1.566   1.235  0.00  0.00    +0.270 C 
ATOM     15  C   UNL     1      -0.060   1.064  -0.022  0.00  0.00    +0.270 C 
ATOM     16  O   UNL     1      -0.766   1.549  -1.170  0.00  0.00    -0.485 OA
ENDBRANCH   5   7
BRANCH   1  18
ATOM     17  N   UNL     1      -3.384  11.335  -2.384  0.00  0.00    -0.285 N 
ATOM     18  C   UNL     1      -2.911  10.121  -2.727  0.00  0.00    +0.222 C 
ATOM     19  O   UNL     1      -2.177  10.004  -3.685  0.00  0.00    -0.275 OA
ATOM     20  H   UNL     1      -3.907  11.442  -1.574  0.00  0.00    +0.155 HD
BRANCH  17  26
ATOM     21  C   UNL     1      -2.931  13.695  -2.627  0.00  0.00    +0.025 A 
ATOM     22  C   UNL     1      -2.667  14.787  -3.432  0.00  0.00    +0.022 A 
ATOM     23  C   UNL     1      -2.603  14.635  -4.806  0.00  0.00    +0.041 A 
ATOM     24  C   UNL     1      -2.798  13.390  -5.377  0.00  0.00    +0.022 A 
ATOM     25  C   UNL     1      -3.057  12.294  -4.577  0.00  0.00    +0.025 A 
ATOM     26  C   UNL     1      -3.121  12.444  -3.198  0.00  0.00    +0.033 A 
ATOM     27 CL   UNL     1      -2.277  16.010  -5.815  0.00  0.00    -0.084 Cl
ENDBRANCH  17  26
ENDBRANCH   1  18
TORSDOF 3
