REMARK  Name = ZINC36598188
REMARK  15 active torsions:
REMARK  status: ('A' for Active; 'I' for Inactive)
REMARK    1  A    between atoms: C_1  and  C_2
REMARK    2  A    between atoms: C_5  and  S_8
REMARK    3  A    between atoms: S_8  and  C_11
REMARK    4  A    between atoms: C_11  and  N_12
REMARK    5  A    between atoms: C_13  and  C_15
REMARK    6  A    between atoms: C_15  and  C_17
REMARK    7  A    between atoms: C_15  and  N_25
REMARK    8  A    between atoms: C_20  and  C_24
REMARK    9  A    between atoms: C_22  and  C_23
REMARK   10  A    between atoms: N_25  and  C_26
REMARK   11  A    between atoms: C_26  and  C_27
REMARK   12  A    between atoms: C_30  and  C_32
REMARK   13  A    between atoms: C_33  and  C_35
REMARK   14  A    between atoms: C_35  and  C_36
REMARK   15  A    between atoms: C_36  and  S_37
REMARK                            x       y       z     vdW  Elec       q    Type
REMARK                         _______ _______ _______ _____ _____    ______ ____
ROOT
ATOM      1  C   UNL     1       3.355  -4.922   3.458  0.00  0.00    +0.193 C 
ENDROOT
BRANCH   1   2
ATOM      2  C   UNL     1       2.778  -3.738   4.190  0.00  0.00    -0.015 A 
ATOM      3  C   UNL     1       1.448  -3.401   4.020  0.00  0.00    +0.006 A 
ATOM      4  C   UNL     1       0.919  -2.315   4.692  0.00  0.00    +0.004 A 
ATOM      5  C   UNL     1       1.719  -1.567   5.535  0.00  0.00    -0.050 A 
ATOM      6  C   UNL     1       3.049  -1.904   5.706  0.00  0.00    +0.007 A 
ATOM      7  C   UNL     1       3.577  -2.993   5.037  0.00  0.00    -0.045 A 
ATOM      8  C   UNL     1       5.025  -3.364   5.227  0.00  0.00    +0.044 C 
ATOM      9  C   UNL     1       1.143  -0.382   6.266  0.00  0.00    +0.044 C 
ENDBRANCH   1   2
BRANCH   1  11
ATOM     10  N   UNL     1       2.460  -4.623   1.171  0.00  0.00    -0.294 N 
ATOM     11  C   UNL     1       2.435  -5.312   2.329  0.00  0.00    +0.239 C 
ATOM     12  O   UNL     1       1.672  -6.245   2.464  0.00  0.00    -0.273 OA
ATOM     13  H   UNL     1       3.019  -3.835   1.088  0.00  0.00    +0.150 HD
BRANCH  10  14
ATOM     14  C   UNL     1       1.641  -5.064   0.039  0.00  0.00    +0.278 C 
BRANCH  14  15
ATOM     15  S   UNL     1       0.069  -4.160   0.041  0.00  0.00    +0.013 S 
ATOM     16  O   UNL     1      -0.497  -4.164   1.345  0.00  0.00    -0.168 OA
ATOM     17  O   UNL     1      -0.710  -4.530  -1.088  0.00  0.00    -0.168 OA
BRANCH  15  22
ATOM     18  C   UNL     1       1.584   1.595  -0.959  0.00  0.00    +0.044 C 
ATOM     19  C   UNL     1       1.206   0.157  -0.709  0.00  0.00    -0.050 A 
ATOM     20  C   UNL     1       0.930  -0.680  -1.774  0.00  0.00    +0.005 A 
ATOM     21  C   UNL     1       0.583  -1.998  -1.545  0.00  0.00    +0.027 A 
ATOM     22  C   UNL     1       0.512  -2.479  -0.251  0.00  0.00    +0.090 A 
ATOM     23  C   UNL     1       0.789  -1.643   0.814  0.00  0.00    +0.027 A 
ATOM     24  C   UNL     1       1.141  -0.325   0.584  0.00  0.00    +0.005 A 
ENDBRANCH  15  22
ENDBRANCH  14  15
ENDBRANCH  10  14
ENDBRANCH   1  11
BRANCH   1  25
ATOM     25  N   UNL     1       3.495  -6.048   4.384  0.00  0.00    -0.279 N 
ATOM     26  C   UNL     1       4.111  -7.178   3.983  0.00  0.00    +0.218 C 
ATOM     27  O   UNL     1       4.146  -8.143   4.717  0.00  0.00    -0.276 OA
BRANCH  25  28
ATOM     28  C   UNL     1       2.966  -5.947   5.747  0.00  0.00    +0.183 C 
BRANCH  28  29
ATOM     29  C   UNL     1       1.540  -6.433   5.770  0.00  0.00    +0.122 A 
ATOM     30  C   UNL     1       1.144  -7.698   5.997  0.00  0.00    +0.046 A 
ATOM     31  C   UNL     1      -0.268  -7.704   5.927  0.00  0.00    +0.045 A 
ATOM     32  C   UNL     1      -0.650  -6.442   5.660  0.00  0.00    +0.102 A 
ATOM     33  O   UNL     1       0.449  -5.675   5.572  0.00  0.00    -0.463 OA
ATOM     34  C   UNL     1      -2.071  -5.967   5.494  0.00  0.00    +0.086 C 
ENDBRANCH  28  29
ENDBRANCH  25  28
BRANCH  26  35
ATOM     35  C   UNL     1       4.756  -7.242   2.622  0.00  0.00    +0.106 C 
BRANCH  35  36
ATOM     36  C   UNL     1       5.297  -8.653   2.380  0.00  0.00    +0.075 C 
BRANCH  36  37
ATOM     37  S   UNL     1       6.072  -8.730   0.742  0.00  0.00    -0.178 S 
ATOM     38  H   UNL     1       6.504 -10.001   0.646  0.00  0.00    +0.102 HD
ENDBRANCH  36  37
ENDBRANCH  35  36
ENDBRANCH  26  35
ENDBRANCH   1  25
TORSDOF 11
