REMARK  Name = ZINC05837000
REMARK  7 active torsions:
REMARK  status: ('A' for Active; 'I' for Inactive)
REMARK    1  A    between atoms: C_1  and  C_2
REMARK    2  A    between atoms: C_2  and  C_3
REMARK    3  A    between atoms: C_3  and  C_5
REMARK    4  A    between atoms: C_9  and  C_12
REMARK    5  A    between atoms: C_10  and  O_11
REMARK    6  A    between atoms: C_15  and  N_17
REMARK    7  A    between atoms: C_24  and  C_27
REMARK                            x       y       z     vdW  Elec       q    Type
REMARK                         _______ _______ _______ _____ _____    ______ ____
ROOT
ATOM      1  C   UNL     1       3.668   2.227  -0.023  0.00  0.00    +0.047 C 
ATOM      2  C   UNL     1       3.587   3.722  -0.340  0.00  0.00    +0.033 C 
ATOM      3  C   UNL     1       3.878   3.257   1.089  0.00  0.00    +0.083 C 
ENDROOT
BRANCH   3   4
ATOM      4  N   UNL     1       5.240   3.438   1.596  0.00  0.00    -0.296 N 
ATOM      5  C   UNL     1       5.438   3.905   2.844  0.00  0.00    +0.305 C 
ATOM      6  O   UNL     1       4.486   4.178   3.550  0.00  0.00    -0.252 OA
ATOM      7  N   UNL     1       6.692   4.072   3.311  0.00  0.00    -0.254 N 
ATOM      8  C   UNL     1       6.897   4.453   4.632  0.00  0.00    +0.126 A 
ATOM      9  C   UNL     1       8.189   4.730   5.073  0.00  0.00    +0.045 A 
ATOM     10  C   UNL     1       8.387   5.111   6.374  0.00  0.00    +0.024 A 
ATOM     11  C   UNL     1       7.274   5.198   7.223  0.00  0.00    +0.070 A 
ATOM     12  C   UNL     1       6.009   4.900   6.713  0.00  0.00    +0.131 A 
ATOM     13  N   UNL     1       5.862   4.543   5.454  0.00  0.00    -0.239 NA
ATOM     14  H   UNL     1       6.000   3.220   1.033  0.00  0.00    +0.151 HD
ATOM     15  H   UNL     1       7.451   3.925   2.724  0.00  0.00    +0.158 HD
BRANCH  11  16
ATOM     16  C   UNL     1       7.433   5.587   8.592  0.00  0.00    +0.101 C 
ATOM     17  N   UNL     1       7.559   5.895   9.678  0.00  0.00    -0.191 NA
ENDBRANCH  11  16
ENDBRANCH   3   4
BRANCH   1  22
ATOM     18  C   UNL     1       1.201  -0.657  -0.103  0.00  0.00    +0.059 A 
ATOM     19  C   UNL     1      -0.016   0.028   0.001  0.00  0.00    +0.018 A 
ATOM     20  C   UNL     1      -0.024   1.401   0.095  0.00  0.00    +0.039 A 
ATOM     21  C   UNL     1       1.170   2.111   0.087  0.00  0.00    +0.130 A 
ATOM     22  C   UNL     1       2.379   1.447  -0.015  0.00  0.00    +0.035 A 
ATOM     23  C   UNL     1       2.407   0.065  -0.111  0.00  0.00    +0.134 A 
ATOM     24  F   UNL     1       1.150   3.459   0.179  0.00  0.00    -0.205 F 
BRANCH  18  25
ATOM     25  C   UNL     1       1.218  -2.120  -0.203  0.00  0.00    +0.166 C 
ATOM     26  O   UNL     1       2.274  -2.711  -0.293  0.00  0.00    -0.292 OA
BRANCH  25  28
ATOM     27  C   UNL     1       0.218  -4.387  -0.310  0.00  0.00    +0.012 C 
ATOM     28  C   UNL     1      -0.078  -2.891  -0.194  0.00  0.00    +0.076 C 
ENDBRANCH  25  28
ENDBRANCH  18  25
BRANCH  23  29
ATOM     29  O   UNL     1       3.591  -0.588  -0.211  0.00  0.00    -0.506 OA
ATOM     30  H   UNL     1       3.893  -0.717  -1.121  0.00  0.00    +0.292 HD
ENDBRANCH  23  29
ENDBRANCH   1  22
TORSDOF 6
