REMARK  Name = ZINC13169847
REMARK  6 active torsions:
REMARK  status: ('A' for Active; 'I' for Inactive)
REMARK    1  A    between atoms: C_1  and  C_2
REMARK    2  A    between atoms: C_5  and  C_27
REMARK    3  A    between atoms: C_7  and  N_8
REMARK    4  A    between atoms: C_9  and  C_11
REMARK    5  A    between atoms: C_13  and  S_18
REMARK    6  A    between atoms: S_18  and  N_21
REMARK                            x       y       z     vdW  Elec       q    Type
REMARK                         _______ _______ _______ _____ _____    ______ ____
ROOT
ATOM      1  C   UNL     1      -1.490   3.554  -3.069  0.00  0.00    +0.057 A 
ATOM      2  C   UNL     1      -0.742   3.157  -1.959  0.00  0.00    +0.043 A 
ATOM      3  C   UNL     1      -0.929   1.903  -1.417  0.00  0.00    +0.106 A 
ATOM      4  C   UNL     1      -1.854   1.036  -1.973  0.00  0.00    +0.030 A 
ATOM      5  C   UNL     1      -2.603   1.423  -3.068  0.00  0.00    +0.022 A 
ATOM      6  C   UNL     1      -2.426   2.676  -3.622  0.00  0.00    +0.053 A 
ATOM      7 CL   UNL     1      -3.363   3.159  -5.001  0.00  0.00    -0.083 Cl
ENDROOT
BRANCH   1   9
ATOM      8  N   UNL     1      -0.390   5.740  -3.119  0.00  0.00    -0.281 N 
ATOM      9  C   UNL     1      -1.294   4.896  -3.655  0.00  0.00    +0.250 C 
ATOM     10  O   UNL     1      -1.947   5.239  -4.621  0.00  0.00    -0.270 OA
ATOM     11  H   UNL     1       0.073   5.499  -2.301  0.00  0.00    +0.155 HD
BRANCH   8  18
ATOM     12  C   UNL     1       0.625   7.858  -1.520  0.00  0.00    +0.045 C 
ATOM     13  C   UNL     1       0.377   8.027  -2.997  0.00  0.00    -0.029 A 
ATOM     14  C   UNL     1       0.645   9.238  -3.607  0.00  0.00    +0.006 A 
ATOM     15  C   UNL     1       0.421   9.400  -4.958  0.00  0.00    +0.015 A 
ATOM     16  C   UNL     1      -0.079   8.338  -5.715  0.00  0.00    +0.065 A 
ATOM     17  C   UNL     1      -0.344   7.114  -5.101  0.00  0.00    +0.038 A 
ATOM     18  C   UNL     1      -0.120   6.963  -3.741  0.00  0.00    +0.037 A 
BRANCH  16  19
ATOM     19  C   UNL     1      -0.320   8.508  -7.163  0.00  0.00    +0.387 C 
ATOM     20  O   UNL     1      -0.754   7.583  -7.819  0.00  0.00    -0.241 OA
ATOM     21  O   UNL     1      -0.058   9.689  -7.755  0.00  0.00    -0.241 OA
ENDBRANCH  16  19
ENDBRANCH   8  18
ENDBRANCH   1   9
BRANCH   3  22
ATOM     22  S   UNL     1       0.015   1.401  -0.016  0.00  0.00    +0.061 S 
ATOM     23  O   UNL     1       0.041  -0.020  -0.032  0.00  0.00    -0.153 OA
ATOM     24  O   UNL     1       1.200   2.184  -0.024  0.00  0.00    -0.153 OA
BRANCH  22  25
ATOM     25  N   UNL     1      -0.837   1.843   1.333  0.00  0.00    -0.177 NA
ATOM     26  C   UNL     1      -0.629   3.160   1.951  0.00  0.00    +0.109 C 
ATOM     27  C   UNL     1      -1.991   3.860   2.079  0.00  0.00    +0.017 C 
ATOM     28  C   UNL     1      -2.955   2.951   2.846  0.00  0.00    +0.003 C 
ATOM     29  C   UNL     1      -3.155   1.647   2.070  0.00  0.00    +0.017 C 
ATOM     30  C   UNL     1      -1.811   0.925   1.938  0.00  0.00    +0.109 C 
ENDBRANCH  22  25
ENDBRANCH   3  22
TORSDOF 5
