REMARK  Name = ZINC33284432
REMARK  7 active torsions:
REMARK  status: ('A' for Active; 'I' for Inactive)
REMARK    1  A    between atoms: C_4  and  C_7
REMARK    2  A    between atoms: C_7  and  N_8
REMARK    3  A    between atoms: C_9  and  C_11
REMARK    4  A    between atoms: C_11  and  S_12
REMARK    5  A    between atoms: S_12  and  C_13
REMARK    6  A    between atoms: C_19  and  C_22
REMARK    7  A    between atoms: N_24  and  C_25
REMARK                            x       y       z     vdW  Elec       q    Type
REMARK                         _______ _______ _______ _____ _____    ______ ____
ROOT
ATOM      1  C   UNL     1       0.576  -4.602   4.694  0.00  0.00    +0.196 A 
ATOM      2  N   UNL     1       0.493  -3.758   5.696  0.00  0.00    -0.122 NA
ATOM      3  N   UNL     1       0.321  -4.392   6.802  0.00  0.00    -0.129 NA
ATOM      4  C   UNL     1       0.294  -5.691   6.572  0.00  0.00    +0.162 A 
ATOM      5  N   UNL     1       0.457  -5.861   5.213  0.00  0.00    -0.277 N 
ATOM      6  C   UNL     1       0.472  -7.102   4.656  0.00  0.00    +0.108 A 
ATOM      7  C   UNL     1       0.327  -8.212   5.438  0.00  0.00    +0.054 A 
ATOM      8  C   UNL     1       0.152  -8.058   6.884  0.00  0.00    +0.018 A 
ATOM      9  C   UNL     1       0.139  -6.812   7.418  0.00  0.00    +0.049 A 
ENDROOT
BRANCH   7  10
ATOM     10  C   UNL     1       0.344  -9.556   4.831  0.00  0.00    +0.250 C 
ATOM     11  O   UNL     1       0.489  -9.678   3.629  0.00  0.00    -0.270 OA
ATOM     12  N   UNL     1       0.199 -10.648   5.607  0.00  0.00    -0.281 N 
ATOM     13  H   UNL     1       0.155 -10.543   6.701  0.00  0.00    +0.155 HD
BRANCH  12  14
ATOM     14  C   UNL     1       0.104 -11.914   5.021  0.00  0.00    +0.036 A 
ATOM     15  C   UNL     1       0.626 -13.024   5.675  0.00  0.00    +0.023 A 
ATOM     16  C   UNL     1       0.532 -14.274   5.095  0.00  0.00    +0.005 A 
ATOM     17  C   UNL     1      -0.081 -14.423   3.865  0.00  0.00    +0.038 A 
ATOM     18  C   UNL     1      -0.603 -13.320   3.210  0.00  0.00    +0.125 A 
ATOM     19  C   UNL     1      -0.516 -12.066   3.789  0.00  0.00    +0.061 A 
ATOM     20  F   UNL     1      -1.203 -13.469   2.009  0.00  0.00    -0.205 F 
ENDBRANCH  12  14
ENDBRANCH   7  10
BRANCH   1  21
ATOM     21  S   UNL     1       0.807  -4.190   2.996  0.00  0.00    -0.076 S 
BRANCH  21  22
ATOM     22  C   UNL     1       0.886  -2.377   2.992  0.00  0.00    +0.173 C 
BRANCH  22  24
ATOM     23  N   UNL     1       1.172  -0.565   1.333  0.00  0.00    -0.311 N 
ATOM     24  C   UNL     1       1.084  -1.887   1.581  0.00  0.00    +0.224 C 
ATOM     25  O   UNL     1       1.164  -2.681   0.668  0.00  0.00    -0.275 OA
ATOM     26  H   UNL     1       1.099   0.156   2.161  0.00  0.00    +0.149 HD
BRANCH  23  27
ATOM     27  C   UNL     1       1.365  -0.088  -0.038  0.00  0.00    +0.139 C 
BRANCH  27  31
ATOM     28  C   UNL     1       1.550   4.180  -0.049  0.00  0.00    +0.000 A 
ATOM     29  C   UNL     1       2.707   3.438   0.101  0.00  0.00    +0.000 A 
ATOM     30  C   UNL     1       2.647   2.057   0.105  0.00  0.00    +0.005 A 
ATOM     31  C   UNL     1       1.430   1.418  -0.042  0.00  0.00    -0.030 A 
ATOM     32  C   UNL     1       0.274   2.160  -0.198  0.00  0.00    +0.005 A 
ATOM     33  C   UNL     1       0.334   3.541  -0.197  0.00  0.00    +0.000 A 
ENDBRANCH  27  31
ENDBRANCH  23  27
ENDBRANCH  22  24
ENDBRANCH  21  22
ENDBRANCH   1  21
TORSDOF 7
