REMARK  Name = ZINC04046274
REMARK  5 active torsions:
REMARK  status: ('A' for Active; 'I' for Inactive)
REMARK    1  A    between atoms: C_1  and  C_2
REMARK    2  A    between atoms: N_10  and  C_13
REMARK    3  A    between atoms: C_18  and  C_19
REMARK    4  A    between atoms: C_19  and  O_21
REMARK    5  A    between atoms: O_21  and  C_22
REMARK                            x       y       z     vdW  Elec       q    Type
REMARK                         _______ _______ _______ _____ _____    ______ ____
ROOT
ATOM      1  C   UNL     1      -0.559  -2.314   2.409  0.00  0.00    -0.013 C 
ATOM      2  C   UNL     1      -1.130  -3.009   1.171  0.00  0.00    -0.060 C 
ATOM      3  C   UNL     1      -2.482  -2.378   0.777  0.00  0.00    +0.073 C 
ATOM      4  C   UNL     1      -2.481  -2.370  -0.777  0.00  0.00    +0.088 C 
ATOM      5  C   UNL     1      -2.499  -0.896  -1.117  0.00  0.00    +0.229 C 
ATOM      6  O   UNL     1      -2.511  -0.436  -2.239  0.00  0.00    -0.275 OA
ATOM      7  N   UNL     1      -2.498  -0.179   0.013  0.00  0.00    -0.209 N 
ATOM      8  C   UNL     1      -2.482  -0.909   1.134  0.00  0.00    +0.228 C 
ATOM      9  O   UNL     1      -2.471  -0.462   2.260  0.00  0.00    -0.275 OA
ATOM     10  C   UNL     1      -1.124  -2.970  -1.165  0.00  0.00    +0.050 C 
ATOM     11  C   UNL     1      -0.570  -2.328  -2.405  0.00  0.00    -0.028 A 
ATOM     12  C   UNL     1      -0.234  -1.034  -2.733  0.00  0.00    +0.004 A 
ATOM     13  C   UNL     1       0.265  -0.746  -3.991  0.00  0.00    +0.000 A 
ATOM     14  C   UNL     1       0.425  -1.760  -4.917  0.00  0.00    +0.002 A 
ATOM     15  C   UNL     1       0.091  -3.058  -4.593  0.00  0.00    +0.023 A 
ATOM     16  C   UNL     1      -0.412  -3.357  -3.328  0.00  0.00    +0.036 A 
ATOM     17  N   UNL     1      -0.815  -4.573  -2.770  0.00  0.00    -0.286 N 
ATOM     18  C   UNL     1      -1.246  -4.431  -1.502  0.00  0.00    +0.211 C 
ATOM     19  O   UNL     1      -1.654  -5.311  -0.774  0.00  0.00    -0.277 OA
ATOM     20  H   UNL     1      -0.787  -5.420  -3.241  0.00  0.00    +0.155 HD
ATOM     21  N   UNL     1      -0.279  -2.791  -0.003  0.00  0.00    +0.394 N 
ATOM     22  H   UNL     1       0.489  -3.471  -0.015  0.00  0.00    -0.083 HD
ATOM     23  H   UNL     1       0.106  -1.839   0.011  0.00  0.00    -0.083 HD
ENDROOT
BRANCH   7  24
ATOM     24  C   UNL     1      -2.509   1.217   0.021  0.00  0.00    +0.058 A 
ATOM     25  C   UNL     1      -3.713   1.905   0.030  0.00  0.00    +0.025 A 
ATOM     26  C   UNL     1      -3.722   3.286   0.038  0.00  0.00    +0.002 A 
ATOM     27  C   UNL     1      -2.531   3.994   0.037  0.00  0.00    +0.001 A 
ATOM     28  C   UNL     1      -1.325   3.328   0.032  0.00  0.00    +0.017 A 
ATOM     29  C   UNL     1      -1.301   1.931   0.019  0.00  0.00    +0.081 A 
BRANCH  29  30
ATOM     30  C   UNL     1      -0.014   1.211   0.009  0.00  0.00    +0.341 C 
ATOM     31  O   UNL     1       0.002  -0.004   0.002  0.00  0.00    -0.245 OA
BRANCH  30  32
ATOM     32  O   UNL     1       1.143   1.900   0.001  0.00  0.00    -0.464 OA
ATOM     33  C   UNL     1       2.372   1.126  -0.015  0.00  0.00    +0.280 C 
ENDBRANCH  30  32
ENDBRANCH  29  30
ENDBRANCH   7  24
TORSDOF 3
