REMARK  Name = ZINC45536362
REMARK  8 active torsions:
REMARK  status: ('A' for Active; 'I' for Inactive)
REMARK    1  A    between atoms: C_1  and  C_2
REMARK    2  A    between atoms: C_2  and  C_3
REMARK    3  A    between atoms: C_2  and  C_4
REMARK    4  A    between atoms: C_4  and  C_5
REMARK    5  A    between atoms: C_5  and  C_7
REMARK    6  A    between atoms: C_5  and  N_26
REMARK    7  A    between atoms: C_12  and  N_15
REMARK    8  A    between atoms: C_27  and  C_29
REMARK                            x       y       z     vdW  Elec       q    Type
REMARK                         _______ _______ _______ _____ _____    ______ ____
ROOT
ATOM      1  C   UNL     1      -3.155  -1.602  -1.353  0.00  0.00    +0.236 C 
ATOM      2  O   UNL     1      -3.638  -2.677  -1.064  0.00  0.00    -0.274 OA
ATOM      3  N   UNL     1      -3.912  -0.661  -1.949  0.00  0.00    -0.300 N 
ATOM      4  C   UNL     1      -3.318   0.607  -2.393  0.00  0.00    +0.110 C 
ATOM      5  C   UNL     1      -4.119   1.765  -1.790  0.00  0.00    +0.044 C 
ATOM      6  C   UNL     1      -5.596   1.602  -2.154  0.00  0.00    +0.095 C 
ATOM      7  C   UNL     1      -6.126   0.292  -1.567  0.00  0.00    +0.044 C 
ATOM      8  C   UNL     1      -5.347  -0.885  -2.173  0.00  0.00    +0.110 C 
ENDROOT
BRANCH   6   9
ATOM      9  N   UNL     1      -6.360   2.726  -1.606  0.00  0.00    -0.289 N 
ATOM     10  C   UNL     1      -7.117   3.634  -2.343  0.00  0.00    +0.070 A 
ATOM     11  C   UNL     1      -7.380   3.775  -3.697  0.00  0.00    +0.028 A 
ATOM     12  C   UNL     1      -8.190   4.803  -4.137  0.00  0.00    +0.002 A 
ATOM     13  C   UNL     1      -8.740   5.694  -3.231  0.00  0.00    +0.002 A 
ATOM     14  C   UNL     1      -8.483   5.562  -1.881  0.00  0.00    +0.028 A 
ATOM     15  C   UNL     1      -7.672   4.532  -1.430  0.00  0.00    +0.067 A 
ATOM     16  N   UNL     1      -7.236   4.143  -0.166  0.00  0.00    -0.306 N 
ATOM     17  H   UNL     1      -7.459   4.579   0.671  0.00  0.00    +0.170 HD
ATOM     18  C   UNL     1      -6.456   3.053  -0.303  0.00  0.00    +0.328 A 
ATOM     19  O   UNL     1      -5.917   2.458   0.611  0.00  0.00    -0.247 OA
ENDBRANCH   6   9
BRANCH   1  20
ATOM     20  C   UNL     1      -1.707  -1.320  -1.044  0.00  0.00    +0.160 C 
BRANCH  20  21
ATOM     21  N   UNL     1      -1.081  -2.526  -0.495  0.00  0.00    -0.300 N 
ATOM     22  C   UNL     1       0.253  -2.695  -0.589  0.00  0.00    +0.245 C 
ATOM     23  O   UNL     1       0.948  -1.807  -1.045  0.00  0.00    -0.270 OA
ATOM     24  H   UNL     1      -1.626  -3.203  -0.065  0.00  0.00    +0.150 HD
BRANCH  22  25
ATOM     25  C   UNL     1       0.872  -3.959  -0.139  0.00  0.00    +0.037 A 
ATOM     26  C   UNL     1       0.076  -4.983   0.380  0.00  0.00    +0.014 A 
ATOM     27  C   UNL     1       0.658  -6.160   0.798  0.00  0.00    +0.021 A 
ATOM     28  C   UNL     1       2.030  -6.329   0.706  0.00  0.00    +0.041 A 
ATOM     29  C   UNL     1       2.825  -5.317   0.193  0.00  0.00    +0.021 A 
ATOM     30  C   UNL     1       2.253  -4.137  -0.234  0.00  0.00    +0.014 A 
ATOM     31 CL   UNL     1       2.757  -7.814   1.236  0.00  0.00    -0.084 Cl
ENDBRANCH  22  25
ENDBRANCH  20  21
BRANCH  20  32
ATOM     32  C   UNL     1      -1.615  -0.187  -0.020  0.00  0.00    +0.034 C 
BRANCH  32  34
ATOM     33  C   UNL     1      -1.962   0.401   2.383  0.00  0.00    +0.007 C 
ATOM     34  C   UNL     1      -2.248  -0.638   1.298  0.00  0.00    -0.015 C 
ATOM     35  C   UNL     1      -3.761  -0.781   1.114  0.00  0.00    +0.007 C 
ENDBRANCH  32  34
ENDBRANCH  20  32
ENDBRANCH   1  20
TORSDOF 6
