REMARK  Name = ZINC36497852
REMARK  9 active torsions:
REMARK  status: ('A' for Active; 'I' for Inactive)
REMARK    1  A    between atoms: C_4  and  O_37
REMARK    2  A    between atoms: C_5  and  C_7
REMARK    3  A    between atoms: N_9  and  C_10
REMARK    4  A    between atoms: N_9  and  C_16
REMARK    5  A    between atoms: C_10  and  C_11
REMARK    6  A    between atoms: C_16  and  C_18
REMARK    7  A    between atoms: C_16  and  C_28
REMARK    8  A    between atoms: C_21  and  C_24
REMARK    9  A    between atoms: N_30  and  C_31
REMARK                            x       y       z     vdW  Elec       q    Type
REMARK                         _______ _______ _______ _____ _____    ______ ____
ROOT
ATOM      1  C   UNL     1      -0.249  -4.111  -1.083  0.00  0.00    +0.193 C 
ENDROOT
BRANCH   1   2
ATOM      2  C   UNL     1      -1.156  -3.385  -2.044  0.00  0.00    -0.018 A 
ATOM      3  C   UNL     1      -1.887  -2.294  -1.613  0.00  0.00    +0.006 A 
ATOM      4  C   UNL     1      -2.718  -1.628  -2.495  0.00  0.00    +0.013 A 
ATOM      5  C   UNL     1      -2.818  -2.053  -3.806  0.00  0.00    +0.055 A 
ATOM      6  C   UNL     1      -2.086  -3.144  -4.237  0.00  0.00    +0.013 A 
ATOM      7  C   UNL     1      -1.251  -3.808  -3.356  0.00  0.00    +0.006 A 
BRANCH   5   8
ATOM      8  C   UNL     1      -3.725  -1.328  -4.767  0.00  0.00    +0.417 C 
ATOM      9  F   UNL     1      -3.011  -0.304  -5.399  0.00  0.00    -0.166 F 
ATOM     10  F   UNL     1      -4.201  -2.227  -5.727  0.00  0.00    -0.166 F 
ATOM     11  F   UNL     1      -4.804  -0.780  -4.065  0.00  0.00    -0.166 F 
ENDBRANCH   5   8
ENDBRANCH   1   2
BRANCH   1  12
ATOM     12  C   UNL     1       0.487  -5.204  -1.815  0.00  0.00    +0.238 C 
ATOM     13  O   UNL     1       0.159  -6.362  -1.665  0.00  0.00    -0.273 OA
ATOM     14  N   UNL     1       1.510  -4.894  -2.636  0.00  0.00    -0.311 N 
ATOM     15  H   UNL     1       1.772  -3.968  -2.756  0.00  0.00    +0.149 HD
BRANCH  14  16
ATOM     16  C   UNL     1       2.225  -5.956  -3.347  0.00  0.00    +0.073 C 
ATOM     17  C   UNL     1       3.318  -6.529  -2.443  0.00  0.00    +0.022 C 
ATOM     18  C   UNL     1       4.065  -7.638  -3.186  0.00  0.00    +0.002 C 
ATOM     19  C   UNL     1       4.702  -7.064  -4.453  0.00  0.00    +0.000 C 
ATOM     20  C   UNL     1       3.609  -6.491  -5.358  0.00  0.00    +0.002 C 
ATOM     21  C   UNL     1       2.862  -5.381  -4.615  0.00  0.00    +0.022 C 
ENDBRANCH  14  16
ENDBRANCH   1  12
BRANCH   1  24
ATOM     22  C   UNL     1      -0.752  -4.427   1.280  0.00  0.00    +0.251 C 
ATOM     23  O   UNL     1      -1.242  -5.093   2.172  0.00  0.00    -0.270 OA
ATOM     24  N   UNL     1      -1.050  -4.699  -0.006  0.00  0.00    -0.275 N 
BRANCH  22  29
ATOM     25  C   UNL     1       1.029  -1.126   1.145  0.00  0.00    +0.001 A 
ATOM     26  C   UNL     1       1.898  -1.241   2.218  0.00  0.00    +0.004 A 
ATOM     27  C   UNL     1       1.910  -2.387   2.988  0.00  0.00    +0.046 A 
ATOM     28  C   UNL     1       1.049  -3.433   2.691  0.00  0.00    +0.129 A 
ATOM     29  C   UNL     1       0.168  -3.321   1.607  0.00  0.00    +0.078 A 
ATOM     30  C   UNL     1       0.167  -2.155   0.836  0.00  0.00    +0.017 A 
BRANCH  28  31
ATOM     31  O   UNL     1       1.059  -4.560   3.446  0.00  0.00    -0.506 OA
ATOM     32  H   UNL     1       0.452  -4.535   4.198  0.00  0.00    +0.292 HD
ENDBRANCH  28  31
ENDBRANCH  22  29
BRANCH  24  33
ATOM     33  C   UNL     1      -2.174  -5.582  -0.326  0.00  0.00    +0.183 C 
BRANCH  33  34
ATOM     34  C   UNL     1      -2.130  -6.795   0.566  0.00  0.00    +0.122 A 
ATOM     35  C   UNL     1      -2.815  -6.954   1.713  0.00  0.00    +0.046 A 
ATOM     36  C   UNL     1      -2.478  -8.231   2.218  0.00  0.00    +0.041 A 
ATOM     37  C   UNL     1      -1.607  -8.776   1.350  0.00  0.00    +0.195 A 
ATOM     38  O   UNL     1      -1.404  -7.904   0.348  0.00  0.00    -0.466 OA
ENDBRANCH  33  34
ENDBRANCH  24  33
ENDBRANCH   1  24
TORSDOF 9
