REMARK  Name = ZINC39892600
REMARK  8 active torsions:
REMARK  status: ('A' for Active; 'I' for Inactive)
REMARK    1  A    between atoms: C_1  and  O_2
REMARK    2  A    between atoms: O_2  and  C_3
REMARK    3  A    between atoms: C_8  and  N_9
REMARK    4  A    between atoms: N_9  and  C_10
REMARK    5  A    between atoms: C_10  and  N_12
REMARK    6  A    between atoms: N_12  and  N_13
REMARK    7  A    between atoms: C_14  and  C_16
REMARK    8  A    between atoms: C_19  and  C_21
REMARK                            x       y       z     vdW  Elec       q    Type
REMARK                         _______ _______ _______ _____ _____    ______ ____
ROOT
ATOM      1  N   UNL     1      -1.194  -4.241   1.787  0.00  0.00    -0.229 N 
ATOM      2  C   UNL     1      -1.827  -4.984   2.716  0.00  0.00    +0.295 C 
ATOM      3  O   UNL     1      -1.858  -6.196   2.608  0.00  0.00    -0.265 OA
ATOM      4  H   UNL     1      -1.169  -3.275   1.874  0.00  0.00    +0.173 HD
ENDROOT
BRANCH   2   5
ATOM      5  C   UNL     1      -2.477  -4.334   3.857  0.00  0.00    +0.191 A 
ATOM      6  C   UNL     1      -3.150  -4.971   4.876  0.00  0.00    +0.055 A 
ATOM      7  C   UNL     1      -3.607  -3.974   5.743  0.00  0.00    +0.051 A 
ATOM      8  C   UNL     1      -3.200  -2.777   5.228  0.00  0.00    +0.137 A 
ATOM      9  O   UNL     1      -2.515  -3.006   4.095  0.00  0.00    -0.450 OA
BRANCH   8  10
ATOM     10  C   UNL     1      -3.463  -1.450   5.822  0.00  0.00    +0.037 A 
ATOM     11  C   UNL     1      -4.758  -1.100   6.210  0.00  0.00    +0.033 A 
ATOM     12  C   UNL     1      -4.997   0.141   6.764  0.00  0.00    +0.042 A 
ATOM     13  C   UNL     1      -3.956   1.039   6.935  0.00  0.00    +0.021 A 
ATOM     14  C   UNL     1      -2.672   0.699   6.552  0.00  0.00    +0.022 A 
ATOM     15  C   UNL     1      -2.417  -0.542   6.002  0.00  0.00    +0.052 A 
ATOM     16 CL   UNL     1      -0.802  -0.970   5.530  0.00  0.00    -0.083 Cl
ATOM     17 CL   UNL     1      -6.606   0.578   7.248  0.00  0.00    -0.084 Cl
ENDBRANCH   8  10
ENDBRANCH   2   5
BRANCH   1  18
ATOM     18  N   UNL     1      -0.572  -4.863   0.697  0.00  0.00    -0.245 N 
ATOM     19  H   UNL     1      -0.597  -5.829   0.610  0.00  0.00    +0.172 HD
BRANCH  18  20
ATOM     20  C   UNL     1       0.061  -4.119  -0.232  0.00  0.00    +0.151 C 
ATOM     21  S   UNL     1       0.821  -4.880  -1.565  0.00  0.00    -0.017 S 
BRANCH  20  22
ATOM     22  N   UNL     1       0.096  -2.777  -0.112  0.00  0.00    -0.293 N 
ATOM     23  H   UNL     1      -0.264  -2.352   0.682  0.00  0.00    +0.154 HD
BRANCH  22  29
ATOM     24  C   UNL     1       1.506  -0.942  -0.820  0.00  0.00    +0.141 A 
ATOM     25  C   UNL     1       2.059  -0.177  -1.835  0.00  0.00    +0.047 A 
ATOM     26  C   UNL     1       1.758  -0.458  -3.155  0.00  0.00    +0.004 A 
ATOM     27  C   UNL     1       0.906  -1.502  -3.466  0.00  0.00    +0.002 A 
ATOM     28  C   UNL     1       0.350  -2.269  -2.460  0.00  0.00    +0.027 A 
ATOM     29  C   UNL     1       0.653  -1.997  -1.134  0.00  0.00    +0.075 A 
BRANCH  24  31
ATOM     30  C   UNL     1       2.684   0.430   0.725  0.00  0.00    +0.277 C 
ATOM     31  O   UNL     1       1.801  -0.666   0.479  0.00  0.00    -0.493 OA
ENDBRANCH  24  31
ENDBRANCH  22  29
ENDBRANCH  20  22
ENDBRANCH  18  20
ENDBRANCH   1  18
TORSDOF 7
