REMARK  Name = ZINC63774846
REMARK  15 active torsions:
REMARK  status: ('A' for Active; 'I' for Inactive)
REMARK    1  A    between atoms: C_1  and  C_2
REMARK    2  A    between atoms: C_2  and  C_3
REMARK    3  A    between atoms: C_2  and  O_4
REMARK    4  A    between atoms: O_4  and  C_5
REMARK    5  A    between atoms: C_8  and  C_24
REMARK    6  A    between atoms: C_10  and  N_11
REMARK    7  A    between atoms: N_11  and  C_12
REMARK    8  A    between atoms: C_12  and  C_13
REMARK    9  A    between atoms: C_12  and  C_14
REMARK   10  A    between atoms: N_19  and  C_20
REMARK   11  A    between atoms: C_20  and  C_21
REMARK   12  A    between atoms: C_20  and  C_22
REMARK   13  A    between atoms: C_20  and  C_23
REMARK   14  A    between atoms: C_24  and  O_26
REMARK   15  A    between atoms: O_26  and  C_27
REMARK                            x       y       z     vdW  Elec       q    Type
REMARK                         _______ _______ _______ _____ _____    ______ ____
ROOT
ATOM      1  N   UNL     1      -3.944  -1.427  -0.204  0.00  0.00    -0.330 N 
ATOM      2  H   UNL     1      -3.770  -0.613   0.294  0.00  0.00    +0.147 HD
ENDROOT
BRANCH   1   8
ATOM      3  C   UNL     1      -1.580  -1.638  -0.686  0.00  0.00    +0.142 A 
ATOM      4  C   UNL     1      -0.528  -2.326  -1.275  0.00  0.00    +0.048 A 
ATOM      5  C   UNL     1      -0.767  -3.482  -1.984  0.00  0.00    +0.018 A 
ATOM      6  C   UNL     1      -2.072  -3.967  -2.113  0.00  0.00    +0.061 A 
ATOM      7  C   UNL     1      -3.132  -3.276  -1.520  0.00  0.00    +0.041 A 
ATOM      8  C   UNL     1      -2.885  -2.119  -0.805  0.00  0.00    +0.071 A 
BRANCH   6   9
ATOM      9  C   UNL     1      -2.329  -5.205  -2.873  0.00  0.00    +0.339 C 
ATOM     10  O   UNL     1      -3.464  -5.625  -2.984  0.00  0.00    -0.245 OA
BRANCH   9  11
ATOM     11  O   UNL     1      -1.306  -5.869  -3.444  0.00  0.00    -0.464 OA
ATOM     12  C   UNL     1      -1.627  -7.060  -4.165  0.00  0.00    +0.280 C 
ENDBRANCH   9  11
ENDBRANCH   6   9
BRANCH   3  13
ATOM     13  O   UNL     1      -1.339  -0.499   0.012  0.00  0.00    -0.488 OA
BRANCH  13  15
ATOM     14  C   UNL     1      -0.011   1.505   0.265  0.00  0.00    +0.051 C 
ATOM     15  C   UNL     1       0.001  -0.002  -0.000  0.00  0.00    +0.167 C 
ATOM     16  C   UNL     1       0.816  -0.705   1.088  0.00  0.00    +0.051 C 
ENDBRANCH  13  15
ENDBRANCH   3  13
ENDBRANCH   1   8
BRANCH   1  17
ATOM     17  C   UNL     1      -5.313  -1.931  -0.330  0.00  0.00    +0.154 C 
ATOM     18  C   UNL     1      -5.923  -1.432  -1.641  0.00  0.00    +0.038 C 
BRANCH  17  19
ATOM     19  C   UNL     1      -6.139  -1.436   0.830  0.00  0.00    +0.240 C 
ATOM     20  O   UNL     1      -5.633  -0.731   1.676  0.00  0.00    -0.273 OA
ATOM     21  N   UNL     1      -7.439  -1.776   0.925  0.00  0.00    -0.239 N 
ATOM     22  C   UNL     1      -8.178  -1.333   1.962  0.00  0.00    +0.306 C 
ATOM     23  O   UNL     1      -7.671  -0.626   2.811  0.00  0.00    -0.252 OA
ATOM     24  N   UNL     1      -9.479  -1.674   2.057  0.00  0.00    -0.294 N 
ATOM     25  H   UNL     1      -7.844  -2.340   0.247  0.00  0.00    +0.159 HD
ATOM     26  H   UNL     1      -9.883  -2.238   1.379  0.00  0.00    +0.151 HD
BRANCH  24  27
ATOM     27  C   UNL     1     -10.281  -1.192   3.184  0.00  0.00    +0.028 C 
ATOM     28  C   UNL     1     -10.299   0.338   3.180  0.00  0.00    +0.031 C 
ATOM     29  C   UNL     1     -11.712  -1.719   3.053  0.00  0.00    +0.031 C 
ATOM     30  C   UNL     1      -9.671  -1.692   4.495  0.00  0.00    +0.031 C 
ENDBRANCH  24  27
ENDBRANCH  17  19
ENDBRANCH   1  17
TORSDOF 8
