REMARK  Name = ZINC22453204
REMARK  6 active torsions:
REMARK  status: ('A' for Active; 'I' for Inactive)
REMARK    1  A    between atoms: C_1  and  C_2
REMARK    2  A    between atoms: C_7  and  C_31
REMARK    3  A    between atoms: C_16  and  C_18
REMARK    4  A    between atoms: C_18  and  S_19
REMARK    5  A    between atoms: S_19  and  C_20
REMARK    6  A    between atoms: N_24  and  C_25
REMARK                            x       y       z     vdW  Elec       q    Type
REMARK                         _______ _______ _______ _____ _____    ______ ____
ROOT
ATOM      1  C   UNL     1       3.096   8.769  -6.917  0.00  0.00    +0.028 C 
ATOM      2  C   UNL     1       1.781   8.010  -7.100  0.00  0.00    +0.073 C 
ATOM      3  C   UNL     1       1.507   7.816  -8.593  0.00  0.00    +0.022 C 
ATOM      4  C   UNL     1       0.200   7.038  -8.771  0.00  0.00    +0.004 C 
ATOM      5  C   UNL     1       0.310   5.698  -8.038  0.00  0.00    +0.022 C 
ATOM      6  C   UNL     1       0.618   5.953  -6.561  0.00  0.00    +0.073 C 
ATOM      7  N   UNL     1       1.878   6.699  -6.444  0.00  0.00    -0.296 N 
ATOM      8  C   UNL     1       2.249   6.832  -5.134  0.00  0.00    +0.199 A 
ATOM      9  N   UNL     1       1.737   7.853  -4.394  0.00  0.00    -0.295 N 
ATOM     10  H   UNL     1       1.030   8.562  -4.850  0.00  0.00    +0.172 HD
ATOM     11  C   UNL     1       2.099   7.990  -3.100  0.00  0.00    +0.253 A 
ATOM     12  O   UNL     1       1.649   8.899  -2.422  0.00  0.00    -0.268 OA
ATOM     13  C   UNL     1       3.000   7.063  -2.548  0.00  0.00    +0.094 A 
ATOM     14  C   UNL     1       3.485   6.063  -3.340  0.00  0.00    +0.060 A 
ATOM     15  N   UNL     1       3.098   5.970  -4.610  0.00  0.00    -0.220 NA
ATOM     16  C   UNL     1      -0.517   6.768  -5.937  0.00  0.00    +0.028 C 
ENDROOT
BRANCH  14  17
ATOM     17  C   UNL     1       4.456   5.059  -2.774  0.00  0.00    +0.133 C 
BRANCH  17  18
ATOM     18  S   UNL     1       3.602   3.490  -2.484  0.00  0.00    -0.078 S 
BRANCH  18  19
ATOM     19  C   UNL     1       4.933   2.531  -1.842  0.00  0.00    +0.214 A 
ATOM     20  N   UNL     1       6.173   2.933  -1.662  0.00  0.00    -0.101 NA
ATOM     21  N   UNL     1       6.888   1.984  -1.178  0.00  0.00    -0.022 NA
ATOM     22  N   UNL     1       6.177   0.922  -1.008  0.00  0.00    -0.038 NA
ATOM     23  N   UNL     1       4.875   1.231  -1.439  0.00  0.00    -0.187 N 
BRANCH  23  24
ATOM     24  C   UNL     1       3.756   0.385  -1.446  0.00  0.00    +0.070 A 
ATOM     25  C   UNL     1       2.494   0.899  -1.183  0.00  0.00    +0.028 A 
ATOM     26  C   UNL     1       1.394   0.063  -1.192  0.00  0.00    +0.002 A 
ATOM     27  C   UNL     1       1.550  -1.284  -1.462  0.00  0.00    +0.000 A 
ATOM     28  C   UNL     1       2.806  -1.799  -1.724  0.00  0.00    +0.002 A 
ATOM     29  C   UNL     1       3.909  -0.968  -1.717  0.00  0.00    +0.028 A 
ENDBRANCH  23  24
ENDBRANCH  18  19
ENDBRANCH  17  18
ENDBRANCH  14  17
TORSDOF 4
