REMARK  Name = ZINC39674993
REMARK  8 active torsions:
REMARK  status: ('A' for Active; 'I' for Inactive)
REMARK    1  A    between atoms: C_1  and  C_2
REMARK    2  A    between atoms: C_5  and  C_9
REMARK    3  A    between atoms: C_13  and  C_22
REMARK    4  A    between atoms: N_24  and  C_25
REMARK    5  A    between atoms: C_25  and  C_26
REMARK    6  A    between atoms: C_26  and  N_27
REMARK    7  A    between atoms: C_28  and  C_33
REMARK    8  A    between atoms: C_30  and  C_32
REMARK                            x       y       z     vdW  Elec       q    Type
REMARK                         _______ _______ _______ _____ _____    ______ ____
ROOT
ATOM      1  C   UNL     1      -0.035  -4.528  -0.123  0.00  0.00    +0.247 C 
ATOM      2  O   UNL     1      -0.167  -5.214  -1.118  0.00  0.00    -0.270 OA
ATOM      3  N   UNL     1       0.115  -5.111   1.082  0.00  0.00    -0.296 N 
ATOM      4  C   UNL     1       0.157  -4.454   2.410  0.00  0.00    +0.121 C 
ATOM      5  C   UNL     1      -0.633  -5.402   3.340  0.00  0.00    +0.100 C 
ATOM      6  C   UNL     1      -0.550  -6.778   2.659  0.00  0.00    -0.004 C 
ATOM      7  C   UNL     1       0.270  -6.555   1.381  0.00  0.00    +0.115 C 
ATOM      8  C   UNL     1      -1.947  -7.277   2.303  0.00  0.00    -0.010 C 
ATOM      9  C   UNL     1      -1.843  -8.672   1.679  0.00  0.00    -0.082 C 
ATOM     10  N   UNL     1      -1.203  -9.588   2.631  0.00  0.00    +0.379 N 
ATOM     11  C   UNL     1       0.173  -9.152   2.898  0.00  0.00    -0.082 C 
ATOM     12  C   UNL     1       0.154  -7.777   3.572  0.00  0.00    -0.010 C 
ATOM     13  H   UNL     1      -1.725  -9.593   3.494  0.00  0.00    -0.086 HD
ATOM     14  H   UNL     1      -1.190 -10.519   2.243  0.00  0.00    -0.086 HD
ENDROOT
BRANCH   1  19
ATOM     15  C   UNL     1      -0.051   1.212  -0.559  0.00  0.00    +0.047 C 
ATOM     16  C   UNL     1      -0.048  -0.291  -0.446  0.00  0.00    -0.015 A 
ATOM     17  C   UNL     1       0.530  -0.897   0.656  0.00  0.00    +0.007 A 
ATOM     18  C   UNL     1       0.537  -2.272   0.766  0.00  0.00    +0.013 A 
ATOM     19  C   UNL     1      -0.040  -3.054  -0.236  0.00  0.00    +0.040 A 
ATOM     20  C   UNL     1      -0.622  -2.438  -1.345  0.00  0.00    +0.051 A 
ATOM     21  C   UNL     1      -0.628  -1.059  -1.442  0.00  0.00    +0.127 A 
ATOM     22  F   UNL     1      -1.195  -0.460  -2.511  0.00  0.00    -0.205 F 
ENDBRANCH   1  19
BRANCH   5  23
ATOM     23  C   UNL     1      -2.068  -4.953   3.448  0.00  0.00    +0.218 C 
ATOM     24  O   UNL     1      -2.596  -4.379   2.520  0.00  0.00    -0.275 OA
ATOM     25  N   UNL     1      -2.765  -5.191   4.577  0.00  0.00    -0.313 N 
ATOM     26  H   UNL     1      -2.342  -5.650   5.320  0.00  0.00    +0.149 HD
BRANCH  25  27
ATOM     27  C   UNL     1      -4.159  -4.755   4.683  0.00  0.00    +0.127 C 
BRANCH  27  28
ATOM     28  C   UNL     1      -4.713  -5.144   6.055  0.00  0.00    +0.162 C 
BRANCH  28  29
ATOM     29  N   UNL     1      -6.107  -4.709   6.161  0.00  0.00    -0.267 N 
ATOM     30  C   UNL     1      -6.533  -3.512   6.618  0.00  0.00    +0.036 A 
ATOM     31  C   UNL     1      -7.885  -3.504   6.555  0.00  0.00    +0.047 A 
ATOM     32  C   UNL     1      -8.299  -4.737   6.042  0.00  0.00    +0.060 A 
ATOM     33  N   UNL     1      -7.235  -5.458   5.800  0.00  0.00    -0.176 NA
ATOM     34  C   UNL     1      -9.726  -5.160   5.803  0.00  0.00    +0.067 C 
ATOM     35  C   UNL     1      -5.659  -2.388   7.111  0.00  0.00    +0.065 C 
ENDBRANCH  28  29
ENDBRANCH  27  28
ENDBRANCH  25  27
ENDBRANCH   5  23
TORSDOF 5
