REMARK  Name = ZINC37821145
REMARK  4 active torsions:
REMARK  status: ('A' for Active; 'I' for Inactive)
REMARK    1  A    between atoms: C_3  and  N_20
REMARK    2  A    between atoms: C_4  and  C_8
REMARK    3  A    between atoms: C_13  and  C_16
REMARK    4  A    between atoms: C_16  and  C_17
REMARK                            x       y       z     vdW  Elec       q    Type
REMARK                         _______ _______ _______ _____ _____    ______ ____
ROOT
ATOM      1  C   UNL     1       3.840  -0.355   0.302  0.00  0.00    +0.248 C 
ATOM      2  O   UNL     1       4.794   0.397   0.339  0.00  0.00    -0.270 OA
ATOM      3  N   UNL     1       4.027  -1.687   0.395  0.00  0.00    -0.297 N 
ATOM      4  C   UNL     1       2.900  -2.615   0.225  0.00  0.00    +0.108 C 
ATOM      5  C   UNL     1       3.266  -3.642  -0.852  0.00  0.00    +0.023 C 
ATOM      6  C   UNL     1       4.587  -4.318  -0.478  0.00  0.00    +0.001 C 
ATOM      7  C   UNL     1       5.699  -3.269  -0.414  0.00  0.00    +0.023 C 
ATOM      8  C   UNL     1       5.362  -2.238   0.661  0.00  0.00    +0.108 C 
ENDROOT
BRANCH   1  12
ATOM      9  C   UNL     1      -0.088   1.215  -0.118  0.00  0.00    +0.040 A 
ATOM     10  C   UNL     1       0.908   1.632  -0.977  0.00  0.00    +0.026 A 
ATOM     11  C   UNL     1       2.195   1.126  -0.849  0.00  0.00    +0.037 A 
ATOM     12  C   UNL     1       2.477   0.189   0.157  0.00  0.00    +0.060 A 
ATOM     13  C   UNL     1       1.459  -0.225   1.020  0.00  0.00    +0.053 A 
ATOM     14  C   UNL     1       0.186   0.289   0.878  0.00  0.00    +0.124 A 
ATOM     15  F   UNL     1      -0.797  -0.112   1.714  0.00  0.00    -0.205 F 
BRANCH  11  16
ATOM     16  N   UNL     1       3.199   1.546  -1.714  0.00  0.00    -0.357 N 
ATOM     17  H   UNL     1       3.027   2.261  -2.346  0.00  0.00    +0.142 HD
ATOM     18  H   UNL     1       4.072   1.123  -1.685  0.00  0.00    +0.142 HD
ENDBRANCH  11  16
ENDBRANCH   1  12
BRANCH   6  19
ATOM     19  C   UNL     1       4.937  -5.369  -1.533  0.00  0.00    +0.099 C 
BRANCH  19  20
ATOM     20  C   UNL     1       6.171  -6.120  -1.103  0.00  0.00    +0.211 C 
ATOM     21  O   UNL     1       6.716  -5.842  -0.056  0.00  0.00    -0.276 OA
ATOM     22  N   UNL     1       6.669  -7.101  -1.883  0.00  0.00    -0.329 N 
ATOM     23  H   UNL     1       6.233  -7.323  -2.720  0.00  0.00    +0.145 HD
ATOM     24  H   UNL     1       7.463  -7.584  -1.606  0.00  0.00    +0.145 HD
ENDBRANCH  19  20
ENDBRANCH   6  19
TORSDOF 4
