REMARK  Name = ZINC39534290
REMARK  10 active torsions:
REMARK  status: ('A' for Active; 'I' for Inactive)
REMARK    1  A    between atoms: C_4  and  C_7
REMARK    2  A    between atoms: C_7  and  N_8
REMARK    3  A    between atoms: N_8  and  C_9
REMARK    4  A    between atoms: C_9  and  C_10
REMARK    5  A    between atoms: C_10  and  C_12
REMARK    6  A    between atoms: C_10  and  N_28
REMARK    7  A    between atoms: C_15  and  S_18
REMARK    8  A    between atoms: S_18  and  O_21
REMARK    9  A    between atoms: O_21  and  C_22
REMARK   10  A    between atoms: C_32  and  O_35
REMARK                            x       y       z     vdW  Elec       q    Type
REMARK                         _______ _______ _______ _____ _____    ______ ____
ROOT
ATOM      1  C   UNL     1       5.862  -1.907   2.814  0.00  0.00    +0.100 C 
ENDROOT
BRANCH   1   2
ATOM      2  N   UNL     1       4.705  -2.632   3.357  0.00  0.00    -0.295 NA
ATOM      3  C   UNL     1       4.088  -3.485   2.332  0.00  0.00    +0.066 C 
ATOM      4  C   UNL     1       2.928  -4.266   2.952  0.00  0.00    -0.063 C 
ATOM      5  N   UNL     1       1.937  -3.325   3.492  0.00  0.00    +0.398 N 
ATOM      6  C   UNL     1       2.562  -2.498   4.533  0.00  0.00    +0.073 C 
ATOM      7  C   UNL     1       3.720  -1.702   3.925  0.00  0.00    +0.096 C 
ATOM      8  H   UNL     1       1.597  -2.732   2.750  0.00  0.00    -0.082 HD
ATOM      9  H   UNL     1       1.166  -3.840   3.890  0.00  0.00    -0.082 HD
BRANCH   6  10
ATOM     10  O   UNL     1       1.593  -1.595   5.069  0.00  0.00    -0.409 OA
ATOM     11  H   UNL     1       0.830  -2.031   5.471  0.00  0.00    +0.207 HD
ENDBRANCH   6  10
ENDBRANCH   1   2
BRANCH   1  12
ATOM     12  C   UNL     1       7.115  -2.709   3.053  0.00  0.00    -0.029 A 
ATOM     13  C   UNL     1       7.072  -4.090   3.001  0.00  0.00    +0.007 A 
ATOM     14  C   UNL     1       8.222  -4.826   3.220  0.00  0.00    +0.031 A 
ATOM     15  C   UNL     1       9.414  -4.181   3.490  0.00  0.00    +0.128 A 
ATOM     16  C   UNL     1       9.457  -2.800   3.541  0.00  0.00    +0.031 A 
ATOM     17  C   UNL     1       8.308  -2.064   3.318  0.00  0.00    +0.007 A 
BRANCH  15  18
ATOM     18  S   UNL     1      10.880  -5.118   3.771  0.00  0.00    +0.151 S 
ATOM     19  O   UNL     1      11.746  -4.296   4.541  0.00  0.00    -0.131 OA
ATOM     20  O   UNL     1      10.461  -6.404   4.208  0.00  0.00    -0.131 OA
BRANCH  18  21
ATOM     21  O   UNL     1      11.553  -5.315   2.420  0.00  0.00    -0.342 OA
BRANCH  21  22
ATOM     22  C   UNL     1      12.181  -4.206   1.948  0.00  0.00    +0.157 A 
ATOM     23  C   UNL     1      11.489  -3.299   1.158  0.00  0.00    +0.048 A 
ATOM     24  C   UNL     1      12.129  -2.172   0.680  0.00  0.00    +0.004 A 
ATOM     25  C   UNL     1      13.458  -1.948   0.988  0.00  0.00    +0.000 A 
ATOM     26  C   UNL     1      14.150  -2.850   1.774  0.00  0.00    +0.004 A 
ATOM     27  C   UNL     1      13.513  -3.975   2.260  0.00  0.00    +0.048 A 
ENDBRANCH  21  22
ENDBRANCH  18  21
ENDBRANCH  15  18
ENDBRANCH   1  12
BRANCH   1  28
ATOM     28  C   UNL     1       5.670  -1.696   1.311  0.00  0.00    +0.104 C 
BRANCH  28  29
ATOM     29  N   UNL     1       4.431  -0.943   1.076  0.00  0.00    -0.310 NA
ATOM     30  H   UNL     1       4.438  -0.069   1.580  0.00  0.00    +0.122 HD
BRANCH  29  31
ATOM     31  C   UNL     1       4.214  -0.721  -0.360  0.00  0.00    +0.116 C 
BRANCH  31  35
ATOM     32  C   UNL     1       0.593   1.472  -0.931  0.00  0.00    +0.000 A 
ATOM     33  C   UNL     1       1.790   2.145  -0.771  0.00  0.00    +0.000 A 
ATOM     34  C   UNL     1       2.962   1.435  -0.586  0.00  0.00    +0.005 A 
ATOM     35  C   UNL     1       2.936   0.053  -0.561  0.00  0.00    -0.034 A 
ATOM     36  C   UNL     1       1.739  -0.619  -0.720  0.00  0.00    +0.005 A 
ATOM     37  C   UNL     1       0.567   0.090  -0.906  0.00  0.00    +0.000 A 
ENDBRANCH  31  35
ENDBRANCH  29  31
ENDBRANCH  28  29
ENDBRANCH   1  28
TORSDOF 10
