REMARK  Name = ZINC39710300
REMARK  9 active torsions:
REMARK  status: ('A' for Active; 'I' for Inactive)
REMARK    1  A    between atoms: C_1  and  C_2
REMARK    2  A    between atoms: C_9  and  C_14
REMARK    3  A    between atoms: C_14  and  C_16
REMARK    4  A    between atoms: C_14  and  N_27
REMARK    5  A    between atoms: N_21  and  C_22
REMARK    6  A    between atoms: N_27  and  C_28
REMARK    7  A    between atoms: N_27  and  C_35
REMARK    8  A    between atoms: C_28  and  C_29
REMARK    9  A    between atoms: C_35  and  C_36
REMARK                            x       y       z     vdW  Elec       q    Type
REMARK                         _______ _______ _______ _____ _____    ______ ____
ROOT
ATOM      1  C   UNL     1      -1.675  -4.965   3.297  0.00  0.00    -0.009 C 
ENDROOT
BRANCH   1  10
ATOM      2  C   UNL     1      -0.481   2.068   2.958  0.00  0.00    +0.044 C 
ATOM      3  C   UNL     1      -0.519   0.679   2.373  0.00  0.00    -0.050 A 
ATOM      4  C   UNL     1      -0.617   0.522   0.991  0.00  0.00    +0.005 A 
ATOM      5  C   UNL     1      -0.656  -0.697   0.392  0.00  0.00    +0.024 A 
ATOM      6  C   UNL     1      -0.597  -1.873   1.162  0.00  0.00    +0.040 A 
ATOM      7  N   UNL     1      -0.636  -3.063   0.564  0.00  0.00    -0.285 N 
ATOM      8  C   UNL     1      -0.585  -4.206   1.227  0.00  0.00    +0.223 C 
ATOM      9  O   UNL     1      -0.625  -5.263   0.626  0.00  0.00    -0.275 OA
ATOM     10  C   UNL     1      -0.478  -4.195   2.735  0.00  0.00    +0.088 C 
ATOM     11  C   UNL     1      -0.433  -2.843   3.420  0.00  0.00    -0.006 C 
ATOM     12  C   UNL     1      -0.493  -1.737   2.625  0.00  0.00    -0.007 A 
ATOM     13  C   UNL     1      -0.451  -0.393   3.204  0.00  0.00    +0.012 A 
ATOM     14  H   UNL     1      -0.705  -3.092  -0.403  0.00  0.00    +0.155 HD
ENDBRANCH   1  10
BRANCH   1  15
ATOM     15  C   UNL     1      -2.892  -4.745   2.396  0.00  0.00    +0.205 C 
ATOM     16  N   UNL     1      -2.548  -5.016   0.994  0.00  0.00    -0.152 NA
ATOM     17  N   UNL     1      -2.711  -3.986   0.337  0.00  0.00    -0.070 NA
ATOM     18  N   UNL     1      -3.158  -2.914   1.109  0.00  0.00    -0.179 N 
ATOM     19  N   UNL     1      -3.295  -3.322   2.413  0.00  0.00    -0.185 NA
ATOM     20  H   UNL     1      -3.344  -2.022   0.778  0.00  0.00    +0.191 HD
BRANCH  19  21
ATOM     21  C   UNL     1      -4.683  -3.174   2.871  0.00  0.00    +0.080 C 
ATOM     22  C   UNL     1      -5.650  -3.771   1.828  0.00  0.00    +0.021 C 
ATOM     23  C   UNL     1      -6.869  -2.816   1.851  0.00  0.00    +0.002 C 
ATOM     24  C   UNL     1      -6.210  -1.425   2.029  0.00  0.00    +0.002 C 
ATOM     25  C   UNL     1      -5.039  -1.683   2.999  0.00  0.00    +0.021 C 
ENDBRANCH  19  21
ENDBRANCH   1  15
BRANCH   1  26
ATOM     26  N   UNL     1      -1.355  -6.398   3.345  0.00  0.00    +0.390 N 
ATOM     27  H   UNL     1      -2.063  -6.883   3.877  0.00  0.00    -0.080 HD
BRANCH  26  28
ATOM     28  C   UNL     1      -1.313  -6.937   1.979  0.00  0.00    -0.042 C 
BRANCH  28  29
ATOM     29  C   UNL     1      -1.288  -8.443   2.034  0.00  0.00    -0.064 A 
ATOM     30  C   UNL     1      -0.081  -9.113   2.094  0.00  0.00    +0.002 A 
ATOM     31  C   UNL     1      -0.058 -10.494   2.144  0.00  0.00    +0.000 A 
ATOM     32  C   UNL     1      -1.243 -11.206   2.135  0.00  0.00    +0.000 A 
ATOM     33  C   UNL     1      -2.451 -10.536   2.076  0.00  0.00    +0.000 A 
ATOM     34  C   UNL     1      -2.474  -9.154   2.030  0.00  0.00    +0.002 A 
ENDBRANCH  28  29
ENDBRANCH  26  28
BRANCH  26  35
ATOM     35  C   UNL     1      -0.047  -6.587   3.987  0.00  0.00    -0.040 C 
BRANCH  35  36
ATOM     36  C   UNL     1      -0.099  -6.063   5.399  0.00  0.00    -0.046 A 
ATOM     37  C   UNL     1       0.350  -4.784   5.690  0.00  0.00    +0.005 A 
ATOM     38  C   UNL     1       0.283  -4.343   7.003  0.00  0.00    +0.020 A 
ATOM     39  C   UNL     1      -0.227  -5.188   7.971  0.00  0.00    +0.111 A 
ATOM     40  N   UNL     1      -0.645  -6.399   7.657  0.00  0.00    -0.263 NA
ATOM     41  C   UNL     1      -0.601  -6.848   6.418  0.00  0.00    +0.112 A 
ENDBRANCH  35  36
ENDBRANCH  26  35
ENDBRANCH   1  26
TORSDOF 8
