REMARK  Name = ZINC34946225
REMARK  6 active torsions:
REMARK  status: ('A' for Active; 'I' for Inactive)
REMARK    1  A    between atoms: C_8  and  C_12
REMARK    2  A    between atoms: C_12  and  N_13
REMARK    3  A    between atoms: N_13  and  C_14
REMARK    4  A    between atoms: C_14  and  C_15
REMARK    5  A    between atoms: C_15  and  C_16
REMARK    6  A    between atoms: N_28  and  C_29
REMARK                            x       y       z     vdW  Elec       q    Type
REMARK                         _______ _______ _______ _____ _____    ______ ____
ROOT
ATOM      1  N   UNL     1       2.894  -4.667  -1.428  0.00  0.00    -0.281 N 
ATOM      2  C   UNL     1       1.864  -4.856  -2.276  0.00  0.00    +0.307 C 
ATOM      3  O   UNL     1       2.074  -5.234  -3.412  0.00  0.00    -0.252 OA
ATOM      4  N   UNL     1       0.601  -4.625  -1.865  0.00  0.00    -0.267 N 
ATOM      5  H   UNL     1       0.428  -4.385  -0.941  0.00  0.00    +0.156 HD
ENDROOT
BRANCH   4   6
ATOM      6  C   UNL     1      -0.462  -4.731  -2.773  0.00  0.00    +0.070 A 
ATOM      7  C   UNL     1      -0.422  -5.683  -3.782  0.00  0.00    +0.029 A 
ATOM      8  C   UNL     1      -1.470  -5.787  -4.675  0.00  0.00    +0.040 A 
ATOM      9  C   UNL     1      -2.562  -4.941  -4.566  0.00  0.00    +0.126 A 
ATOM     10  C   UNL     1      -2.605  -3.990  -3.561  0.00  0.00    +0.078 A 
ATOM     11  C   UNL     1      -1.560  -3.887  -2.660  0.00  0.00    +0.147 A 
ATOM     12  F   UNL     1      -1.605  -2.963  -1.676  0.00  0.00    -0.203 F 
ATOM     13  F   UNL     1      -3.585  -5.045  -5.441  0.00  0.00    -0.205 F 
ENDBRANCH   4   6
BRANCH   1  14
ATOM     14  C   UNL     1       2.641  -4.211  -0.059  0.00  0.00    +0.147 C 
BRANCH  14  22
ATOM     15  C   UNL     1       2.794   1.563  -2.148  0.00  0.00    +0.001 A 
ATOM     16  C   UNL     1       2.445   2.165  -0.941  0.00  0.00    +0.002 A 
ATOM     17  C   UNL     1       2.210   1.420   0.173  0.00  0.00    +0.028 A 
ATOM     18  C   UNL     1       2.318   0.019   0.111  0.00  0.00    +0.073 A 
ATOM     19  C   UNL     1       2.673  -0.590  -1.118  0.00  0.00    +0.001 A 
ATOM     20  C   UNL     1       2.909   0.210  -2.247  0.00  0.00    +0.010 A 
ATOM     21  C   UNL     1       2.781  -1.993  -1.178  0.00  0.00    +0.018 A 
ATOM     22  C   UNL     1       2.538  -2.708  -0.041  0.00  0.00    +0.007 A 
ATOM     23  C   UNL     1       2.193  -2.046   1.137  0.00  0.00    +0.135 A 
ATOM     24  N   UNL     1       2.092  -0.738   1.189  0.00  0.00    -0.235 NA
ATOM     25 CL   UNL     1       1.887  -2.975   2.571  0.00  0.00    -0.062 Cl
ENDBRANCH  14  22
ENDBRANCH   1  14
BRANCH   1  26
ATOM     26  C   UNL     1       4.266  -4.918  -1.874  0.00  0.00    +0.114 C 
BRANCH  26  27
ATOM     27  C   UNL     1       4.593  -6.404  -1.708  0.00  0.00    +0.056 C 
BRANCH  27  28
ATOM     28  C   UNL     1       6.005  -6.662  -2.167  0.00  0.00    -0.021 A 
ATOM     29  C   UNL     1       6.385  -7.075  -3.386  0.00  0.00    +0.087 A 
ATOM     30  N   UNL     1       7.747  -7.200  -3.433  0.00  0.00    -0.360 N 
ATOM     31  H   UNL     1       8.254  -7.484  -4.210  0.00  0.00    +0.165 HD
ATOM     32  C   UNL     1       8.290  -6.862  -2.215  0.00  0.00    +0.047 A 
ATOM     33  C   UNL     1       7.224  -6.503  -1.370  0.00  0.00    +0.003 A 
ATOM     34  C   UNL     1       7.479  -6.105  -0.056  0.00  0.00    +0.010 A 
ATOM     35  C   UNL     1       8.766  -6.061   0.401  0.00  0.00    +0.001 A 
ATOM     36  C   UNL     1       9.822  -6.409  -0.429  0.00  0.00    +0.002 A 
ATOM     37  C   UNL     1       9.592  -6.814  -1.726  0.00  0.00    +0.026 A 
ENDBRANCH  27  28
ENDBRANCH  26  27
ENDBRANCH   1  26
TORSDOF 6
