REMARK  Name = ZINC10040244
REMARK  11 active torsions:
REMARK  status: ('A' for Active; 'I' for Inactive)
REMARK    1  A    between atoms: C_1  and  C_2
REMARK    2  A    between atoms: C_2  and  O_3
REMARK    3  A    between atoms: O_3  and  C_4
REMARK    4  A    between atoms: C_9  and  C_10
REMARK    5  A    between atoms: N_11  and  N_12
REMARK    6  A    between atoms: C_13  and  C_15
REMARK    7  A    between atoms: C_15  and  C_17
REMARK    8  A    between atoms: C_15  and  N_20
REMARK    9  A    between atoms: C_17  and  C_18
REMARK   10  A    between atoms: C_17  and  C_19
REMARK   11  A    between atoms: C_21  and  C_23
REMARK                            x       y       z     vdW  Elec       q    Type
REMARK                         _______ _______ _______ _____ _____    ______ ____
ROOT
ATOM      1  N   UNL     1      -4.647  -3.203   0.888  0.00  0.00    -0.205 N 
ATOM      2  C   UNL     1      -3.614  -2.339   0.940  0.00  0.00    +0.253 C 
ATOM      3  O   UNL     1      -2.564  -2.677   1.446  0.00  0.00    -0.272 OA
ATOM      4  H   UNL     1      -5.507  -2.911   0.549  0.00  0.00    +0.177 HD
ENDROOT
BRANCH   1   6
ATOM      5  C   UNL     1      -5.472  -5.357   1.273  0.00  0.00    +0.142 C 
ATOM      6  N   UNL     1      -4.477  -4.524   1.323  0.00  0.00    -0.188 NA
BRANCH   5  12
ATOM      7  C   UNL     1      -4.051  -7.173   2.221  0.00  0.00    +0.129 A 
ATOM      8  C   UNL     1      -3.894  -8.481   2.649  0.00  0.00    +0.047 A 
ATOM      9  C   UNL     1      -4.958  -9.361   2.593  0.00  0.00    +0.019 A 
ATOM     10  C   UNL     1      -6.187  -8.945   2.109  0.00  0.00    +0.019 A 
ATOM     11  C   UNL     1      -6.363  -7.644   1.685  0.00  0.00    +0.028 A 
ATOM     12  C   UNL     1      -5.293  -6.746   1.731  0.00  0.00    +0.037 A 
ATOM     13 BR   UNL     1      -7.633 -10.161   2.039  0.00  0.00    -0.050 Br
BRANCH   7  14
ATOM     14  O   UNL     1      -3.006  -6.307   2.276  0.00  0.00    -0.492 OA
BRANCH  14  16
ATOM     15  C   UNL     1      -0.720  -5.701   2.771  0.00  0.00    +0.048 C 
ATOM     16  C   UNL     1      -1.771  -6.812   2.787  0.00  0.00    +0.226 C 
ENDBRANCH  14  16
ENDBRANCH   7  14
ENDBRANCH   5  12
ENDBRANCH   1   6
BRANCH   2  17
ATOM     17  C   UNL     1      -3.763  -0.952   0.369  0.00  0.00    +0.163 C 
BRANCH  17  18
ATOM     18  N   UNL     1      -2.722  -0.082   0.922  0.00  0.00    -0.300 N 
ATOM     19  C   UNL     1      -2.919   1.250   0.984  0.00  0.00    +0.246 C 
ATOM     20  O   UNL     1      -3.961   1.729   0.580  0.00  0.00    -0.270 OA
ATOM     21  H   UNL     1      -1.891  -0.465   1.244  0.00  0.00    +0.150 HD
BRANCH  19  22
ATOM     22  C   UNL     1      -1.869   2.127   1.541  0.00  0.00    +0.055 A 
ATOM     23  C   UNL     1      -0.671   1.579   2.006  0.00  0.00    +0.016 A 
ATOM     24  C   UNL     1       0.306   2.403   2.520  0.00  0.00    +0.021 A 
ATOM     25  C   UNL     1       0.102   3.772   2.582  0.00  0.00    +0.042 A 
ATOM     26  C   UNL     1      -1.085   4.322   2.129  0.00  0.00    +0.040 A 
ATOM     27  C   UNL     1      -2.073   3.507   1.611  0.00  0.00    +0.054 A 
ATOM     28 CL   UNL     1      -3.560   4.198   1.042  0.00  0.00    -0.083 Cl
ATOM     29 CL   UNL     1       1.339   4.802   3.232  0.00  0.00    -0.083 Cl
ENDBRANCH  19  22
ENDBRANCH  17  18
BRANCH  17  30
ATOM     30  C   UNL     1      -3.624  -1.009  -1.153  0.00  0.00    +0.012 C 
ATOM     31  C   UNL     1      -3.890   0.378  -1.742  0.00  0.00    +0.009 C 
ATOM     32  C   UNL     1      -2.208  -1.456  -1.520  0.00  0.00    +0.009 C 
ENDBRANCH  17  30
ENDBRANCH   2  17
TORSDOF 8
