REMARK  Name = ZINC12041098
REMARK  12 active torsions:
REMARK  status: ('A' for Active; 'I' for Inactive)
REMARK    1  A    between atoms: C_1  and  O_2
REMARK    2  A    between atoms: O_2  and  C_3
REMARK    3  A    between atoms: C_7  and  C_11
REMARK    4  A    between atoms: C_8  and  O_9
REMARK    5  A    between atoms: O_9  and  C_10
REMARK    6  A    between atoms: N_13  and  C_14
REMARK    7  A    between atoms: N_13  and  C_31
REMARK    8  A    between atoms: C_14  and  C_15
REMARK    9  A    between atoms: C_20  and  S_29
REMARK   10  A    between atoms: C_23  and  N_24
REMARK   11  A    between atoms: S_29  and  C_30
REMARK   12  A    between atoms: C_31  and  C_32
REMARK                            x       y       z     vdW  Elec       q    Type
REMARK                         _______ _______ _______ _____ _____    ______ ____
ROOT
ATOM      1  C   UNL     1      -1.492  -0.618  -0.113  0.00  0.00    +0.251 C 
ATOM      2  O   UNL     1      -2.619  -0.166  -0.044  0.00  0.00    -0.270 OA
ATOM      3  N   UNL     1      -1.293  -1.948  -0.025  0.00  0.00    -0.291 N 
ENDROOT
BRANCH   1   8
ATOM      4  C   UNL     1       0.609   2.306  -1.216  0.00  0.00    +0.162 A 
ATOM      5  C   UNL     1       1.824   1.993  -0.629  0.00  0.00    +0.049 A 
ATOM      6  C   UNL     1       1.960   0.838   0.122  0.00  0.00    +0.005 A 
ATOM      7  C   UNL     1       0.889  -0.012   0.293  0.00  0.00    +0.017 A 
ATOM      8  C   UNL     1      -0.343   0.290  -0.293  0.00  0.00    +0.082 A 
ATOM      9  C   UNL     1      -0.481   1.458  -1.053  0.00  0.00    +0.174 A 
BRANCH   4  11
ATOM     10  C   UNL     1       1.643   4.267  -2.079  0.00  0.00    +0.277 C 
ATOM     11  O   UNL     1       0.483   3.443  -1.953  0.00  0.00    -0.491 OA
ENDBRANCH   4  11
BRANCH   9  12
ATOM     12  O   UNL     1      -1.672   1.759  -1.631  0.00  0.00    -0.491 OA
ATOM     13  C   UNL     1      -2.588   2.541  -0.862  0.00  0.00    +0.277 C 
ENDBRANCH   9  12
ENDBRANCH   1   8
BRANCH   3  14
ATOM     14  C   UNL     1      -2.439  -2.860  -0.007  0.00  0.00    +0.146 C 
BRANCH  14  15
ATOM     15  C   UNL     1      -2.784  -3.260  -1.419  0.00  0.00    +0.008 A 
ATOM     16  C   UNL     1      -3.806  -2.640  -2.073  0.00  0.00    +0.018 A 
ATOM     17  C   UNL     1      -4.098  -3.042  -3.392  0.00  0.00    -0.001 A 
ATOM     18  C   UNL     1      -5.138  -2.442  -4.120  0.00  0.00    +0.011 A 
ATOM     19  C   UNL     1      -5.397  -2.849  -5.391  0.00  0.00    +0.015 A 
ATOM     20  C   UNL     1      -4.638  -3.863  -5.988  0.00  0.00    +0.010 A 
ATOM     21  C   UNL     1      -3.610  -4.471  -5.299  0.00  0.00    +0.041 A 
ATOM     22  C   UNL     1      -3.323  -4.069  -3.986  0.00  0.00    +0.049 A 
ATOM     23  C   UNL     1      -2.050  -4.266  -2.062  0.00  0.00    +0.104 A 
ATOM     24  N   UNL     1      -2.289  -4.698  -3.326  0.00  0.00    -0.343 N 
ATOM     25  H   UNL     1      -1.735  -5.445  -3.762  0.00  0.00    +0.167 HD
BRANCH  23  26
ATOM     26  N   UNL     1      -1.010  -4.884  -1.385  0.00  0.00    -0.316 N 
ATOM     27  C   UNL     1      -1.448  -6.177  -0.800  0.00  0.00    +0.106 C 
ATOM     28  C   UNL     1      -0.116  -6.934  -0.574  0.00  0.00    +0.020 C 
ATOM     29  C   UNL     1       0.726  -6.529  -1.806  0.00  0.00    +0.020 C 
ATOM     30  C   UNL     1       0.100  -5.214  -2.305  0.00  0.00    +0.106 C 
ENDBRANCH  23  26
BRANCH  20  31
ATOM     31  S   UNL     1      -5.000  -4.367  -7.637  0.00  0.00    -0.129 S 
ATOM     32  C   UNL     1      -6.394  -3.313  -8.122  0.00  0.00    +0.090 C 
ENDBRANCH  20  31
ENDBRANCH  14  15
ENDBRANCH   3  14
BRANCH   3  33
ATOM     33  C   UNL     1       0.069  -2.481   0.054  0.00  0.00    +0.140 C 
BRANCH  33  34
ATOM     34  C   UNL     1       0.379  -2.878   1.499  0.00  0.00    +0.136 C 
ATOM     35  C   UNL     1       1.851  -3.326   1.630  0.00  0.00    +0.035 C 
ATOM     36  C   UNL     1       1.801  -4.490   2.644  0.00  0.00    +0.031 C 
ATOM     37  C   UNL     1       0.304  -4.608   3.006  0.00  0.00    +0.160 C 
ATOM     38  O   UNL     1      -0.395  -4.037   1.878  0.00  0.00    -0.375 OA
ENDBRANCH  33  34
ENDBRANCH   3  33
TORSDOF 9
