REMARK  Name = ZINC41117290
REMARK  6 active torsions:
REMARK  status: ('A' for Active; 'I' for Inactive)
REMARK    1  A    between atoms: C_3  and  C_9
REMARK    2  A    between atoms: C_4  and  O_8
REMARK    3  A    between atoms: C_5  and  O_7
REMARK    4  A    between atoms: C_9  and  N_10
REMARK    5  A    between atoms: N_10  and  C_11
REMARK    6  A    between atoms: C_14  and  C_17
REMARK                            x       y       z     vdW  Elec       q    Type
REMARK                         _______ _______ _______ _____ _____    ______ ____
ROOT
ATOM      1  N   UNL     1       4.198   2.251  -1.388  0.00  0.00    -0.340 N 
ATOM      2  H   UNL     1       3.717   1.820  -2.111  0.00  0.00    +0.146 HD
ENDROOT
BRANCH   1   3
ATOM      3  C   UNL     1       5.395   2.924  -1.648  0.00  0.00    +0.027 A 
ATOM      4  C   UNL     1       6.086   3.536  -0.610  0.00  0.00    +0.023 A 
ATOM      5  C   UNL     1       7.268   4.200  -0.865  0.00  0.00    +0.012 A 
ATOM      6  C   UNL     1       7.769   4.256  -2.164  0.00  0.00    +0.002 A 
ATOM      7  C   UNL     1       7.074   3.641  -3.204  0.00  0.00    +0.012 A 
ATOM      8  C   UNL     1       5.895   2.974  -2.944  0.00  0.00    +0.023 A 
BRANCH   6   9
ATOM      9  C   UNL     1       9.039   4.971  -2.440  0.00  0.00    +0.089 A 
ATOM     10  C   UNL     1       9.635   5.107  -3.654  0.00  0.00    +0.112 A 
ATOM     11  N   UNL     1      10.777   5.831  -3.452  0.00  0.00    -0.350 N 
ATOM     12  H   UNL     1      11.418   6.093  -4.131  0.00  0.00    +0.166 HD
ATOM     13  C   UNL     1      10.847   6.116  -2.133  0.00  0.00    +0.197 A 
ATOM     14  N   UNL     1       9.808   5.607  -1.533  0.00  0.00    -0.236 NA
ENDBRANCH   6   9
ENDBRANCH   1   3
BRANCH   1  15
ATOM     15  C   UNL     1       3.670   2.198  -0.023  0.00  0.00    +0.140 C 
BRANCH  15  18
ATOM     16  C   UNL     1      -0.017   1.378   0.010  0.00  0.00    +0.004 A 
ATOM     17  C   UNL     1       1.169   2.089   0.002  0.00  0.00    +0.009 A 
ATOM     18  C   UNL     1       2.379   1.420  -0.013  0.00  0.00    +0.015 A 
ATOM     19  C   UNL     1       2.405   0.035  -0.021  0.00  0.00    +0.163 A 
ATOM     20  C   UNL     1       1.211  -0.680  -0.013  0.00  0.00    +0.159 A 
ATOM     21  C   UNL     1       0.002  -0.004   0.002  0.00  0.00    +0.049 A 
BRANCH  20  22
ATOM     22  O   UNL     1       1.232  -2.040  -0.021  0.00  0.00    -0.503 OA
ATOM     23  H   UNL     1       1.246  -2.438   0.860  0.00  0.00    +0.292 HD
ENDBRANCH  20  22
BRANCH  19  24
ATOM     24  O   UNL     1       3.594  -0.625  -0.037  0.00  0.00    -0.503 OA
ATOM     25  H   UNL     1       3.947  -0.820   0.842  0.00  0.00    +0.292 HD
ENDBRANCH  19  24
ENDBRANCH  15  18
ENDBRANCH   1  15
TORSDOF 6
