REMARK  Name = ZINC63806143
REMARK  6 active torsions:
REMARK  status: ('A' for Active; 'I' for Inactive)
REMARK    1  A    between atoms: C_6  and  N_7
REMARK    2  A    between atoms: C_10  and  C_12
REMARK    3  A    between atoms: C_12  and  N_13
REMARK    4  A    between atoms: C_14  and  C_16
REMARK    5  A    between atoms: C_16  and  N_17
REMARK    6  A    between atoms: C_18  and  C_20
REMARK                            x       y       z     vdW  Elec       q    Type
REMARK                         _______ _______ _______ _____ _____    ______ ____
ROOT
ATOM      1  N   UNL     1      -4.596  -4.037  -0.687  0.00  0.00    -0.314 N 
ATOM      2  C   UNL     1      -5.271  -5.170  -0.407  0.00  0.00    +0.230 C 
ATOM      3  O   UNL     1      -4.773  -6.011   0.311  0.00  0.00    -0.274 OA
ATOM      4  H   UNL     1      -4.995  -3.364  -1.261  0.00  0.00    +0.149 HD
ENDROOT
BRANCH   1   5
ATOM      5  C   UNL     1      -3.261  -3.822  -0.124  0.00  0.00    +0.109 C 
BRANCH   5   9
ATOM      6  N   UNL     1      -1.198  -0.721   0.010  0.00  0.00    -0.330 N 
ATOM      7  C   UNL     1      -2.546  -0.134   0.020  0.00  0.00    +0.105 C 
ATOM      8  C   UNL     1      -3.555  -1.302  -0.002  0.00  0.00    +0.025 C 
ATOM      9  C   UNL     1      -2.722  -2.469  -0.594  0.00  0.00    +0.025 C 
ATOM     10  C   UNL     1      -1.323  -2.190   0.003  0.00  0.00    +0.110 C 
BRANCH   6  16
ATOM     11  C   UNL     1      -0.017   1.385   0.010  0.00  0.00    +0.026 A 
ATOM     12  C   UNL     1       1.171   2.090   0.002  0.00  0.00    +0.040 A 
ATOM     13  C   UNL     1       2.379   1.414  -0.013  0.00  0.00    +0.124 A 
ATOM     14  C   UNL     1       2.400   0.030  -0.021  0.00  0.00    +0.040 A 
ATOM     15  C   UNL     1       1.215  -0.680  -0.014  0.00  0.00    +0.026 A 
ATOM     16  C   UNL     1       0.002  -0.004   0.002  0.00  0.00    +0.030 A 
ATOM     17  F   UNL     1       3.539   2.107  -0.020  0.00  0.00    -0.205 F 
ENDBRANCH   6  16
ENDBRANCH   5   9
ENDBRANCH   1   5
BRANCH   2  18
ATOM     18  C   UNL     1      -6.645  -5.391  -0.986  0.00  0.00    +0.200 C 
BRANCH  18  19
ATOM     19  N   UNL     1      -7.161  -6.686  -0.536  0.00  0.00    -0.303 N 
ATOM     20  C   UNL     1      -8.382  -7.099  -0.931  0.00  0.00    +0.245 C 
ATOM     21  O   UNL     1      -9.054  -6.397  -1.661  0.00  0.00    -0.270 OA
ATOM     22  H   UNL     1      -6.625  -7.247   0.047  0.00  0.00    +0.150 HD
BRANCH  20  23
ATOM     23  C   UNL     1      -8.902  -8.404  -0.478  0.00  0.00    +0.040 A 
ATOM     24  C   UNL     1      -8.133  -9.210   0.366  0.00  0.00    +0.017 A 
ATOM     25  C   UNL     1      -8.621 -10.427   0.789  0.00  0.00    +0.050 A 
ATOM     26  C   UNL     1      -9.876 -10.857   0.379  0.00  0.00    +0.166 A 
ATOM     27  C   UNL     1     -10.649 -10.058  -0.464  0.00  0.00    +0.167 A 
ATOM     28  C   UNL     1     -10.167  -8.834  -0.887  0.00  0.00    +0.062 A 
ATOM     29  O   UNL     1     -11.826 -10.701  -0.716  0.00  0.00    -0.453 OA
ATOM     30  C   UNL     1     -11.598 -12.075  -0.353  0.00  0.00    +0.466 C 
ATOM     31  O   UNL     1     -10.571 -11.998   0.654  0.00  0.00    -0.453 OA
ENDBRANCH  20  23
ENDBRANCH  18  19
ENDBRANCH   2  18
TORSDOF 6
