REMARK  Name = ZINC35558287
REMARK  9 active torsions:
REMARK  status: ('A' for Active; 'I' for Inactive)
REMARK    1  A    between atoms: C_1  and  C_2
REMARK    2  A    between atoms: C_2  and  C_3
REMARK    3  A    between atoms: C_2  and  C_4
REMARK    4  A    between atoms: C_7  and  N_10
REMARK    5  A    between atoms: C_11  and  C_13
REMARK    6  A    between atoms: N_16  and  S_19
REMARK    7  A    between atoms: S_19  and  C_22
REMARK    8  A    between atoms: C_24  and  C_27
REMARK    9  A    between atoms: C_29  and  C_32
REMARK                            x       y       z     vdW  Elec       q    Type
REMARK                         _______ _______ _______ _____ _____    ______ ____
ROOT
ATOM      1  C   UNL     1       2.784  -2.994   6.808  0.00  0.00    +0.078 C 
ATOM      2  C   UNL     1       3.996  -3.866   6.470  0.00  0.00    +0.030 C 
ATOM      3  C   UNL     1       4.724  -4.245   7.763  0.00  0.00    +0.110 C 
ATOM      4  N   UNL     1       3.764  -4.876   8.679  0.00  0.00    -0.176 NA
ATOM      5  C   UNL     1       2.520  -4.162   9.000  0.00  0.00    +0.110 C 
ATOM      6  C   UNL     1       1.817  -3.784   7.693  0.00  0.00    +0.030 C 
ENDROOT
BRANCH   1   8
ATOM      7  N   UNL     1       2.746  -1.883   4.598  0.00  0.00    -0.285 N 
ATOM      8  C   UNL     1       2.085  -2.592   5.535  0.00  0.00    +0.220 C 
ATOM      9  O   UNL     1       0.927  -2.905   5.354  0.00  0.00    -0.275 OA
ATOM     10  H   UNL     1       3.692  -1.698   4.708  0.00  0.00    +0.155 HD
BRANCH   7  14
ATOM     11  C   UNL     1       0.727  -0.487   1.232  0.00  0.00    -0.045 A 
ATOM     12  C   UNL     1       0.068  -0.576   2.444  0.00  0.00    +0.006 A 
ATOM     13  C   UNL     1       0.734  -1.038   3.562  0.00  0.00    +0.023 A 
ATOM     14  C   UNL     1       2.068  -1.415   3.467  0.00  0.00    +0.033 A 
ATOM     15  C   UNL     1       2.727  -1.324   2.248  0.00  0.00    +0.023 A 
ATOM     16  C   UNL     1       2.053  -0.865   1.133  0.00  0.00    +0.006 A 
BRANCH  11  18
ATOM     17  C   UNL     1      -1.201  -0.888  -0.275  0.00  0.00    +0.012 C 
ATOM     18  C   UNL     1      -0.003   0.019   0.015  0.00  0.00    +0.013 C 
ATOM     19  C   UNL     1      -0.494   1.445   0.270  0.00  0.00    +0.012 C 
ENDBRANCH  11  18
ENDBRANCH   7  14
ENDBRANCH   1   8
BRANCH   4  20
ATOM     20  S   UNL     1       4.076  -6.363   9.336  0.00  0.00    +0.067 S 
ATOM     21  O   UNL     1       2.818  -6.928   9.679  0.00  0.00    -0.152 OA
ATOM     22  O   UNL     1       4.989  -7.010   8.461  0.00  0.00    -0.152 OA
BRANCH  20  23
ATOM     23  C   UNL     1       4.937  -6.093  10.850  0.00  0.00    +0.143 A 
ATOM     24  C   UNL     1       4.433  -5.934  12.095  0.00  0.00    +0.048 A 
ATOM     25  C   UNL     1       5.361  -5.734  13.117  0.00  0.00    +0.031 A 
ATOM     26  C   UNL     1       6.684  -5.714  12.791  0.00  0.00    +0.058 A 
ATOM     27  S   UNL     1       6.692  -5.968  11.131  0.00  0.00    -0.076 S 
BRANCH  25  28
ATOM     28  C   UNL     1       4.920  -5.547  14.520  0.00  0.00    +0.203 A 
ATOM     29  N   UNL     1       5.728  -5.343  15.577  0.00  0.00    -0.191 NA
ATOM     30  C   UNL     1       5.020  -5.218  16.662  0.00  0.00    +0.231 A 
ATOM     31  O   UNL     1       3.725  -5.339  16.341  0.00  0.00    -0.337 OA
ATOM     32  N   UNL     1       3.677  -5.548  14.938  0.00  0.00    -0.056 NA
BRANCH  30  33
ATOM     33  C   UNL     1       5.565  -4.979  18.047  0.00  0.00    +0.078 C 
ATOM     34  C   UNL     1       4.795  -5.725  19.149  0.00  0.00    +0.013 C 
ATOM     35  C   UNL     1       4.953  -4.459  20.007  0.00  0.00    +0.001 C 
ATOM     36  C   UNL     1       5.065  -3.675  18.689  0.00  0.00    +0.013 C 
ENDBRANCH  30  33
ENDBRANCH  25  28
ENDBRANCH  20  23
ENDBRANCH   4  20
TORSDOF 7
