REMARK  Name = ZINC27103612
REMARK  15 active torsions:
REMARK  status: ('A' for Active; 'I' for Inactive)
REMARK    1  A    between atoms: C_1  and  N_2
REMARK    2  A    between atoms: N_2  and  C_3
REMARK    3  A    between atoms: N_2  and  C_4
REMARK    4  A    between atoms: C_4  and  C_5
REMARK    5  A    between atoms: C_8  and  C_10
REMARK    6  A    between atoms: C_10  and  S_11
REMARK    7  A    between atoms: S_11  and  C_12
REMARK    8  A    between atoms: C_12  and  C_13
REMARK    9  A    between atoms: C_13  and  N_14
REMARK   10  A    between atoms: C_15  and  C_17
REMARK   11  A    between atoms: C_17  and  O_18
REMARK   12  A    between atoms: O_18  and  C_19
REMARK   13  A    between atoms: C_27  and  C_30
REMARK   14  A    between atoms: C_33  and  O_36
REMARK   15  A    between atoms: O_36  and  C_37
REMARK                            x       y       z     vdW  Elec       q    Type
REMARK                         _______ _______ _______ _____ _____    ______ ____
ROOT
ATOM      1  O   UNL     1       9.533  -0.665  -5.123  0.00  0.00    -0.483 OA
ENDROOT
BRANCH   1   2
ATOM      2  C   UNL     1      10.831  -1.058  -5.186  0.00  0.00    +0.125 A 
ATOM      3  C   UNL     1      11.545  -1.271  -4.008  0.00  0.00    +0.046 A 
ATOM      4  C   UNL     1      12.850  -1.671  -4.056  0.00  0.00    +0.019 A 
ATOM      5  C   UNL     1      13.472  -1.858  -5.292  0.00  0.00    +0.065 A 
ATOM      6  C   UNL     1      12.762  -1.640  -6.486  0.00  0.00    +0.142 A 
ATOM      7  C   UNL     1      11.434  -1.238  -6.418  0.00  0.00    +0.092 A 
ATOM      8  O   UNL     1      13.365  -1.820  -7.678  0.00  0.00    -0.462 OA
ATOM      9  C   UNL     1      14.637  -2.205  -7.805  0.00  0.00    +0.208 A 
ATOM     10  C   UNL     1      15.437  -2.450  -6.736  0.00  0.00    +0.064 A 
ATOM     11  C   UNL     1      14.880  -2.284  -5.382  0.00  0.00    +0.200 A 
ATOM     12  O   UNL     1      15.551  -2.489  -4.386  0.00  0.00    -0.286 OA
BRANCH  10  13
ATOM     13  C   UNL     1      16.845  -2.876  -6.927  0.00  0.00    -0.011 A 
ATOM     14  C   UNL     1      17.872  -2.218  -6.250  0.00  0.00    +0.012 A 
ATOM     15  C   UNL     1      19.179  -2.619  -6.426  0.00  0.00    +0.046 A 
ATOM     16  C   UNL     1      19.475  -3.670  -7.284  0.00  0.00    +0.120 A 
ATOM     17  C   UNL     1      18.456  -4.323  -7.963  0.00  0.00    +0.046 A 
ATOM     18  C   UNL     1      17.146  -3.930  -7.787  0.00  0.00    +0.012 A 
BRANCH  16  19
ATOM     19  O   UNL     1      20.765  -4.060  -7.459  0.00  0.00    -0.495 OA
ATOM     20  C   UNL     1      21.764  -3.344  -6.729  0.00  0.00    +0.277 C 
ENDBRANCH  16  19
ENDBRANCH  10  13
ENDBRANCH   1   2
BRANCH   1  21
ATOM     21  C   UNL     1       8.969  -0.497  -3.821  0.00  0.00    +0.324 C 
BRANCH  21  23
ATOM     22  N   UNL     1       6.793   0.160  -2.844  0.00  0.00    -0.312 N 
ATOM     23  C   UNL     1       7.532  -0.061  -3.950  0.00  0.00    +0.251 C 
ATOM     24  O   UNL     1       7.040   0.090  -5.048  0.00  0.00    -0.272 OA
ATOM     25  H   UNL     1       7.239   0.023  -1.848  0.00  0.00    +0.149 HD
BRANCH  22  26
ATOM     26  C   UNL     1       5.396   0.584  -2.969  0.00  0.00    +0.115 C 
BRANCH  26  27
ATOM     27  C   UNL     1       4.792   0.764  -1.575  0.00  0.00    +0.088 C 
BRANCH  27  28
ATOM     28  S   UNL     1       3.062   1.288  -1.730  0.00  0.00    -0.151 S 
BRANCH  28  29
ATOM     29  C   UNL     1       2.499   1.455  -0.013  0.00  0.00    +0.143 C 
BRANCH  29  33
ATOM     30  C   UNL     1      -0.722   3.175   0.026  0.00  0.00    +0.089 A 
ATOM     31  C   UNL     1      -1.159   1.903   0.017  0.00  0.00    +0.043 A 
ATOM     32  C   UNL     1      -0.013   1.076   0.008  0.00  0.00    +0.046 A 
ATOM     33  C   UNL     1       1.057   1.892   0.002  0.00  0.00    +0.115 A 
ATOM     34  O   UNL     1       0.621   3.162   0.013  0.00  0.00    -0.466 OA
BRANCH  30  35
ATOM     35  C   UNL     1      -1.592   4.406   0.042  0.00  0.00    -0.004 C 
BRANCH  35  37
ATOM     36  C   UNL     1      -0.629   5.232   2.104  0.00  0.00    -0.096 C 
ATOM     37  N   UNL     1      -1.861   4.798   1.432  0.00  0.00    +0.381 N 
ATOM     38  C   UNL     1      -2.891   5.843   1.494  0.00  0.00    -0.096 C 
ATOM     39  H   UNL     1      -2.243   3.914   1.964  0.00  0.00    -0.082 HD
ENDBRANCH  35  37
ENDBRANCH  30  35
ENDBRANCH  29  33
ENDBRANCH  28  29
ENDBRANCH  27  28
ENDBRANCH  26  27
ENDBRANCH  22  26
ENDBRANCH  21  23
ENDBRANCH   1  21
TORSDOF 12
