REMARK  Name = ZINC21704645
REMARK  11 active torsions:
REMARK  status: ('A' for Active; 'I' for Inactive)
REMARK    1  A    between atoms: C_1  and  C_2
REMARK    2  A    between atoms: C_2  and  C_3
REMARK    3  A    between atoms: C_3  and  C_4
REMARK    4  A    between atoms: C_4  and  C_26
REMARK    5  A    between atoms: N_7  and  C_11
REMARK    6  A    between atoms: C_11  and  C_12
REMARK    7  A    between atoms: N_14  and  C_15
REMARK    8  A    between atoms: C_20  and  C_25
REMARK    9  A    between atoms: C_22  and  C_24
REMARK   10  A    between atoms: C_26  and  C_27
REMARK   11  A    between atoms: C_27  and  C_28
REMARK                            x       y       z     vdW  Elec       q    Type
REMARK                         _______ _______ _______ _____ _____    ______ ____
ROOT
ATOM      1  C   UNL     1      -2.880   1.543   2.537  0.00  0.00    +0.113 C 
ATOM      2  C   UNL     1      -2.913   3.058   2.572  0.00  0.00    +0.247 C 
ATOM      3  O   UNL     1      -3.440   3.798   1.770  0.00  0.00    -0.273 OA
ATOM      4  N   UNL     1      -2.233   3.411   3.681  0.00  0.00    -0.215 N 
ATOM      5  C   UNL     1      -1.781   2.341   4.344  0.00  0.00    +0.310 C 
ATOM      6  O   UNL     1      -1.140   2.405   5.375  0.00  0.00    -0.252 OA
ATOM      7  N   UNL     1      -2.114   1.185   3.743  0.00  0.00    -0.285 N 
ATOM      8  H   UNL     1      -1.927   0.127   3.981  0.00  0.00    +0.151 HD
ENDROOT
BRANCH   1   9
ATOM      9  C   UNL     1      -2.164   1.050   1.278  0.00  0.00    +0.035 C 
BRANCH   9  11
ATOM     10  C   UNL     1      -0.013   1.086   0.008  0.00  0.00    +0.004 C 
ATOM     11  C   UNL     1      -0.729   1.579   1.267  0.00  0.00    -0.001 C 
ENDBRANCH   9  11
ENDBRANCH   1   9
BRANCH   4  12
ATOM     12  C   UNL     1      -2.016   4.796   4.108  0.00  0.00    +0.213 C 
BRANCH  12  13
ATOM     13  C   UNL     1      -0.737   5.313   3.502  0.00  0.00    +0.231 C 
ATOM     14  O   UNL     1      -0.072   4.596   2.785  0.00  0.00    -0.274 OA
ATOM     15  N   UNL     1      -0.332   6.573   3.757  0.00  0.00    -0.311 N 
ATOM     16  H   UNL     1      -0.935   7.223   4.408  0.00  0.00    +0.149 HD
BRANCH  15  17
ATOM     17  C   UNL     1       0.911   7.076   3.168  0.00  0.00    +0.076 C 
ATOM     18  C   UNL     1       0.630   7.608   1.762  0.00  0.00    +0.022 C 
ATOM     19  C   UNL     1       1.929   8.134   1.147  0.00  0.00    +0.002 C 
ATOM     20  C   UNL     1       2.485   9.262   2.017  0.00  0.00    +0.003 C 
ATOM     21  C   UNL     1       2.766   8.731   3.424  0.00  0.00    -0.009 C 
ATOM     22  C   UNL     1       1.468   8.205   4.039  0.00  0.00    +0.009 C 
ATOM     23  C   UNL     1       1.748   7.673   5.446  0.00  0.00    +0.009 C 
ATOM     24  C   UNL     1       3.322   9.859   4.294  0.00  0.00    +0.008 C 
ENDBRANCH  15  17
ENDBRANCH  12  13
ENDBRANCH   4  12
BRANCH   1  25
ATOM     25  C   UNL     1      -4.297   0.969   2.608  0.00  0.00    +0.035 C 
BRANCH  25  26
ATOM     26  C   UNL     1      -4.990   1.477   3.874  0.00  0.00    -0.001 C 
ATOM     27  C   UNL     1      -6.406   0.903   3.945  0.00  0.00    +0.004 C 
ENDBRANCH  25  26
ENDBRANCH   1  25
TORSDOF 7
