REMARK  Name = ZINC21253886
REMARK  10 active torsions:
REMARK  status: ('A' for Active; 'I' for Inactive)
REMARK    1  A    between atoms: C_1  and  C_2
REMARK    2  A    between atoms: C_2  and  C_3
REMARK    3  A    between atoms: C_3  and  O_4
REMARK    4  A    between atoms: O_4  and  C_5
REMARK    5  A    between atoms: C_6  and  C_13
REMARK    6  A    between atoms: C_10  and  O_11
REMARK    7  A    between atoms: O_11  and  C_12
REMARK    8  A    between atoms: C_18  and  C_23
REMARK    9  A    between atoms: C_26  and  C_29
REMARK   10  A    between atoms: C_29  and  C_30
REMARK                            x       y       z     vdW  Elec       q    Type
REMARK                         _______ _______ _______ _____ _____    ______ ____
ROOT
ATOM      1  C   UNL     1      -3.086  -4.208  -0.008  0.00  0.00    +0.140 C 
ATOM      2  C   UNL     1      -3.091  -4.742   1.404  0.00  0.00    +0.037 C 
ATOM      3  C   UNL     1      -4.176  -5.133   2.096  0.00  0.00    +0.017 C 
ATOM      4  C   UNL     1      -4.038  -5.665   3.512  0.00  0.00    +0.059 C 
ATOM      5  C   UNL     1      -2.864  -4.984   4.213  0.00  0.00    +0.032 C 
ATOM      6  C   UNL     1      -1.597  -5.286   3.402  0.00  0.00    +0.088 C 
ATOM      7  C   UNL     1      -1.808  -4.808   1.996  0.00  0.00    +0.163 C 
ATOM      8  O   UNL     1      -0.842  -4.466   1.343  0.00  0.00    -0.292 OA
ATOM      9  N   UNL     1      -5.445  -5.111   1.617  0.00  0.00    -0.316 N 
ATOM     10  C   UNL     1      -6.023  -4.043   0.940  0.00  0.00    +0.052 A 
ATOM     11  C   UNL     1      -7.090  -3.328   1.456  0.00  0.00    +0.025 A 
ATOM     12  C   UNL     1      -7.648  -2.307   0.706  0.00  0.00    +0.002 A 
ATOM     13  C   UNL     1      -7.146  -2.006  -0.548  0.00  0.00    +0.002 A 
ATOM     14  C   UNL     1      -6.067  -2.708  -1.057  0.00  0.00    +0.025 A 
ATOM     15  C   UNL     1      -5.492  -3.716  -0.299  0.00  0.00    +0.049 A 
ATOM     16  N   UNL     1      -4.336  -4.373  -0.719  0.00  0.00    -0.331 N 
ATOM     17  H   UNL     1      -6.100  -5.984   1.753  0.00  0.00    +0.152 HD
ATOM     18  H   UNL     1      -4.383  -5.025  -1.604  0.00  0.00    +0.147 HD
ENDROOT
BRANCH   1  20
ATOM     19  C   UNL     1      -2.343  -2.085  -1.112  0.00  0.00    +0.167 A 
ATOM     20  C   UNL     1      -2.754  -2.739   0.038  0.00  0.00    +0.023 A 
ATOM     21  C   UNL     1      -2.865  -2.042   1.227  0.00  0.00    +0.009 A 
ATOM     22  C   UNL     1      -2.561  -0.694   1.273  0.00  0.00    +0.004 A 
ATOM     23  C   UNL     1      -2.145  -0.037   0.131  0.00  0.00    +0.049 A 
ATOM     24  C   UNL     1      -2.031  -0.729  -1.065  0.00  0.00    +0.162 A 
BRANCH  24  25
ATOM     25  O   UNL     1      -1.622  -0.084  -2.190  0.00  0.00    -0.491 OA
ATOM     26  C   UNL     1      -1.325   1.308  -2.067  0.00  0.00    +0.277 C 
ENDBRANCH  24  25
BRANCH  19  27
ATOM     27  O   UNL     1      -2.238  -2.767  -2.284  0.00  0.00    -0.488 OA
BRANCH  27  28
ATOM     28  C   UNL     1      -0.949  -3.280  -2.623  0.00  0.00    +0.229 C 
BRANCH  28  30
ATOM     29  C   UNL     1       0.365  -4.515  -4.353  0.00  0.00    +0.007 C 
ATOM     30  C   UNL     1      -1.016  -3.966  -3.989  0.00  0.00    +0.038 C 
ENDBRANCH  28  30
ENDBRANCH  27  28
ENDBRANCH  19  27
ENDBRANCH   1  20
BRANCH   5  31
ATOM     31  C   UNL     1      -2.718  -5.530   5.611  0.00  0.00    -0.043 A 
ATOM     32  C   UNL     1      -2.487  -6.879   5.806  0.00  0.00    +0.004 A 
ATOM     33  C   UNL     1      -2.349  -7.378   7.087  0.00  0.00    +0.004 A 
ATOM     34  C   UNL     1      -2.451  -6.530   8.174  0.00  0.00    -0.048 A 
ATOM     35  C   UNL     1      -2.687  -5.182   7.979  0.00  0.00    +0.004 A 
ATOM     36  C   UNL     1      -2.821  -4.682   6.698  0.00  0.00    +0.004 A 
BRANCH  34  37
ATOM     37  C   UNL     1      -2.305  -7.076   9.572  0.00  0.00    +0.032 C 
ATOM     38  C   UNL     1      -3.676  -7.501  10.099  0.00  0.00    +0.009 C 
ENDBRANCH  34  37
ENDBRANCH   5  31
TORSDOF 7
