REMARK  Name = ZINC04993504
REMARK  9 active torsions:
REMARK  status: ('A' for Active; 'I' for Inactive)
REMARK    1  A    between atoms: C_1  and  C_2
REMARK    2  A    between atoms: C_2  and  O_3
REMARK    3  A    between atoms: O_3  and  C_4
REMARK    4  A    between atoms: C_4  and  C_6
REMARK    5  A    between atoms: C_9  and  C_30
REMARK    6  A    between atoms: C_10  and  N_12
REMARK    7  A    between atoms: C_13  and  C_15
REMARK    8  A    between atoms: C_20  and  C_27
REMARK    9  A    between atoms: C_23  and  C_26
REMARK                            x       y       z     vdW  Elec       q    Type
REMARK                         _______ _______ _______ _____ _____    ______ ____
ROOT
ATOM      1  N   UNL     1       2.305  -5.618  -3.998  0.00  0.00    -0.279 N 
ATOM      2  C   UNL     1       1.879  -6.457  -3.032  0.00  0.00    +0.287 C 
ATOM      3  O   UNL     1       1.319  -6.016  -2.047  0.00  0.00    -0.266 OA
ATOM      4  H   UNL     1       2.679  -5.974  -4.819  0.00  0.00    +0.155 HD
ENDROOT
BRANCH   2   5
ATOM      5  C   UNL     1       2.092  -7.913  -3.171  0.00  0.00    +0.238 A 
ATOM      6  N   UNL     1       2.702  -8.520  -4.207  0.00  0.00    -0.189 NA
ATOM      7  C   UNL     1       2.718  -9.807  -4.009  0.00  0.00    +0.215 A 
ATOM      8  N   UNL     1       2.112 -10.062  -2.820  0.00  0.00    -0.224 N 
ATOM      9  N   UNL     1       1.722  -8.829  -2.297  0.00  0.00    -0.143 NA
ATOM     10  C   UNL     1       1.943 -11.400  -2.252  0.00  0.00    +0.178 C 
ATOM     11  C   UNL     1       2.933 -12.354  -2.932  0.00  0.00    +0.054 C 
ATOM     12  C   UNL     1       2.844 -12.195  -4.454  0.00  0.00    +0.072 C 
ATOM     13  N   UNL     1       3.236 -10.818  -4.808  0.00  0.00    -0.311 N 
ATOM     14  C   UNL     1       3.787 -13.192  -5.131  0.00  0.00    +0.028 C 
ATOM     15  H   UNL     1       3.823 -10.629  -5.557  0.00  0.00    +0.149 HD
BRANCH  10  16
ATOM     16  C   UNL     1       2.219 -11.357  -0.748  0.00  0.00    +0.365 C 
ATOM     17  F   UNL     1       1.322 -10.475  -0.135  0.00  0.00    -0.207 F 
ATOM     18  F   UNL     1       2.056 -12.637  -0.208  0.00  0.00    -0.207 F 
ENDBRANCH  10  16
ENDBRANCH   2   5
BRANCH   1  23
ATOM     19  C   UNL     1       2.075  -2.325  -2.358  0.00  0.00    +0.061 A 
ATOM     20  C   UNL     1       2.013  -1.486  -3.473  0.00  0.00    +0.015 A 
ATOM     21  C   UNL     1       2.049  -2.023  -4.744  0.00  0.00    +0.006 A 
ATOM     22  C   UNL     1       2.146  -3.391  -4.918  0.00  0.00    -0.029 A 
ATOM     23  C   UNL     1       2.208  -4.235  -3.815  0.00  0.00    +0.037 A 
ATOM     24  C   UNL     1       2.179  -3.705  -2.535  0.00  0.00    +0.038 A 
ATOM     25  C   UNL     1       2.184  -3.970  -6.309  0.00  0.00    +0.045 C 
BRANCH  19  26
ATOM     26  C   UNL     1       2.037  -1.752  -0.997  0.00  0.00    +0.339 C 
ATOM     27  O   UNL     1       2.095  -2.483  -0.029  0.00  0.00    -0.245 OA
BRANCH  26  28
ATOM     28  O   UNL     1       1.936  -0.419  -0.829  0.00  0.00    -0.461 OA
BRANCH  28  30
ATOM     29  C   UNL     1       1.789   1.591   0.504  0.00  0.00    +0.048 C 
ATOM     30  C   UNL     1       1.905   0.065   0.515  0.00  0.00    +0.229 C 
ENDBRANCH  28  30
ENDBRANCH  26  28
ENDBRANCH  19  26
ENDBRANCH   1  23
TORSDOF 6
