REMARK  Name = ZINC24351615
REMARK  4 active torsions:
REMARK  status: ('A' for Active; 'I' for Inactive)
REMARK    1  A    between atoms: C_7  and  C_13
REMARK    2  A    between atoms: N_15  and  N_16
REMARK    3  A    between atoms: C_17  and  C_19
REMARK    4  A    between atoms: C_22  and  N_25
REMARK                            x       y       z     vdW  Elec       q    Type
REMARK                         _______ _______ _______ _____ _____    ______ ____
ROOT
ATOM      1  N   UNL     1       6.151  -2.081   0.037  0.00  0.00    -0.230 N 
ATOM      2  C   UNL     1       6.106  -0.737  -0.058  0.00  0.00    +0.260 C 
ATOM      3  O   UNL     1       7.136  -0.100  -0.156  0.00  0.00    -0.269 OA
ATOM      4  H   UNL     1       5.218  -2.657   0.126  0.00  0.00    +0.173 HD
ENDROOT
BRANCH   2   5
ATOM      5  C   UNL     1       4.805  -0.039  -0.042  0.00  0.00    +0.038 A 
ATOM      6  C   UNL     1       4.756   1.354  -0.140  0.00  0.00    +0.015 A 
ATOM      7  C   UNL     1       3.541   2.002  -0.126  0.00  0.00    +0.027 A 
ATOM      8  C   UNL     1       2.363   1.271  -0.013  0.00  0.00    +0.051 A 
ATOM      9  C   UNL     1       2.408  -0.115   0.090  0.00  0.00    +0.027 A 
ATOM     10  C   UNL     1       3.619  -0.770   0.070  0.00  0.00    +0.015 A 
BRANCH   8  11
ATOM     11  N   UNL     1       1.132   1.932   0.002  0.00  0.00    -0.267 N 
ATOM     12  C   UNL     1       0.805   2.725   1.058  0.00  0.00    +0.207 A 
ATOM     13  N   UNL     1      -0.318   3.370   1.145  0.00  0.00    -0.237 NA
ATOM     14  C   UNL     1      -1.258   3.296   0.169  0.00  0.00    +0.078 A 
ATOM     15  C   UNL     1      -2.466   3.990   0.262  0.00  0.00    +0.028 A 
ATOM     16  C   UNL     1      -3.386   3.898  -0.758  0.00  0.00    +0.002 A 
ATOM     17  C   UNL     1      -3.134   3.110  -1.874  0.00  0.00    +0.001 A 
ATOM     18  C   UNL     1      -1.952   2.412  -1.986  0.00  0.00    +0.015 A 
ATOM     19  C   UNL     1      -1.003   2.499  -0.969  0.00  0.00    +0.065 A 
ATOM     20  C   UNL     1       0.276   1.777  -1.034  0.00  0.00    +0.266 A 
ATOM     21  O   UNL     1       0.555   1.071  -1.986  0.00  0.00    -0.267 OA
ENDBRANCH   8  11
ENDBRANCH   2   5
BRANCH   1  24
ATOM     22  C   UNL     1       7.430  -4.087   0.116  0.00  0.00    +0.281 C 
ATOM     23  O   UNL     1       6.399  -4.724   0.214  0.00  0.00    -0.267 OA
ATOM     24  N   UNL     1       7.385  -2.743   0.022  0.00  0.00    -0.229 N 
ATOM     25  H   UNL     1       8.318  -2.166  -0.067  0.00  0.00    +0.173 HD
BRANCH  22  32
ATOM     26  C   UNL     1       7.791  -8.414   0.409  0.00  0.00    +0.001 A 
ATOM     27  C   UNL     1       9.047  -9.006   0.388  0.00  0.00    +0.001 A 
ATOM     28  C   UNL     1      10.186  -8.238   0.275  0.00  0.00    +0.014 A 
ATOM     29  C   UNL     1      10.069  -6.854   0.181  0.00  0.00    +0.050 A 
ATOM     30  C   UNL     1       8.790  -6.251   0.209  0.00  0.00    +0.020 A 
ATOM     31  C   UNL     1       7.654  -7.045   0.319  0.00  0.00    +0.011 A 
ATOM     32  C   UNL     1       8.731  -4.785   0.101  0.00  0.00    +0.155 A 
ATOM     33  N   UNL     1       9.847  -4.105  -0.005  0.00  0.00    -0.166 NA
ATOM     34  N   UNL     1      11.012  -4.633  -0.026  0.00  0.00    -0.242 N 
ATOM     35  H   UNL     1      11.904  -3.995  -0.117  0.00  0.00    +0.192 HD
ATOM     36  C   UNL     1      11.230  -5.962   0.058  0.00  0.00    +0.272 A 
ATOM     37  O   UNL     1      12.361  -6.410   0.033  0.00  0.00    -0.266 OA
ENDBRANCH  22  32
ENDBRANCH   1  24
TORSDOF 4
