REMARK  Name = ZINC25021067
REMARK  10 active torsions:
REMARK  status: ('A' for Active; 'I' for Inactive)
REMARK    1  A    between atoms: C_1  and  C_2
REMARK    2  A    between atoms: C_2  and  C_4
REMARK    3  A    between atoms: C_2  and  S_20
REMARK    4  A    between atoms: N_6  and  C_7
REMARK    5  A    between atoms: C_10  and  N_17
REMARK    6  A    between atoms: C_12  and  C_13
REMARK    7  A    between atoms: S_20  and  C_21
REMARK    8  A    between atoms: N_31  and  C_32
REMARK    9  A    between atoms: C_32  and  C_33
REMARK   10  A    between atoms: C_32  and  C_34
REMARK                            x       y       z     vdW  Elec       q    Type
REMARK                         _______ _______ _______ _____ _____    ______ ____
ROOT
ATOM      1  C   UNL     1      -0.015   1.540   0.028  0.00  0.00    +0.029 C 
ATOM      2  C   UNL     1       0.003   0.010   0.007  0.00  0.00    +0.137 C 
ENDROOT
BRANCH   2   3
ATOM      3  C   UNL     1       0.731  -0.500   1.224  0.00  0.00    +0.230 C 
ATOM      4  O   UNL     1       0.105  -0.894   2.185  0.00  0.00    -0.274 OA
ATOM      5  N   UNL     1       2.079  -0.519   1.244  0.00  0.00    -0.284 N 
ATOM      6  H   UNL     1       2.579  -0.280   0.448  0.00  0.00    +0.155 HD
BRANCH   5   7
ATOM      7  C   UNL     1       2.756  -0.883   2.413  0.00  0.00    +0.045 A 
ATOM      8  C   UNL     1       2.143  -0.727   3.650  0.00  0.00    +0.026 A 
ATOM      9  C   UNL     1       2.814  -1.087   4.801  0.00  0.00    +0.034 A 
ATOM     10  C   UNL     1       4.095  -1.602   4.725  0.00  0.00    +0.127 A 
ATOM     11  C   UNL     1       4.708  -1.758   3.495  0.00  0.00    +0.047 A 
ATOM     12  C   UNL     1       4.040  -1.405   2.339  0.00  0.00    +0.078 A 
BRANCH  12  13
ATOM     13  C   UNL     1       4.707  -1.581   0.999  0.00  0.00    +0.419 C 
ATOM     14  F   UNL     1       5.985  -2.120   1.181  0.00  0.00    -0.166 F 
ATOM     15  F   UNL     1       3.944  -2.448   0.209  0.00  0.00    -0.166 F 
ATOM     16  F   UNL     1       4.810  -0.340   0.362  0.00  0.00    -0.166 F 
ENDBRANCH  12  13
BRANCH  10  17
ATOM     17  N   UNL     1       4.812  -1.987   5.961  0.00  0.00    +0.056 N 
ATOM     18  O   UNL     1       4.277  -1.851   7.037  0.00  0.00    -0.126 OA
ATOM     19  O   UNL     1       5.932  -2.437   5.896  0.00  0.00    -0.126 OA
ENDBRANCH  10  17
ENDBRANCH   5   7
ENDBRANCH   2   3
BRANCH   2  20
ATOM     20  S   UNL     1      -1.701  -0.614   0.017  0.00  0.00    -0.075 S 
BRANCH  20  21
ATOM     21  C   UNL     1      -2.365  -0.062  -1.519  0.00  0.00    +0.173 A 
ATOM     22  N   UNL     1      -1.593   0.628  -2.322  0.00  0.00    -0.223 NA
ATOM     23  C   UNL     1      -2.036   1.081  -3.512  0.00  0.00    +0.079 A 
ATOM     24  C   UNL     1      -1.212   1.817  -4.369  0.00  0.00    +0.028 A 
ATOM     25  C   UNL     1      -1.702   2.256  -5.566  0.00  0.00    +0.002 A 
ATOM     26  C   UNL     1      -3.010   1.984  -5.946  0.00  0.00    +0.001 A 
ATOM     27  C   UNL     1      -3.840   1.268  -5.130  0.00  0.00    +0.015 A 
ATOM     28  C   UNL     1      -3.366   0.806  -3.903  0.00  0.00    +0.065 A 
ATOM     29  C   UNL     1      -4.213   0.031  -2.985  0.00  0.00    +0.263 A 
ATOM     30  O   UNL     1      -5.366  -0.238  -3.266  0.00  0.00    -0.267 OA
ATOM     31  N   UNL     1      -3.660  -0.377  -1.819  0.00  0.00    -0.285 N 
BRANCH  31  32
ATOM     32  C   UNL     1      -4.457  -1.158  -0.870  0.00  0.00    +0.087 C 
ATOM     33  C   UNL     1      -5.682  -0.346  -0.444  0.00  0.00    +0.031 C 
ATOM     34  C   UNL     1      -4.913  -2.458  -1.536  0.00  0.00    +0.031 C 
ENDBRANCH  31  32
ENDBRANCH  20  21
ENDBRANCH   2  20
TORSDOF 7
