REMARK  Name = ZINC20990402
REMARK  5 active torsions:
REMARK  status: ('A' for Active; 'I' for Inactive)
REMARK    1  A    between atoms: C_1  and  C_2
REMARK    2  A    between atoms: C_2  and  C_3
REMARK    3  A    between atoms: C_8  and  S_9
REMARK    4  A    between atoms: S_9  and  N_12
REMARK    5  A    between atoms: N_12  and  C_13
REMARK                            x       y       z     vdW  Elec       q    Type
REMARK                         _______ _______ _______ _____ _____    ______ ____
ROOT
ATOM      1  C   UNL     1      -0.962   0.956   2.805  0.00  0.00    -0.020 A 
ATOM      2  C   UNL     1      -0.458   1.313   4.036  0.00  0.00    +0.016 A 
ATOM      3  C   UNL     1      -1.247   2.038   4.925  0.00  0.00    +0.011 A 
ATOM      4  C   UNL     1      -2.556   2.404   4.562  0.00  0.00    +0.049 A 
ATOM      5  C   UNL     1      -3.045   2.038   3.313  0.00  0.00    +0.055 A 
ATOM      6  C   UNL     1      -2.253   1.316   2.447  0.00  0.00    +0.114 A 
ATOM      7  N   UNL     1      -3.107   3.110   5.617  0.00  0.00    -0.357 N 
ATOM      8  H   UNL     1      -4.136   3.491   5.546  0.00  0.00    +0.166 HD
ATOM      9  C   UNL     1      -2.229   3.218   6.622  0.00  0.00    +0.028 A 
ATOM     10  C   UNL     1      -1.051   2.575   6.274  0.00  0.00    +0.046 A 
ATOM     11  C   UNL     1       0.069   2.510   7.137  0.00  0.00    +0.165 C 
ATOM     12  O   UNL     1       1.100   1.970   6.791  0.00  0.00    -0.292 OA
ATOM     13  C   UNL     1      -0.065   3.138   8.508  0.00  0.00    +0.080 C 
ATOM     14  C   UNL     1      -1.005   4.341   8.442  0.00  0.00    +0.014 C 
ATOM     15  C   UNL     1      -2.394   3.911   7.955  0.00  0.00    +0.054 C 
ENDROOT
BRANCH   6  16
ATOM     16  S   UNL     1      -2.883   0.853   0.868  0.00  0.00    +0.073 S 
ATOM     17  O   UNL     1      -1.903   1.234  -0.088  0.00  0.00    -0.150 OA
ATOM     18  O   UNL     1      -4.223   1.320   0.812  0.00  0.00    -0.150 OA
BRANCH  16  19
ATOM     19  N   UNL     1      -2.956  -0.801   0.836  0.00  0.00    -0.213 N 
ATOM     20  H   UNL     1      -2.381  -1.363   0.086  0.00  0.00    +0.174 HD
BRANCH  19  21
ATOM     21  C   UNL     1      -3.750  -1.484   1.764  0.00  0.00    +0.086 A 
ATOM     22  C   UNL     1      -4.957  -0.938   2.181  0.00  0.00    +0.065 A 
ATOM     23  C   UNL     1      -5.743  -1.618   3.094  0.00  0.00    +0.125 A 
ATOM     24  C   UNL     1      -5.327  -2.842   3.591  0.00  0.00    +0.041 A 
ATOM     25  C   UNL     1      -4.126  -3.388   3.177  0.00  0.00    +0.043 A 
ATOM     26  C   UNL     1      -3.336  -2.713   2.265  0.00  0.00    +0.146 A 
ATOM     27  F   UNL     1      -2.163  -3.247   1.861  0.00  0.00    -0.204 F 
ATOM     28  F   UNL     1      -6.917  -1.088   3.500  0.00  0.00    -0.205 F 
ENDBRANCH  19  21
ENDBRANCH  16  19
ENDBRANCH   6  16
BRANCH   1  30
ATOM     29  C   UNL     1       0.755   1.134   1.025  0.00  0.00    +0.009 C 
ATOM     30  C   UNL     1      -0.108   0.172   1.843  0.00  0.00    +0.034 C 
ENDBRANCH   1  30
TORSDOF 4
