REMARK  Name = ZINC13756768
REMARK  2 active torsions:
REMARK  status: ('A' for Active; 'I' for Inactive)
REMARK    1  A    between atoms: C_4  and  S_7
REMARK    2  A    between atoms: S_7  and  N_10
REMARK                            x       y       z     vdW  Elec       q    Type
REMARK                         _______ _______ _______ _____ _____    ______ ____
ROOT
ATOM      1  N   UNL     1       4.378  -1.079   1.536  0.00  0.00    -0.106 NA
ATOM      2  C   UNL     1       5.489  -1.700   1.810  0.00  0.00    +0.186 C 
ATOM      3  N   UNL     1       6.019  -2.002   3.048  0.00  0.00    -0.259 N 
ATOM      4  C   UNL     1       7.170  -2.644   3.151  0.00  0.00    +0.257 C 
ATOM      5  O   UNL     1       7.653  -2.919   4.232  0.00  0.00    -0.269 OA
ATOM      6  C   UNL     1       7.844  -3.015   1.878  0.00  0.00    +0.090 C 
ATOM      7  C   UNL     1       9.038  -3.681   1.680  0.00  0.00    +0.065 C 
ATOM      8  C   UNL     1       9.674  -4.023   0.390  0.00  0.00    +0.011 A 
ATOM      9  C   UNL     1       9.314  -3.808  -0.937  0.00  0.00    +0.025 A 
ATOM     10  C   UNL     1      10.136  -4.258  -1.951  0.00  0.00    +0.019 A 
ATOM     11  C   UNL     1      11.315  -4.920  -1.647  0.00  0.00    +0.017 A 
ATOM     12  C   UNL     1      11.681  -5.138  -0.333  0.00  0.00    +0.025 A 
ATOM     13  C   UNL     1      10.866  -4.693   0.701  0.00  0.00    +0.042 A 
ATOM     14  N   UNL     1      10.997  -4.780   2.083  0.00  0.00    -0.281 N 
ATOM     15  C   UNL     1       9.959  -4.200   2.710  0.00  0.00    +0.250 C 
ATOM     16  O   UNL     1       9.805  -4.119   3.915  0.00  0.00    -0.270 OA
ATOM     17 BR   UNL     1       9.653  -3.971  -3.756  0.00  0.00    -0.050 Br
ATOM     18  S   UNL     1       6.690  -2.373   0.674  0.00  0.00    -0.047 S 
ATOM     19  H   UNL     1       5.542  -1.739   3.851  0.00  0.00    +0.157 HD
ATOM     20  H   UNL     1      11.743  -5.202   2.536  0.00  0.00    +0.155 HD
ENDROOT
BRANCH   1  21
ATOM     21  S   UNL     1       3.934  -0.832  -0.041  0.00  0.00    +0.101 S 
ATOM     22  O   UNL     1       3.674  -2.114  -0.595  0.00  0.00    -0.146 OA
ATOM     23  O   UNL     1       4.890   0.060  -0.597  0.00  0.00    -0.146 OA
BRANCH  21  27
ATOM     24  C   UNL     1      -0.017   1.378   0.010  0.00  0.00    +0.000 A 
ATOM     25  C   UNL     1       1.171   2.086   0.002  0.00  0.00    +0.002 A 
ATOM     26  C   UNL     1       2.377   1.411  -0.013  0.00  0.00    +0.029 A 
ATOM     27  C   UNL     1       2.396   0.029  -0.020  0.00  0.00    +0.113 A 
ATOM     28  C   UNL     1       1.208  -0.679  -0.012  0.00  0.00    +0.029 A 
ATOM     29  C   UNL     1       0.002  -0.004   0.002  0.00  0.00    +0.002 A 
ENDBRANCH  21  27
ENDBRANCH   1  21
TORSDOF 2
