REMARK  Name = ZINC06149324
REMARK  9 active torsions:
REMARK  status: ('A' for Active; 'I' for Inactive)
REMARK    1  A    between atoms: C_1  and  C_2
REMARK    2  A    between atoms: C_2  and  C_3
REMARK    3  A    between atoms: C_3  and  C_4
REMARK    4  A    between atoms: C_3  and  C_5
REMARK    5  A    between atoms: C_3  and  N_6
REMARK    6  A    between atoms: C_7  and  C_11
REMARK    7  A    between atoms: C_11  and  C_13
REMARK    8  A    between atoms: C_11  and  N_70
REMARK    9  A    between atoms: C_19  and  C_25
REMARK                            x       y       z     vdW  Elec       q    Type
REMARK                         _______ _______ _______ _____ _____    ______ ____
ROOT
ATOM      1  C   UNL     1      -0.050  -2.989   4.688  0.00  0.00    +0.039 C 
ENDROOT
BRANCH   1  16
ATOM      2  C   UNL     1       2.332  -2.839   4.277  0.00  0.00    -0.058 C 
ATOM      3  C   UNL     1       3.670  -2.438   4.902  0.00  0.00    +0.088 C 
ATOM      4  N   UNL     1       3.928  -3.275   6.081  0.00  0.00    -0.313 N 
ATOM      5  C   UNL     1       2.859  -3.121   7.077  0.00  0.00    +0.088 C 
ATOM      6  C   UNL     1       1.521  -3.523   6.452  0.00  0.00    -0.058 C 
ATOM      7  C   UNL     1       5.162  -2.990   6.630  0.00  0.00    +0.162 A 
ATOM      8  N   UNL     1       6.344  -3.015   6.059  0.00  0.00    -0.225 NA
ATOM      9  C   UNL     1       7.479  -2.708   6.726  0.00  0.00    +0.080 A 
ATOM     10  C   UNL     1       8.804  -2.696   6.233  0.00  0.00    +0.029 A 
ATOM     11  C   UNL     1       9.851  -2.356   7.050  0.00  0.00    +0.002 A 
ATOM     12  C   UNL     1       9.652  -2.014   8.379  0.00  0.00    +0.001 A 
ATOM     13  C   UNL     1       8.369  -2.015   8.894  0.00  0.00    +0.017 A 
ATOM     14  C   UNL     1       7.314  -2.354   8.084  0.00  0.00    +0.041 A 
ATOM     15  S   UNL     1       5.555  -2.482   8.298  0.00  0.00    -0.052 S 
ATOM     16  N   UNL     1       1.263  -2.658   5.282  0.00  0.00    +0.391 N 
ATOM     17  H   UNL     1       1.254  -1.678   5.586  0.00  0.00    -0.080 HD
ENDBRANCH   1  16
BRANCH   1  18
ATOM     18  C   UNL     1      -0.319  -2.049   3.542  0.00  0.00    +0.011 A 
ATOM     19  C   UNL     1      -0.621  -2.546   2.317  0.00  0.00    +0.017 A 
ATOM     20  C   UNL     1      -0.877  -1.606   1.224  0.00  0.00    -0.001 A 
ATOM     21  C   UNL     1      -1.194  -2.059  -0.061  0.00  0.00    +0.010 A 
ATOM     22  C   UNL     1      -1.427  -1.156  -1.059  0.00  0.00    +0.001 A 
ATOM     23  C   UNL     1      -1.359   0.208  -0.808  0.00  0.00    +0.005 A 
ATOM     24  C   UNL     1      -1.043   0.677   0.449  0.00  0.00    -0.026 A 
ATOM     25  C   UNL     1      -0.801  -0.224   1.481  0.00  0.00    +0.052 A 
ATOM     26  N   UNL     1      -0.489   0.217   2.749  0.00  0.00    -0.322 N 
ATOM     27  H   UNL     1      -0.435   1.199   2.930  0.00  0.00    +0.169 HD
ATOM     28  C   UNL     1      -0.255  -0.654   3.747  0.00  0.00    +0.251 A 
ATOM     29  O   UNL     1       0.019  -0.228   4.855  0.00  0.00    -0.268 OA
ATOM     30  C   UNL     1      -0.967   2.160   0.706  0.00  0.00    +0.046 C 
ENDBRANCH   1  18
BRANCH   1  32
ATOM     31  N   UNL     1      -2.076  -3.710   6.059  0.00  0.00    -0.225 N 
ATOM     32  C   UNL     1      -1.118  -2.821   5.737  0.00  0.00    +0.143 A 
ATOM     33  N   UNL     1      -1.292  -1.782   6.518  0.00  0.00    -0.115 NA
ATOM     34  N   UNL     1      -2.308  -2.018   7.274  0.00  0.00    -0.023 NA
ATOM     35  N   UNL     1      -2.783  -3.183   7.001  0.00  0.00    -0.043 NA
BRANCH  31  36
ATOM     36  C   UNL     1      -2.279  -5.028   5.452  0.00  0.00    +0.061 C 
ATOM     37  C   UNL     1      -2.474  -4.870   3.942  0.00  0.00    +0.036 C 
ATOM     38  C   UNL     1      -1.054  -5.906   5.718  0.00  0.00    +0.036 C 
BRANCH  36  40
ATOM     39  C   UNL     1      -3.731  -7.061   5.427  0.00  0.00    +0.006 C 
ATOM     40  C   UNL     1      -3.519  -5.685   6.061  0.00  0.00    +0.026 C 
ENDBRANCH  36  40
ENDBRANCH  31  36
ENDBRANCH   1  32
TORSDOF 5
