REMARK  Name = ZINC59171087
REMARK  8 active torsions:
REMARK  status: ('A' for Active; 'I' for Inactive)
REMARK    1  A    between atoms: C_1  and  C_2
REMARK    2  A    between atoms: C_2  and  N_3
REMARK    3  A    between atoms: N_3  and  C_4
REMARK    4  A    between atoms: N_3  and  C_6
REMARK    5  A    between atoms: C_4  and  C_5
REMARK    6  A    between atoms: C_11  and  C_24
REMARK    7  A    between atoms: N_13  and  C_14
REMARK    8  A    between atoms: C_24  and  N_26
REMARK                            x       y       z     vdW  Elec       q    Type
REMARK                         _______ _______ _______ _____ _____    ______ ____
ROOT
ATOM      1  C   UNL     1      -1.538  -0.822   1.908  0.00  0.00    +0.033 A 
ATOM      2  C   UNL     1      -1.176  -0.513   3.221  0.00  0.00    +0.024 A 
ATOM      3  C   UNL     1      -2.053  -0.715   4.244  0.00  0.00    +0.013 A 
ATOM      4  C   UNL     1      -3.326  -1.245   3.982  0.00  0.00    +0.018 A 
ATOM      5  C   UNL     1      -4.232  -1.492   5.043  0.00  0.00    +0.027 A 
ATOM      6  C   UNL     1      -5.394  -2.199   4.763  0.00  0.00    +0.064 A 
ATOM      7  C   UNL     1      -5.583  -2.671   3.376  0.00  0.00    +0.209 A 
ATOM      8  N   UNL     1      -6.333  -3.717   3.109  0.00  0.00    -0.325 N 
ATOM      9  O   UNL     1      -4.954  -1.984   2.387  0.00  0.00    -0.439 OA
ATOM     10  C   UNL     1      -3.705  -1.529   2.655  0.00  0.00    +0.139 A 
ATOM     11  C   UNL     1      -2.803  -1.321   1.627  0.00  0.00    +0.070 A 
ATOM     12  H   UNL     1      -6.698  -4.250   3.833  0.00  0.00    +0.169 HD
ENDROOT
BRANCH   8  13
ATOM     13  C   UNL     1      -6.599  -4.054   1.810  0.00  0.00    +0.042 A 
ATOM     14  C   UNL     1      -6.959  -3.067   0.889  0.00  0.00    +0.028 A 
ATOM     15  C   UNL     1      -7.225  -3.413  -0.419  0.00  0.00    +0.040 A 
ATOM     16  C   UNL     1      -7.137  -4.737  -0.821  0.00  0.00    +0.124 A 
ATOM     17  C   UNL     1      -6.781  -5.720   0.088  0.00  0.00    +0.040 A 
ATOM     18  C   UNL     1      -6.507  -5.386   1.398  0.00  0.00    +0.028 A 
ATOM     19  F   UNL     1      -7.399  -5.069  -2.104  0.00  0.00    -0.205 F 
ENDBRANCH   8  13
BRANCH   6  20
ATOM     20  C   UNL     1      -6.396  -2.467   5.804  0.00  0.00    +0.082 C 
ATOM     21  S   UNL     1      -7.885  -3.202   5.390  0.00  0.00    -0.035 S 
BRANCH  20  22
ATOM     22  N   UNL     1      -6.142  -2.134   7.085  0.00  0.00    -0.352 N 
ATOM     23  H   UNL     1      -5.298  -1.717   7.320  0.00  0.00    +0.143 HD
ATOM     24  H   UNL     1      -6.803  -2.311   7.772  0.00  0.00    +0.143 HD
ENDBRANCH  20  22
ENDBRANCH   6  20
BRANCH   1  25
ATOM     25  N   UNL     1      -0.628  -0.623   0.876  0.00  0.00    -0.330 N 
BRANCH  25  27
ATOM     26  C   UNL     1       0.681   1.431   1.095  0.00  0.00    +0.024 C 
ATOM     27  C   UNL     1       0.707  -0.097   1.168  0.00  0.00    +0.102 C 
ENDBRANCH  25  27
BRANCH  25  28
ATOM     28  C   UNL     1      -1.006  -0.940  -0.504  0.00  0.00    +0.102 C 
ATOM     29  C   UNL     1      -0.645  -2.395  -0.810  0.00  0.00    +0.024 C 
ENDBRANCH  25  28
ENDBRANCH   1  25
TORSDOF 6
