REMARK  Name = ZINC04493455
REMARK  10 active torsions:
REMARK  status: ('A' for Active; 'I' for Inactive)
REMARK    1  A    between atoms: C_1  and  C_2
REMARK    2  A    between atoms: C_6  and  N_27
REMARK    3  A    between atoms: C_7  and  N_8
REMARK    4  A    between atoms: C_9  and  C_11
REMARK    5  A    between atoms: C_11  and  O_12
REMARK    6  A    between atoms: O_12  and  C_13
REMARK    7  A    between atoms: C_13  and  C_15
REMARK    8  A    between atoms: C_15  and  C_16
REMARK    9  A    between atoms: C_22  and  C_26
REMARK   10  A    between atoms: C_23  and  C_25
REMARK                            x       y       z     vdW  Elec       q    Type
REMARK                         _______ _______ _______ _____ _____    ______ ____
ROOT
ATOM      1  C   UNL     1       3.471  -2.078  -5.809  0.00  0.00    +0.328 C 
ENDROOT
BRANCH   1   3
ATOM      2  N   UNL     1       4.400  -2.234  -8.096  0.00  0.00    -0.281 N 
ATOM      3  C   UNL     1       3.531  -1.644  -7.251  0.00  0.00    +0.255 C 
ATOM      4  O   UNL     1       2.798  -0.765  -7.651  0.00  0.00    -0.272 OA
ATOM      5  H   UNL     1       5.023  -2.899  -7.765  0.00  0.00    +0.155 HD
BRANCH   2  12
ATOM      6  C   UNL     1       1.952  -2.418  -9.536  0.00  0.00    +0.046 C 
ATOM      7  C   UNL     1       3.230  -1.962 -10.191  0.00  0.00    -0.027 A 
ATOM      8  C   UNL     1       3.235  -1.612 -11.528  0.00  0.00    +0.005 A 
ATOM      9  C   UNL     1       4.408  -1.199 -12.132  0.00  0.00    +0.003 A 
ATOM     10  C   UNL     1       5.579  -1.128 -11.399  0.00  0.00    +0.034 A 
ATOM     11  C   UNL     1       5.580  -1.471 -10.061  0.00  0.00    +0.148 A 
ATOM     12  C   UNL     1       4.403  -1.886  -9.451  0.00  0.00    +0.067 A 
BRANCH  11  13
ATOM     13  N   UNL     1       6.833  -1.394  -9.277  0.00  0.00    +0.058 N 
ATOM     14  O   UNL     1       7.841  -0.937  -9.784  0.00  0.00    -0.126 OA
ATOM     15  O   UNL     1       6.856  -1.789  -8.125  0.00  0.00    -0.126 OA
ENDBRANCH  11  13
ENDBRANCH   2  12
ENDBRANCH   1   3
BRANCH   1  16
ATOM     16  O   UNL     1       2.464  -1.298  -5.111  0.00  0.00    -0.455 OA
BRANCH  16  17
ATOM     17  C   UNL     1       2.284  -1.563  -3.807  0.00  0.00    +0.312 C 
ATOM     18  O   UNL     1       2.946  -2.418  -3.268  0.00  0.00    -0.250 OA
BRANCH  17  19
ATOM     19  C   UNL     1       1.257  -0.794  -3.017  0.00  0.00    +0.159 C 
BRANCH  19  20
ATOM     20  C   UNL     1       1.253  -1.280  -1.591  0.00  0.00    +0.009 A 
ATOM     21  C   UNL     1       0.446  -2.207  -1.058  0.00  0.00    +0.200 A 
ATOM     22  O   UNL     1       0.734  -2.380   0.243  0.00  0.00    -0.463 OA
ATOM     23  C   UNL     1       1.745  -1.573   0.624  0.00  0.00    +0.135 A 
ATOM     24  C   UNL     1       2.134  -0.832  -0.505  0.00  0.00    +0.024 A 
ATOM     25  C   UNL     1       3.167   0.099  -0.409  0.00  0.00    +0.015 A 
ATOM     26  C   UNL     1       3.811   0.280   0.795  0.00  0.00    -0.047 A 
ATOM     27  C   UNL     1       3.427  -0.452   1.910  0.00  0.00    -0.044 A 
ATOM     28  C   UNL     1       2.403  -1.371   1.830  0.00  0.00    +0.050 A 
ATOM     29  C   UNL     1       4.137  -0.238   3.222  0.00  0.00    +0.044 C 
ATOM     30  C   UNL     1       4.932   1.281   0.904  0.00  0.00    +0.044 C 
ENDBRANCH  19  20
ENDBRANCH  17  19
ENDBRANCH  16  17
ENDBRANCH   1  16
TORSDOF 7
