REMARK  Name = ZINC14547379
REMARK  5 active torsions:
REMARK  status: ('A' for Active; 'I' for Inactive)
REMARK    1  A    between atoms: C_2  and  C_3
REMARK    2  A    between atoms: C_3  and  N_4
REMARK    3  A    between atoms: N_4  and  S_5
REMARK    4  A    between atoms: S_5  and  C_8
REMARK    5  A    between atoms: C_21  and  C_24
REMARK                            x       y       z     vdW  Elec       q    Type
REMARK                         _______ _______ _______ _____ _____    ______ ____
ROOT
ATOM      1  C   UNL     1      -5.176  -0.600   2.024  0.00  0.00    +0.106 A 
ATOM      2  C   UNL     1      -5.181  -1.205   0.781  0.00  0.00    +0.030 A 
ATOM      3  C   UNL     1      -5.203  -2.581   0.680  0.00  0.00    +0.025 A 
ATOM      4  C   UNL     1      -5.232  -3.368   1.825  0.00  0.00    +0.031 A 
ATOM      5  C   UNL     1      -5.218  -2.748   3.079  0.00  0.00    -0.018 A 
ATOM      6  C   UNL     1      -5.197  -1.373   3.170  0.00  0.00    +0.034 A 
ATOM      7  C   UNL     1      -5.205  -3.623   4.272  0.00  0.00    +0.049 C 
ATOM      8  C   UNL     1      -5.734  -3.170   5.584  0.00  0.00    -0.023 C 
ATOM      9  C   UNL     1      -6.222  -4.222   6.231  0.00  0.00    -0.030 C 
ATOM     10  C   UNL     1      -6.084  -5.477   5.367  0.00  0.00    +0.033 C 
ATOM     11  C   UNL     1      -6.070  -4.879   3.954  0.00  0.00    +0.029 C 
ATOM     12  C   UNL     1      -5.302  -5.640   2.887  0.00  0.00    +0.106 C 
ATOM     13  N   UNL     1      -5.294  -4.761   1.698  0.00  0.00    -0.336 N 
ATOM     14  H   UNL     1      -5.332  -5.157   0.813  0.00  0.00    +0.147 HD
ENDROOT
BRANCH  12  15
ATOM     15  C   UNL     1      -3.892  -5.906   3.347  0.00  0.00    -0.009 A 
ATOM     16  C   UNL     1      -3.587  -7.067   4.041  0.00  0.00    +0.008 A 
ATOM     17  C   UNL     1      -2.276  -7.270   4.445  0.00  0.00    +0.020 A 
ATOM     18  C   UNL     1      -1.324  -6.314   4.144  0.00  0.00    +0.111 A 
ATOM     19  N   UNL     1      -1.650  -5.222   3.482  0.00  0.00    -0.263 NA
ATOM     20  C   UNL     1      -2.885  -4.998   3.078  0.00  0.00    +0.116 A 
ENDBRANCH  12  15
BRANCH   1  21
ATOM     21  S   UNL     1      -5.150   1.158   2.148  0.00  0.00    +0.059 S 
ATOM     22  O   UNL     1      -5.706   1.484   3.414  0.00  0.00    -0.153 OA
ATOM     23  O   UNL     1      -5.684   1.659   0.930  0.00  0.00    -0.153 OA
BRANCH  21  24
ATOM     24  N   UNL     1      -3.561   1.622   2.196  0.00  0.00    -0.186 NA
ATOM     25  H   UNL     1      -3.203   2.044   2.992  0.00  0.00    +0.148 HD
BRANCH  24  26
ATOM     26  C   UNL     1      -2.697   1.395   1.035  0.00  0.00    +0.132 C 
BRANCH  26  28
ATOM     27  C   UNL     1      -0.268   1.632   1.113  0.00  0.00    +0.005 C 
ATOM     28  C   UNL     1      -1.440   2.214   1.176  0.00  0.00    -0.018 C 
ENDBRANCH  26  28
ENDBRANCH  24  26
ENDBRANCH  21  24
ENDBRANCH   1  21
TORSDOF 5
