REMARK  Name = ZINC20709382
REMARK  6 active torsions:
REMARK  status: ('A' for Active; 'I' for Inactive)
REMARK    1  A    between atoms: C_1  and  O_2
REMARK    2  A    between atoms: O_2  and  C_3
REMARK    3  A    between atoms: C_3  and  C_5
REMARK    4  A    between atoms: C_12  and  C_21
REMARK    5  A    between atoms: C_23  and  N_28
REMARK    6  A    between atoms: C_26  and  O_27
REMARK                            x       y       z     vdW  Elec       q    Type
REMARK                         _______ _______ _______ _____ _____    ______ ____
ROOT
ATOM      1  C   UNL     1      -0.024   3.748  -0.284  0.00  0.00    +0.080 A 
ATOM      2  C   UNL     1      -1.214   3.018  -0.286  0.00  0.00    +0.017 A 
ATOM      3  C   UNL     1      -1.172   1.648  -0.160  0.00  0.00    +0.001 A 
ATOM      4  C   UNL     1       0.041   0.998  -0.019  0.00  0.00    +0.006 A 
ATOM      5  C   UNL     1       1.234   1.704  -0.013  0.00  0.00    -0.019 A 
ATOM      6  C   UNL     1       1.210   3.082  -0.148  0.00  0.00    +0.045 A 
ATOM      7  N   UNL     1       2.366   3.846  -0.157  0.00  0.00    -0.336 N 
ATOM      8  C   UNL     1       3.460   3.204   0.573  0.00  0.00    +0.108 C 
ATOM      9  C   UNL     1       3.747   1.833  -0.043  0.00  0.00    +0.029 C 
ATOM     10  C   UNL     1       2.510   0.930   0.147  0.00  0.00    +0.049 C 
ATOM     11  C   UNL     1       2.643   0.414   1.562  0.00  0.00    -0.023 C 
ATOM     12  C   UNL     1       3.883   0.510   1.971  0.00  0.00    -0.030 C 
ATOM     13  C   UNL     1       4.758   1.097   0.881  0.00  0.00    +0.033 C 
ATOM     14  H   UNL     1       2.523   4.825  -0.632  0.00  0.00    +0.147 HD
ENDROOT
BRANCH   8  15
ATOM     15  C   UNL     1       4.695   4.062   0.486  0.00  0.00    +0.017 A 
ATOM     16  C   UNL     1       5.718   3.717  -0.376  0.00  0.00    +0.041 A 
ATOM     17  C   UNL     1       6.849   4.508  -0.460  0.00  0.00    +0.127 A 
ATOM     18  C   UNL     1       6.965   5.639   0.327  0.00  0.00    +0.036 A 
ATOM     19  C   UNL     1       5.947   5.986   1.194  0.00  0.00    +0.048 A 
ATOM     20  C   UNL     1       4.809   5.197   1.276  0.00  0.00    +0.122 A 
BRANCH  17  21
ATOM     21  N   UNL     1       7.940   4.139  -1.389  0.00  0.00    +0.056 N 
ATOM     22  O   UNL     1       8.940   4.832  -1.460  0.00  0.00    -0.126 OA
ATOM     23  O   UNL     1       7.839   3.143  -2.083  0.00  0.00    -0.126 OA
ENDBRANCH  17  21
BRANCH  20  24
ATOM     24  O   UNL     1       3.807   5.535   2.130  0.00  0.00    -0.506 OA
ATOM     25  H   UNL     1       3.898   6.435   2.756  0.00  0.00    +0.292 HD
ENDBRANCH  20  24
ENDBRANCH   8  15
BRANCH   1  26
ATOM     26  C   UNL     1      -0.058   5.214  -0.425  0.00  0.00    +0.341 C 
ATOM     27  O   UNL     1       0.978   5.849  -0.424  0.00  0.00    -0.245 OA
BRANCH  26  29
ATOM     28  C   UNL     1      -1.197   7.296  -0.688  0.00  0.00    +0.280 C 
ATOM     29  O   UNL     1      -1.239   5.851  -0.554  0.00  0.00    -0.464 OA
ENDBRANCH  26  29
ENDBRANCH   1  26
TORSDOF 5
