REMARK  Name = ZINC39674682
REMARK  7 active torsions:
REMARK  status: ('A' for Active; 'I' for Inactive)
REMARK    1  A    between atoms: C_1  and  C_2
REMARK    2  A    between atoms: C_4  and  C_14
REMARK    3  A    between atoms: C_7  and  C_12
REMARK    4  A    between atoms: C_14  and  C_15
REMARK    5  A    between atoms: C_15  and  N_16
REMARK    6  A    between atoms: C_17  and  C_19
REMARK    7  A    between atoms: C_30  and  C_32
REMARK                            x       y       z     vdW  Elec       q    Type
REMARK                         _______ _______ _______ _____ _____    ______ ____
ROOT
ATOM      1  C   UNL     1      -7.422  -0.893  -2.958  0.00  0.00    +0.100 C 
ATOM      2  C   UNL     1      -6.721  -1.568  -4.158  0.00  0.00    +0.121 C 
ATOM      3  N   UNL     1      -7.255  -2.950  -4.174  0.00  0.00    -0.296 N 
ATOM      4  C   UNL     1      -8.690  -2.796  -3.835  0.00  0.00    +0.115 C 
ATOM      5  C   UNL     1      -8.715  -1.699  -2.752  0.00  0.00    -0.004 C 
ATOM      6  C   UNL     1      -9.934  -0.801  -2.939  0.00  0.00    -0.010 C 
ATOM      7  C   UNL     1     -11.206  -1.611  -2.671  0.00  0.00    -0.082 C 
ATOM      8  N   UNL     1     -11.170  -2.143  -1.303  0.00  0.00    +0.379 N 
ATOM      9  C   UNL     1     -10.048  -3.078  -1.159  0.00  0.00    -0.082 C 
ATOM     10  C   UNL     1      -8.728  -2.330  -1.363  0.00  0.00    -0.010 C 
ATOM     11  C   UNL     1      -6.586  -4.091  -4.438  0.00  0.00    +0.247 C 
ATOM     12  O   UNL     1      -5.379  -4.069  -4.577  0.00  0.00    -0.270 OA
ATOM     13  H   UNL     1     -11.058  -1.381  -0.650  0.00  0.00    -0.086 HD
ATOM     14  H   UNL     1     -12.035  -2.624  -1.108  0.00  0.00    -0.086 HD
ENDROOT
BRANCH  11  15
ATOM     15  C   UNL     1      -7.321  -5.367  -4.558  0.00  0.00    +0.037 A 
ATOM     16  C   UNL     1      -8.690  -5.364  -4.835  0.00  0.00    +0.014 A 
ATOM     17  C   UNL     1      -9.370  -6.559  -4.946  0.00  0.00    +0.021 A 
ATOM     18  C   UNL     1      -8.699  -7.759  -4.783  0.00  0.00    +0.041 A 
ATOM     19  C   UNL     1      -7.341  -7.768  -4.508  0.00  0.00    +0.021 A 
ATOM     20  C   UNL     1      -6.649  -6.580  -4.401  0.00  0.00    +0.014 A 
ATOM     21 CL   UNL     1      -9.562  -9.259  -4.923  0.00  0.00    -0.084 Cl
ENDBRANCH  11  15
BRANCH   1  23
ATOM     22  N   UNL     1      -6.712  -0.079  -0.733  0.00  0.00    -0.315 N 
ATOM     23  C   UNL     1      -6.553  -0.972  -1.730  0.00  0.00    +0.218 C 
ATOM     24  O   UNL     1      -5.709  -1.838  -1.639  0.00  0.00    -0.275 OA
ATOM     25  H   UNL     1      -7.387   0.614  -0.806  0.00  0.00    +0.149 HD
BRANCH  22  26
ATOM     26  C   UNL     1      -5.867  -0.155   0.461  0.00  0.00    +0.108 C 
BRANCH  26  27
ATOM     27  C   UNL     1      -6.250   0.965   1.430  0.00  0.00    +0.052 C 
BRANCH  27  30
ATOM     28  C   UNL     1      -6.796   1.722   4.534  0.00  0.00    +0.035 C 
ATOM     29  C   UNL     1      -5.423   1.798   3.863  0.00  0.00    +0.103 C 
ATOM     30  C   UNL     1      -5.381   0.886   2.658  0.00  0.00    -0.037 C 
ATOM     31  C   UNL     1      -4.400  -0.019   2.907  0.00  0.00    +0.000 A 
ATOM     32  C   UNL     1      -3.905  -1.112   2.149  0.00  0.00    +0.028 A 
ATOM     33  C   UNL     1      -2.882  -1.889   2.643  0.00  0.00    +0.052 A 
ATOM     34  C   UNL     1      -2.284  -1.614   3.945  0.00  0.00    +0.021 A 
ATOM     35  C   UNL     1      -2.714  -0.589   4.710  0.00  0.00    +0.027 A 
ATOM     36  C   UNL     1      -3.803   0.270   4.230  0.00  0.00    +0.043 A 
ATOM     37  N   UNL     1      -4.386   1.310   4.777  0.00  0.00    -0.378 N 
ATOM     38  H   UNL     1      -4.169   1.692   5.642  0.00  0.00    +0.160 HD
BRANCH  33  39
ATOM     39  C   UNL     1      -2.395  -2.987   1.864  0.00  0.00    +0.099 C 
ATOM     40  N   UNL     1      -2.009  -3.859   1.246  0.00  0.00    -0.191 NA
ENDBRANCH  33  39
ENDBRANCH  27  30
ENDBRANCH  26  27
ENDBRANCH  22  26
ENDBRANCH   1  23
TORSDOF 6
