REMARK  Name = ZINC33007651
REMARK  4 active torsions:
REMARK  status: ('A' for Active; 'I' for Inactive)
REMARK    1  A    between atoms: C_4  and  C_7
REMARK    2  A    between atoms: C_15  and  N_19
REMARK    3  A    between atoms: N_19  and  S_20
REMARK    4  A    between atoms: S_20  and  C_23
REMARK                            x       y       z     vdW  Elec       q    Type
REMARK                         _______ _______ _______ _____ _____    ______ ____
ROOT
ATOM      1  C   UNL     1      -4.533  -1.842  -6.914  0.00  0.00    +0.250 C 
ATOM      2  O   UNL     1      -5.081  -2.050  -5.849  0.00  0.00    -0.270 OA
ATOM      3  N   UNL     1      -3.847  -0.698  -7.106  0.00  0.00    -0.261 N 
ATOM      4  C   UNL     1      -3.766   0.241  -6.091  0.00  0.00    +0.166 A 
ATOM      5  N   UNL     1      -4.284   0.196  -4.886  0.00  0.00    -0.225 NA
ATOM      6  C   UNL     1      -4.123   1.194  -3.988  0.00  0.00    +0.080 A 
ATOM      7  C   UNL     1      -4.625   1.270  -2.668  0.00  0.00    +0.031 A 
ATOM      8  C   UNL     1      -4.373   2.352  -1.885  0.00  0.00    +0.026 A 
ATOM      9  C   UNL     1      -3.614   3.426  -2.346  0.00  0.00    +0.049 A 
ATOM     10  C   UNL     1      -3.109   3.391  -3.640  0.00  0.00    +0.041 A 
ATOM     11  C   UNL     1      -3.357   2.297  -4.431  0.00  0.00    +0.043 A 
ATOM     12  S   UNL     1      -2.930   1.820  -6.088  0.00  0.00    -0.052 S 
ATOM     13  H   UNL     1      -3.351  -0.509  -8.070  0.00  0.00    +0.157 HD
ENDROOT
BRANCH   1  17
ATOM     14  C   UNL     1      -4.779  -4.720 -10.027  0.00  0.00    +0.000 A 
ATOM     15  C   UNL     1      -5.404  -4.960  -8.816  0.00  0.00    +0.001 A 
ATOM     16  C   UNL     1      -5.328  -4.029  -7.801  0.00  0.00    +0.013 A 
ATOM     17  C   UNL     1      -4.619  -2.843  -7.997  0.00  0.00    +0.037 A 
ATOM     18  C   UNL     1      -3.995  -2.604  -9.223  0.00  0.00    +0.013 A 
ATOM     19  C   UNL     1      -4.074  -3.546 -10.228  0.00  0.00    +0.001 A 
ENDBRANCH   1  17
BRANCH   9  20
ATOM     20  N   UNL     1      -3.370   4.527  -1.520  0.00  0.00    -0.216 N 
ATOM     21  H   UNL     1      -3.477   5.548  -1.917  0.00  0.00    +0.174 HD
BRANCH  20  22
ATOM     22  S   UNL     1      -2.919   4.296   0.057  0.00  0.00    +0.072 S 
ATOM     23  O   UNL     1      -3.834   3.358   0.608  0.00  0.00    -0.150 OA
ATOM     24  O   UNL     1      -2.721   5.587   0.617  0.00  0.00    -0.150 OA
BRANCH  22  25
ATOM     25  C   UNL     1      -1.342   3.509   0.038  0.00  0.00    +0.109 A 
ATOM     26  C   UNL     1      -0.187   4.269   0.034  0.00  0.00    +0.029 A 
ATOM     27  C   UNL     1       1.043   3.645   0.018  0.00  0.00    +0.006 A 
ATOM     28  C   UNL     1       1.131   2.259   0.003  0.00  0.00    -0.044 A 
ATOM     29  C   UNL     1      -0.018   1.502   0.010  0.00  0.00    -0.042 A 
ATOM     30  C   UNL     1      -1.256   2.132   0.032  0.00  0.00    +0.032 A 
ATOM     31  C   UNL     1       0.002  -0.004   0.002  0.00  0.00    +0.035 C 
ATOM     32  C   UNL     1       1.368  -0.520  -0.446  0.00  0.00    +0.005 C 
ATOM     33  C   UNL     1       2.446   0.176   0.393  0.00  0.00    +0.005 C 
ATOM     34  C   UNL     1       2.507   1.644  -0.022  0.00  0.00    +0.035 C 
ENDBRANCH  22  25
ENDBRANCH  20  22
ENDBRANCH   9  20
TORSDOF 4
