REMARK  Name = ZINC22170930
REMARK  7 active torsions:
REMARK  status: ('A' for Active; 'I' for Inactive)
REMARK    1  A    between atoms: C_1  and  C_2
REMARK    2  A    between atoms: C_2  and  N_3
REMARK    3  A    between atoms: C_5  and  C_9
REMARK    4  A    between atoms: C_6  and  C_8
REMARK    5  A    between atoms: N_23  and  C_24
REMARK    6  A    between atoms: C_24  and  N_26
REMARK    7  A    between atoms: N_26  and  C_27
REMARK                            x       y       z     vdW  Elec       q    Type
REMARK                         _______ _______ _______ _____ _____    ______ ____
ROOT
ATOM      1  C   UNL     1      -2.528   8.264  -0.137  0.00  0.00    +0.155 C 
ATOM      2  C   UNL     1      -2.366   9.310  -1.217  0.00  0.00    +0.046 A 
ATOM      3  C   UNL     1      -1.194   9.565  -1.838  0.00  0.00    -0.015 A 
ATOM      4  C   UNL     1      -1.445  10.624  -2.795  0.00  0.00    +0.003 A 
ATOM      5  C   UNL     1      -0.622  11.292  -3.707  0.00  0.00    +0.010 A 
ATOM      6  C   UNL     1      -1.210  12.265  -4.476  0.00  0.00    +0.001 A 
ATOM      7  C   UNL     1      -2.554  12.581  -4.364  0.00  0.00    +0.002 A 
ATOM      8  C   UNL     1      -3.391  11.936  -3.470  0.00  0.00    +0.026 A 
ATOM      9  C   UNL     1      -2.822  10.943  -2.675  0.00  0.00    +0.047 A 
ATOM     10  N   UNL     1      -3.345  10.129  -1.712  0.00  0.00    -0.356 N 
ATOM     11  H   UNL     1      -4.371  10.059  -1.321  0.00  0.00    +0.166 HD
ATOM     12  C   UNL     1       0.101   8.848  -1.557  0.00  0.00    +0.056 C 
ATOM     13  C   UNL     1      -0.004   8.141  -0.195  0.00  0.00    +0.112 C 
ATOM     14  N   UNL     1      -1.300   7.449  -0.122  0.00  0.00    -0.300 N 
ENDROOT
BRANCH   1  17
ATOM     15  N   UNL     1      -2.313   9.801   3.163  0.00  0.00    -0.271 N 
ATOM     16  C   UNL     1      -1.739   9.200   2.100  0.00  0.00    +0.114 A 
ATOM     17  C   UNL     1      -2.714   8.932   1.201  0.00  0.00    +0.019 A 
ATOM     18  C   UNL     1      -3.925   9.390   1.730  0.00  0.00    +0.065 A 
ATOM     19  N   UNL     1      -3.687   9.906   2.909  0.00  0.00    -0.176 NA
ATOM     20  C   UNL     1      -5.272   9.302   1.060  0.00  0.00    +0.068 C 
BRANCH  15  22
ATOM     21  C   UNL     1      -1.927  11.743   4.598  0.00  0.00    +0.029 C 
ATOM     22  C   UNL     1      -1.623  10.261   4.370  0.00  0.00    +0.140 C 
ENDBRANCH  15  22
ENDBRANCH   1  17
BRANCH  14  23
ATOM     23  C   UNL     1      -1.363   6.106  -0.039  0.00  0.00    +0.138 C 
ATOM     24  S   UNL     1      -2.881   5.315  -0.084  0.00  0.00    -0.018 S 
BRANCH  23  25
ATOM     25  N   UNL     1      -0.231   5.384   0.080  0.00  0.00    -0.297 N 
ATOM     26  H   UNL     1       0.735   5.894   0.204  0.00  0.00    +0.154 HD
BRANCH  25  27
ATOM     27  C   UNL     1      -0.286   3.985   0.044  0.00  0.00    +0.033 A 
ATOM     28  C   UNL     1      -1.111   3.345  -0.870  0.00  0.00    +0.026 A 
ATOM     29  C   UNL     1      -1.163   1.965  -0.903  0.00  0.00    +0.040 A 
ATOM     30  C   UNL     1      -0.393   1.220  -0.026  0.00  0.00    +0.124 A 
ATOM     31  C   UNL     1       0.427   1.858   0.890  0.00  0.00    +0.040 A 
ATOM     32  C   UNL     1       0.486   3.237   0.923  0.00  0.00    +0.026 A 
ATOM     33  F   UNL     1      -0.445  -0.129  -0.060  0.00  0.00    -0.205 F 
ENDBRANCH  25  27
ENDBRANCH  23  25
ENDBRANCH  14  23
TORSDOF 5
