REMARK  Name = ZINC64789030
REMARK  10 active torsions:
REMARK  status: ('A' for Active; 'I' for Inactive)
REMARK    1  A    between atoms: C_1  and  C_2
REMARK    2  A    between atoms: C_2  and  N_3
REMARK    3  A    between atoms: N_3  and  C_4
REMARK    4  A    between atoms: N_3  and  C_6
REMARK    5  A    between atoms: C_4  and  C_5
REMARK    6  A    between atoms: C_9  and  C_12
REMARK    7  A    between atoms: C_18  and  C_20
REMARK    8  A    between atoms: N_26  and  C_29
REMARK    9  A    between atoms: C_34  and  O_35
REMARK   10  A    between atoms: O_35  and  C_36
REMARK                            x       y       z     vdW  Elec       q    Type
REMARK                         _______ _______ _______ _____ _____    ______ ____
ROOT
ATOM      1  C   UNL     1      -1.273  -6.168   0.986  0.00  0.00    +0.132 C 
ATOM      2  C   UNL     1      -0.251  -6.504   2.087  0.00  0.00    +0.082 C 
ATOM      3  C   UNL     1      -1.080  -7.118   3.192  0.00  0.00    +0.041 C 
ATOM      4  N   UNL     1      -2.365  -7.139   2.808  0.00  0.00    -0.264 N 
ATOM      5  N   UNL     1      -2.564  -6.606   1.534  0.00  0.00    -0.215 N 
ATOM      6  C   UNL     1      -3.752  -6.505   0.905  0.00  0.00    +0.229 C 
ATOM      7  O   UNL     1      -3.811  -6.021  -0.206  0.00  0.00    -0.274 OA
ATOM      8  C   UNL     1      -5.007  -6.994   1.582  0.00  0.00    +0.111 C 
ATOM      9  C   UNL     1      -0.594  -7.582   4.400  0.00  0.00    +0.118 C 
ATOM     10  C   UNL     1       0.841  -7.509   4.731  0.00  0.00    +0.258 C 
ATOM     11  N   UNL     1       1.244  -7.981   5.929  0.00  0.00    -0.235 N 
ATOM     12  C   UNL     1       0.374  -8.505   6.804  0.00  0.00    +0.320 C 
ATOM     13  O   UNL     1       0.802  -8.913   7.866  0.00  0.00    -0.251 OA
ATOM     14  N   UNL     1      -0.942  -8.603   6.570  0.00  0.00    -0.186 N 
ATOM     15  C   UNL     1      -1.488  -8.166   5.416  0.00  0.00    +0.265 C 
ATOM     16  O   UNL     1      -2.685  -8.255   5.217  0.00  0.00    -0.269 OA
ATOM     17  O   UNL     1       1.640  -7.035   3.945  0.00  0.00    -0.270 OA
ATOM     18  H   UNL     1       2.184  -7.940   6.162  0.00  0.00    +0.159 HD
ATOM     19  H   UNL     1      -3.082  -7.490   3.359  0.00  0.00    +0.170 HD
ENDROOT
BRANCH   1  23
ATOM     20  C   UNL     1      -1.323  -1.965   0.226  0.00  0.00    +0.013 A 
ATOM     21  C   UNL     1      -0.653  -2.814  -0.634  0.00  0.00    +0.022 A 
ATOM     22  C   UNL     1      -0.637  -4.175  -0.388  0.00  0.00    +0.007 A 
ATOM     23  C   UNL     1      -1.290  -4.685   0.718  0.00  0.00    -0.025 A 
ATOM     24  C   UNL     1      -1.959  -3.835   1.579  0.00  0.00    +0.007 A 
ATOM     25  C   UNL     1      -1.972  -2.475   1.335  0.00  0.00    +0.022 A 
BRANCH  20  26
ATOM     26  N   UNL     1      -1.340  -0.589  -0.022  0.00  0.00    -0.394 NA
ATOM     27  H   UNL     1      -1.866  -0.123   0.702  0.00  0.00    +0.126 HD
BRANCH  26  29
ATOM     28  C   UNL     1       0.642  -0.208   1.365  0.00  0.00    +0.022 C 
ATOM     29  C   UNL     1       0.037  -0.077  -0.034  0.00  0.00    +0.081 C 
ENDBRANCH  26  29
BRANCH  26  30
ATOM     30  C   UNL     1      -1.968  -0.335  -1.325  0.00  0.00    +0.081 C 
ATOM     31  C   UNL     1      -3.440  -0.751  -1.272  0.00  0.00    +0.022 C 
ENDBRANCH  26  30
ENDBRANCH  20  26
ENDBRANCH   1  23
BRANCH  14  32
ATOM     32  C   UNL     1      -1.772  -9.167   7.550  0.00  0.00    +0.087 A 
ATOM     33  C   UNL     1      -2.355  -8.361   8.516  0.00  0.00    +0.028 A 
ATOM     34  C   UNL     1      -3.173  -8.919   9.480  0.00  0.00    +0.002 A 
ATOM     35  C   UNL     1      -3.412 -10.281   9.485  0.00  0.00    +0.004 A 
ATOM     36  C   UNL     1      -2.834 -11.091   8.526  0.00  0.00    +0.047 A 
ATOM     37  C   UNL     1      -2.018 -10.538   7.551  0.00  0.00    +0.142 A 
BRANCH  37  38
ATOM     38  O   UNL     1      -1.455 -11.333   6.603  0.00  0.00    -0.493 OA
ATOM     39  C   UNL     1      -1.751 -12.729   6.667  0.00  0.00    +0.277 C 
ENDBRANCH  37  38
ENDBRANCH  14  32
TORSDOF 6
