REMARK  Name = ZINC39683715
REMARK  8 active torsions:
REMARK  status: ('A' for Active; 'I' for Inactive)
REMARK    1  A    between atoms: C_1  and  S_2
REMARK    2  A    between atoms: S_2  and  C_3
REMARK    3  A    between atoms: C_3  and  C_4
REMARK    4  A    between atoms: C_4  and  C_5
REMARK    5  A    between atoms: C_9  and  C_18
REMARK    6  A    between atoms: N_20  and  C_21
REMARK    7  A    between atoms: C_21  and  C_22
REMARK    8  A    between atoms: C_22  and  C_23
REMARK                            x       y       z     vdW  Elec       q    Type
REMARK                         _______ _______ _______ _____ _____    ______ ____
ROOT
ATOM      1  C   UNL     1       1.797  -2.327   3.047  0.00  0.00    +0.216 C 
ATOM      2  O   UNL     1       2.272  -1.474   3.767  0.00  0.00    -0.276 OA
ATOM      3  N   UNL     1       2.016  -3.631   3.311  0.00  0.00    -0.300 N 
ATOM      4  C   UNL     1       1.530  -4.806   2.550  0.00  0.00    +0.121 C 
ATOM      5  C   UNL     1       2.716  -5.796   2.563  0.00  0.00    +0.100 C 
ATOM      6  C   UNL     1       3.542  -5.403   3.799  0.00  0.00    -0.004 C 
ATOM      7  C   UNL     1       2.802  -4.212   4.425  0.00  0.00    +0.115 C 
ATOM      8  C   UNL     1       3.604  -6.566   4.785  0.00  0.00    -0.010 C 
ATOM      9  C   UNL     1       4.479  -6.171   5.978  0.00  0.00    -0.082 C 
ATOM     10  N   UNL     1       5.827  -5.830   5.508  0.00  0.00    +0.379 N 
ATOM     11  C   UNL     1       5.769  -4.653   4.633  0.00  0.00    -0.082 C 
ATOM     12  C   UNL     1       4.949  -4.984   3.383  0.00  0.00    -0.010 C 
ATOM     13  H   UNL     1       6.417  -5.630   6.301  0.00  0.00    -0.086 HD
ATOM     14  H   UNL     1       6.210  -6.611   4.995  0.00  0.00    -0.086 HD
ENDROOT
BRANCH   5  15
ATOM     15  C   UNL     1       2.215  -7.212   2.692  0.00  0.00    +0.218 C 
ATOM     16  O   UNL     1       1.189  -7.439   3.297  0.00  0.00    -0.275 OA
ATOM     17  N   UNL     1       2.908  -8.225   2.135  0.00  0.00    -0.315 N 
ATOM     18  H   UNL     1       3.729  -8.043   1.651  0.00  0.00    +0.149 HD
BRANCH  17  19
ATOM     19  C   UNL     1       2.421  -9.601   2.260  0.00  0.00    +0.109 C 
BRANCH  19  20
ATOM     20  C   UNL     1       3.385 -10.550   1.544  0.00  0.00    +0.055 C 
BRANCH  20  21
ATOM     21  C   UNL     1       2.884 -11.966   1.673  0.00  0.00    -0.032 A 
ATOM     22  C   UNL     1       3.355 -12.776   2.689  0.00  0.00    +0.005 A 
ATOM     23  C   UNL     1       2.896 -14.074   2.808  0.00  0.00    +0.000 A 
ATOM     24  C   UNL     1       1.965 -14.563   1.910  0.00  0.00    +0.001 A 
ATOM     25  C   UNL     1       1.493 -13.754   0.894  0.00  0.00    +0.015 A 
ATOM     26  C   UNL     1       1.949 -12.453   0.778  0.00  0.00    +0.021 A 
ATOM     27 BR   UNL     1       1.298 -11.343  -0.608  0.00  0.00    -0.050 Br
ENDBRANCH  20  21
ENDBRANCH  19  20
ENDBRANCH  17  19
ENDBRANCH   5  15
BRANCH   1  28
ATOM     28  C   UNL     1       0.964  -1.929   1.856  0.00  0.00    +0.106 C 
BRANCH  28  29
ATOM     29  C   UNL     1       0.872  -0.404   1.784  0.00  0.00    +0.078 C 
BRANCH  29  31
ATOM     30  C   UNL     1      -0.142   1.888   0.409  0.00  0.00    +0.084 C 
ATOM     31  S   UNL     1      -0.132   0.075   0.351  0.00  0.00    -0.164 S 
ENDBRANCH  29  31
ENDBRANCH  28  29
ENDBRANCH   1  28
TORSDOF 7
