REMARK  Name = ZINC59515263
REMARK  7 active torsions:
REMARK  status: ('A' for Active; 'I' for Inactive)
REMARK    1  A    between atoms: C_1  and  C_2
REMARK    2  A    between atoms: N_4  and  C_5
REMARK    3  A    between atoms: C_8  and  C_11
REMARK    4  A    between atoms: N_12  and  N_13
REMARK    5  A    between atoms: C_14  and  C_16
REMARK    6  A    between atoms: C_19  and  N_22
REMARK    7  A    between atoms: C_23  and  C_25
REMARK                            x       y       z     vdW  Elec       q    Type
REMARK                         _______ _______ _______ _____ _____    ______ ____
ROOT
ATOM      1  N   UNL     1      -2.458  -8.335  -0.605  0.00  0.00    -0.203 N 
ATOM      2  C   UNL     1      -3.644  -8.970  -0.684  0.00  0.00    +0.263 C 
ATOM      3  O   UNL     1      -4.678  -8.330  -0.677  0.00  0.00    -0.268 OA
ATOM      4  H   UNL     1      -1.633  -8.846  -0.610  0.00  0.00    +0.178 HD
ENDROOT
BRANCH   2   5
ATOM      5  C   UNL     1      -3.688 -10.442  -0.780  0.00  0.00    +0.038 A 
ATOM      6  C   UNL     1      -2.501 -11.180  -0.782  0.00  0.00    +0.015 A 
ATOM      7  C   UNL     1      -2.545 -12.553  -0.872  0.00  0.00    +0.024 A 
ATOM      8  C   UNL     1      -3.771 -13.206  -0.960  0.00  0.00    +0.034 A 
ATOM      9  C   UNL     1      -4.955 -12.475  -0.958  0.00  0.00    +0.024 A 
ATOM     10  C   UNL     1      -4.917 -11.102  -0.862  0.00  0.00    +0.015 A 
BRANCH   8  11
ATOM     11  N   UNL     1      -3.812 -14.596  -1.050  0.00  0.00    -0.282 N 
ATOM     12  C   UNL     1      -2.905 -15.342  -0.390  0.00  0.00    +0.248 C 
ATOM     13  O   UNL     1      -2.000 -14.802   0.216  0.00  0.00    -0.270 OA
ATOM     14  H   UNL     1      -4.495 -15.027  -1.588  0.00  0.00    +0.155 HD
BRANCH  12  15
ATOM     15  C   UNL     1      -3.009 -16.816  -0.403  0.00  0.00    +0.037 A 
ATOM     16  C   UNL     1      -4.044 -17.439  -1.103  0.00  0.00    +0.013 A 
ATOM     17  C   UNL     1      -4.136 -18.816  -1.110  0.00  0.00    +0.001 A 
ATOM     18  C   UNL     1      -3.206 -19.578  -0.426  0.00  0.00    +0.000 A 
ATOM     19  C   UNL     1      -2.178 -18.967   0.270  0.00  0.00    +0.001 A 
ATOM     20  C   UNL     1      -2.070 -17.592   0.280  0.00  0.00    +0.013 A 
ENDBRANCH  12  15
ENDBRANCH   8  11
ENDBRANCH   2   5
BRANCH   1  22
ATOM     21  C   UNL     1      -1.273  -6.326  -0.437  0.00  0.00    +0.138 C 
ATOM     22  N   UNL     1      -2.416  -6.938  -0.514  0.00  0.00    -0.187 NA
BRANCH  21  26
ATOM     23  C   UNL     1      -1.146  -2.092  -0.163  0.00  0.00    +0.033 A 
ATOM     24  C   UNL     1       0.037  -2.822  -0.170  0.00  0.00    +0.024 A 
ATOM     25  C   UNL     1      -0.000  -4.196  -0.259  0.00  0.00    +0.011 A 
ATOM     26  C   UNL     1      -1.229  -4.856  -0.341  0.00  0.00    -0.005 A 
ATOM     27  C   UNL     1      -2.417  -4.119  -0.333  0.00  0.00    +0.011 A 
ATOM     28  C   UNL     1      -2.371  -2.745  -0.239  0.00  0.00    +0.024 A 
BRANCH  23  32
ATOM     29  C   UNL     1      -0.123   1.494  -0.663  0.00  0.00    +0.109 C 
ATOM     30  C   UNL     1      -0.112  -0.013  -0.673  0.00  0.00    +0.214 C 
ATOM     31  O   UNL     1       0.791  -0.609  -1.221  0.00  0.00    -0.276 OA
ATOM     32  N   UNL     1      -1.105  -0.698  -0.072  0.00  0.00    -0.286 N 
ATOM     33  H   UNL     1      -1.790  -0.223   0.424  0.00  0.00    +0.155 HD
ENDBRANCH  23  32
ENDBRANCH  21  26
ENDBRANCH   1  22
TORSDOF 6
