REMARK  Name = ZINC61396605
REMARK  4 active torsions:
REMARK  status: ('A' for Active; 'I' for Inactive)
REMARK    1  A    between atoms: C_1  and  C_2
REMARK    2  A    between atoms: C_3  and  C_13
REMARK    3  A    between atoms: N_15  and  C_16
REMARK    4  A    between atoms: C_19  and  C_22
REMARK                            x       y       z     vdW  Elec       q    Type
REMARK                         _______ _______ _______ _____ _____    ______ ____
ROOT
ATOM      1  C   UNL     1      -2.339   0.181   0.172  0.00  0.00    +0.252 C 
ATOM      2  O   UNL     1      -2.771   0.874  -0.729  0.00  0.00    -0.270 OA
ATOM      3  N   UNL     1      -3.148  -0.191   1.184  0.00  0.00    -0.281 N 
ATOM      4  H   UNL     1      -2.823  -0.797   1.868  0.00  0.00    +0.155 HD
ENDROOT
BRANCH   1   7
ATOM      5  C   UNL     1       0.070   1.712   1.436  0.00  0.00    +0.087 C 
ATOM      6  C   UNL     1       0.135   0.397   0.702  0.00  0.00    +0.117 A 
ATOM      7  C   UNL     1      -0.932  -0.252   0.158  0.00  0.00    +0.092 A 
ATOM      8  C   UNL     1      -0.383  -1.477  -0.445  0.00  0.00    +0.116 A 
ATOM      9  C   UNL     1      -0.926  -2.571  -1.153  0.00  0.00    +0.263 A 
ATOM     10  O   UNL     1      -2.120  -2.636  -1.388  0.00  0.00    -0.267 OA
ATOM     11  N   UNL     1      -0.081  -3.544  -1.565  0.00  0.00    -0.313 N 
ATOM     12  H   UNL     1      -0.424  -4.309  -2.054  0.00  0.00    +0.170 HD
ATOM     13  C   UNL     1       1.245  -3.453  -1.295  0.00  0.00    +0.203 A 
ATOM     14  N   UNL     1       1.756  -2.447  -0.642  0.00  0.00    -0.202 NA
ATOM     15  C   UNL     1       0.990  -1.440  -0.198  0.00  0.00    +0.235 A 
ATOM     16  O   UNL     1       1.251  -0.309   0.479  0.00  0.00    -0.441 OA
ENDBRANCH   1   7
BRANCH   3  17
ATOM     17  C   UNL     1      -4.454   0.297   1.248  0.00  0.00    +0.034 A 
ATOM     18  C   UNL     1      -5.175   0.507   0.077  0.00  0.00    +0.024 A 
ATOM     19  C   UNL     1      -6.464   0.988   0.137  0.00  0.00    +0.013 A 
ATOM     20  C   UNL     1      -7.048   1.266   1.375  0.00  0.00    +0.017 A 
ATOM     21  C   UNL     1      -6.321   1.054   2.549  0.00  0.00    +0.013 A 
ATOM     22  C   UNL     1      -5.034   0.568   2.483  0.00  0.00    +0.024 A 
BRANCH  20  23
ATOM     23  C   UNL     1      -8.430   1.782   1.443  0.00  0.00    +0.139 A 
ATOM     24  N   UNL     1      -9.099   2.093   2.597  0.00  0.00    -0.338 N 
ATOM     25  H   UNL     1      -8.756   2.015   3.500  0.00  0.00    +0.167 HD
ATOM     26  C   UNL     1     -10.355   2.540   2.233  0.00  0.00    +0.066 A 
ATOM     27  C   UNL     1     -11.460   2.989   2.942  0.00  0.00    +0.028 A 
ATOM     28  C   UNL     1     -12.597   3.374   2.263  0.00  0.00    +0.002 A 
ATOM     29  C   UNL     1     -12.643   3.316   0.877  0.00  0.00    +0.002 A 
ATOM     30  C   UNL     1     -11.565   2.878   0.162  0.00  0.00    +0.030 A 
ATOM     31  C   UNL     1     -10.401   2.482   0.829  0.00  0.00    +0.089 A 
ATOM     32  N   UNL     1      -9.199   2.018   0.408  0.00  0.00    -0.228 NA
ENDBRANCH  20  23
ENDBRANCH   3  17
TORSDOF 3
