REMARK  Name = ZINC06887554
REMARK  6 active torsions:
REMARK  status: ('A' for Active; 'I' for Inactive)
REMARK    1  A    between atoms: C_1  and  C_2
REMARK    2  A    between atoms: C_2  and  C_3
REMARK    3  A    between atoms: C_7  and  N_9
REMARK    4  A    between atoms: N_9  and  S_10
REMARK    5  A    between atoms: S_10  and  C_13
REMARK    6  A    between atoms: C_16  and  C_18
REMARK                            x       y       z     vdW  Elec       q    Type
REMARK                         _______ _______ _______ _____ _____    ______ ____
ROOT
ATOM      1  S   UNL     1      -6.285   4.275   0.086  0.00  0.00    +0.106 S 
ATOM      2  O   UNL     1      -6.555   2.991   0.633  0.00  0.00    -0.147 OA
ATOM      3  O   UNL     1      -6.811   5.469   0.649  0.00  0.00    -0.147 OA
ENDROOT
BRANCH   1   4
ATOM      4  C   UNL     1      -4.532   4.456   0.070  0.00  0.00    +0.262 A 
ATOM      5  C   UNL     1      -3.863   5.626   0.069  0.00  0.00    +0.072 A 
ATOM      6  C   UNL     1      -2.489   5.316   0.060  0.00  0.00    +0.053 A 
ATOM      7  C   UNL     1      -2.394   3.959   0.046  0.00  0.00    +0.157 A 
ATOM      8  O   UNL     1      -3.641   3.451   0.056  0.00  0.00    -0.435 OA
BRANCH   7   9
ATOM      9  C   UNL     1      -1.140   3.178   0.030  0.00  0.00    +0.126 A 
ATOM     10  C   UNL     1      -1.190   1.762   0.017  0.00  0.00    +0.038 A 
ATOM     11  C   UNL     1      -0.013   1.076   0.008  0.00  0.00    +0.074 A 
ATOM     12  C   UNL     1       1.188   1.821   0.001  0.00  0.00    +0.265 A 
ATOM     13  O   UNL     1       2.266   1.248  -0.013  0.00  0.00    -0.266 OA
ATOM     14  N   UNL     1       1.135   3.166   0.008  0.00  0.00    -0.243 N 
ATOM     15  H   UNL     1       1.989   3.686   0.003  0.00  0.00    +0.192 HD
ATOM     16  N   UNL     1       0.019   3.799   0.022  0.00  0.00    -0.168 NA
ENDBRANCH   7   9
ENDBRANCH   1   4
BRANCH   1  17
ATOM     17  N   UNL     1      -6.788   4.233  -1.491  0.00  0.00    -0.214 N 
ATOM     18  H   UNL     1      -7.349   4.942  -1.840  0.00  0.00    +0.174 HD
BRANCH  17  23
ATOM     19  C   UNL     1      -5.573   2.382  -4.424  0.00  0.00    -0.046 A 
ATOM     20  C   UNL     1      -5.642   1.081  -3.959  0.00  0.00    +0.004 A 
ATOM     21  C   UNL     1      -6.090   0.825  -2.676  0.00  0.00    +0.002 A 
ATOM     22  C   UNL     1      -6.471   1.868  -1.855  0.00  0.00    +0.024 A 
ATOM     23  C   UNL     1      -6.403   3.175  -2.318  0.00  0.00    +0.048 A 
ATOM     24  C   UNL     1      -5.957   3.429  -3.610  0.00  0.00    +0.028 A 
BRANCH  19  26
ATOM     25  C   UNL     1      -6.272   2.644  -6.789  0.00  0.00    +0.009 C 
ATOM     26  C   UNL     1      -5.085   2.656  -5.823  0.00  0.00    +0.032 C 
ENDBRANCH  19  26
ENDBRANCH  17  23
ENDBRANCH   1  17
TORSDOF 5
