REMARK  Name = ZINC67387233
REMARK  9 active torsions:
REMARK  status: ('A' for Active; 'I' for Inactive)
REMARK    1  A    between atoms: C_1  and  C_2
REMARK    2  A    between atoms: C_3  and  C_7
REMARK    3  A    between atoms: N_9  and  C_10
REMARK    4  A    between atoms: N_18  and  C_19
REMARK    5  A    between atoms: C_19  and  C_21
REMARK    6  A    between atoms: C_19  and  C_22
REMARK    7  A    between atoms: C_22  and  C_23
REMARK    8  A    between atoms: C_23  and  C_24
REMARK    9  A    between atoms: C_27  and  O_30
REMARK                            x       y       z     vdW  Elec       q    Type
REMARK                         _______ _______ _______ _____ _____    ______ ____
ROOT
ATOM      1  C   UNL     1      -4.887  -0.927   0.025  0.00  0.00    +0.076 C 
ATOM      2  C   UNL     1      -5.337  -0.666   1.465  0.00  0.00    +0.041 C 
ATOM      3  C   UNL     1      -6.798  -0.207   1.464  0.00  0.00    +0.111 C 
ATOM      4  N   UNL     1      -7.607  -1.205   0.750  0.00  0.00    -0.286 N 
ATOM      5  C   UNL     1      -7.208  -1.596  -0.609  0.00  0.00    +0.111 C 
ATOM      6  C   UNL     1      -5.742  -2.040  -0.585  0.00  0.00    +0.041 C 
ATOM      7  C   UNL     1      -8.693  -1.752   1.331  0.00  0.00    +0.302 C 
ATOM      8  O   UNL     1      -8.958  -1.493   2.489  0.00  0.00    -0.253 OA
ATOM      9  N   UNL     1      -9.485  -2.586   0.629  0.00  0.00    -0.297 N 
ATOM     10  H   UNL     1      -9.236  -2.850  -0.270  0.00  0.00    +0.151 HD
ENDROOT
BRANCH   1  13
ATOM     11  C   UNL     1      -2.508  -0.400   0.019  0.00  0.00    +0.248 C 
ATOM     12  O   UNL     1      -2.799   0.780   0.023  0.00  0.00    -0.270 OA
ATOM     13  N   UNL     1      -3.480  -1.334   0.020  0.00  0.00    -0.308 N 
ATOM     14  H   UNL     1      -3.248  -2.276   0.017  0.00  0.00    +0.149 HD
BRANCH  11  17
ATOM     15  C   UNL     1      -0.021   1.511   0.015  0.00  0.00    +0.087 C 
ATOM     16  C   UNL     1       0.002   0.004   0.012  0.00  0.00    +0.114 A 
ATOM     17  C   UNL     1      -1.092  -0.810   0.014  0.00  0.00    +0.077 A 
ATOM     18  C   UNL     1      -0.564  -2.182   0.009  0.00  0.00    +0.054 A 
ATOM     19  C   UNL     1       0.772  -2.063   0.005  0.00  0.00    +0.196 A 
ATOM     20  O   UNL     1       1.097  -0.761   0.002  0.00  0.00    -0.467 OA
ENDBRANCH  11  17
ENDBRANCH   1  13
BRANCH   9  21
ATOM     21  C   UNL     1     -10.724  -3.094   1.224  0.00  0.00    +0.072 C 
ATOM     22  C   UNL     1     -10.414  -4.333   2.066  0.00  0.00    +0.028 C 
BRANCH  21  23
ATOM     23  C   UNL     1     -11.709  -3.465   0.113  0.00  0.00    +0.026 C 
BRANCH  23  24
ATOM     24  C   UNL     1     -12.114  -2.203  -0.651  0.00  0.00    +0.037 C 
BRANCH  24  25
ATOM     25  C   UNL     1     -13.084  -2.568  -1.745  0.00  0.00    -0.047 A 
ATOM     26  C   UNL     1     -12.613  -2.905  -3.001  0.00  0.00    +0.007 A 
ATOM     27  C   UNL     1     -13.500  -3.240  -4.005  0.00  0.00    +0.045 A 
ATOM     28  C   UNL     1     -14.864  -3.239  -3.754  0.00  0.00    +0.117 A 
ATOM     29  C   UNL     1     -15.335  -2.901  -2.493  0.00  0.00    +0.045 A 
ATOM     30  C   UNL     1     -14.443  -2.572  -1.490  0.00  0.00    +0.007 A 
BRANCH  28  31
ATOM     31  O   UNL     1     -15.739  -3.567  -4.741  0.00  0.00    -0.507 OA
ATOM     32  H   UNL     1     -15.948  -4.511  -4.783  0.00  0.00    +0.292 HD
ENDBRANCH  28  31
ENDBRANCH  24  25
ENDBRANCH  23  24
ENDBRANCH  21  23
ENDBRANCH   9  21
TORSDOF 7
