REMARK  Name = ZINC45962144
REMARK  8 active torsions:
REMARK  status: ('A' for Active; 'I' for Inactive)
REMARK    1  A    between atoms: C_1  and  C_2
REMARK    2  A    between atoms: C_2  and  C_3
REMARK    3  A    between atoms: C_3  and  N_4
REMARK    4  A    between atoms: N_4  and  C_5
REMARK    5  A    between atoms: C_15  and  N_16
REMARK    6  A    between atoms: N_16  and  S_17
REMARK    7  A    between atoms: S_17  and  C_20
REMARK    8  A    between atoms: C_23  and  C_26
REMARK                            x       y       z     vdW  Elec       q    Type
REMARK                         _______ _______ _______ _____ _____    ______ ____
ROOT
ATOM      1  C   UNL     1      -1.709  -0.890   0.651  0.00  0.00    +0.068 A 
ATOM      2  C   UNL     1      -1.089  -2.120   1.169  0.00  0.00    +0.040 A 
ATOM      3  C   UNL     1       0.284  -2.184   1.415  0.00  0.00    +0.013 A 
ATOM      4  C   UNL     1       0.834  -3.350   1.900  0.00  0.00    +0.001 A 
ATOM      5  C   UNL     1       0.031  -4.455   2.144  0.00  0.00    +0.004 A 
ATOM      6  C   UNL     1      -1.326  -4.404   1.904  0.00  0.00    +0.047 A 
ATOM      7  C   UNL     1      -1.901  -3.238   1.415  0.00  0.00    +0.141 A 
ATOM      8  O   UNL     1      -3.229  -3.175   1.176  0.00  0.00    -0.421 OA
ATOM      9  C   UNL     1      -3.813  -2.062   0.704  0.00  0.00    +0.362 A 
ATOM     10  O   UNL     1      -5.016  -2.062   0.507  0.00  0.00    -0.243 OA
ATOM     11  C   UNL     1      -3.075  -0.895   0.435  0.00  0.00    +0.154 A 
ENDROOT
BRANCH   1  12
ATOM     12  N   UNL     1      -0.950   0.238   0.393  0.00  0.00    -0.342 N 
ATOM     13  H   UNL     1      -0.015   0.263   0.650  0.00  0.00    +0.146 HD
BRANCH  12  14
ATOM     14  C   UNL     1      -1.558   1.395  -0.269  0.00  0.00    +0.101 C 
BRANCH  14  16
ATOM     15  C   UNL     1      -1.085   3.514  -1.505  0.00  0.00    +0.005 C 
ATOM     16  C   UNL     1      -0.461   2.367  -0.708  0.00  0.00    +0.015 C 
ENDBRANCH  14  16
ENDBRANCH  12  14
ENDBRANCH   1  12
BRANCH  11  17
ATOM     17  N   UNL     1      -3.720   0.255  -0.054  0.00  0.00    -0.208 N 
ATOM     18  H   UNL     1      -3.245   1.100  -0.088  0.00  0.00    +0.174 HD
BRANCH  17  19
ATOM     19  S   UNL     1      -5.291   0.167  -0.571  0.00  0.00    +0.073 S 
ATOM     20  O   UNL     1      -5.632   1.457  -1.058  0.00  0.00    -0.150 OA
ATOM     21  O   UNL     1      -5.389  -1.001  -1.374  0.00  0.00    -0.150 OA
BRANCH  19  22
ATOM     22  C   UNL     1      -6.293  -0.115   0.851  0.00  0.00    +0.109 A 
ATOM     23  C   UNL     1      -7.054  -1.267   0.940  0.00  0.00    +0.030 A 
ATOM     24  C   UNL     1      -7.840  -1.494   2.051  0.00  0.00    +0.021 A 
ATOM     25  C   UNL     1      -7.866  -0.558   3.087  0.00  0.00    +0.052 A 
ATOM     26  C   UNL     1      -7.095   0.602   2.991  0.00  0.00    +0.021 A 
ATOM     27  C   UNL     1      -6.309   0.814   1.877  0.00  0.00    +0.030 A 
BRANCH  25  28
ATOM     28  C   UNL     1      -8.680  -0.787   4.242  0.00  0.00    +0.099 C 
ATOM     29  N   UNL     1      -9.326  -0.968   5.159  0.00  0.00    -0.191 NA
ENDBRANCH  25  28
ENDBRANCH  19  22
ENDBRANCH  17  19
ENDBRANCH  11  17
TORSDOF 7
