REMARK  Name = ZINC39623502
REMARK  10 active torsions:
REMARK  status: ('A' for Active; 'I' for Inactive)
REMARK    1  A    between atoms: C_1  and  C_2
REMARK    2  A    between atoms: C_2  and  C_3
REMARK    3  A    between atoms: C_3  and  C_4
REMARK    4  A    between atoms: C_4  and  C_5
REMARK    5  A    between atoms: C_5  and  N_6
REMARK    6  A    between atoms: C_7  and  C_9
REMARK    7  A    between atoms: C_20  and  C_22
REMARK    8  A    between atoms: C_22  and  O_23
REMARK    9  A    between atoms: O_23  and  C_24
REMARK   10  A    between atoms: C_34  and  C_35
REMARK                            x       y       z     vdW  Elec       q    Type
REMARK                         _______ _______ _______ _____ _____    ______ ____
ROOT
ATOM      1  C   UNL     1       2.145  -6.191   3.458  0.00  0.00    +0.100 C 
ATOM      2  C   UNL     1       0.720  -6.749   3.669  0.00  0.00    +0.121 C 
ATOM      3  N   UNL     1       0.911  -7.950   4.517  0.00  0.00    -0.297 N 
ATOM      4  C   UNL     1       1.964  -7.556   5.482  0.00  0.00    +0.115 C 
ATOM      5  C   UNL     1       2.959  -6.722   4.650  0.00  0.00    -0.004 C 
ATOM      6  C   UNL     1       3.497  -5.561   5.481  0.00  0.00    -0.010 C 
ATOM      7  C   UNL     1       4.351  -6.112   6.627  0.00  0.00    -0.082 C 
ATOM      8  N   UNL     1       5.459  -6.903   6.078  0.00  0.00    +0.379 N 
ATOM      9  C   UNL     1       4.933  -8.070   5.358  0.00  0.00    -0.082 C 
ATOM     10  C   UNL     1       4.104  -7.601   4.159  0.00  0.00    -0.010 C 
ATOM     11  C   UNL     1       0.271  -9.133   4.429  0.00  0.00    +0.253 C 
ATOM     12  O   UNL     1       0.540 -10.027   5.203  0.00  0.00    -0.272 OA
ATOM     13  H   UNL     1       5.995  -6.332   5.443  0.00  0.00    -0.086 HD
ATOM     14  H   UNL     1       6.054  -7.214   6.831  0.00  0.00    -0.086 HD
ENDROOT
BRANCH   1  16
ATOM     15  N   UNL     1       3.048  -3.993   2.767  0.00  0.00    -0.315 N 
ATOM     16  C   UNL     1       2.125  -4.684   3.466  0.00  0.00    +0.218 C 
ATOM     17  O   UNL     1       1.278  -4.092   4.102  0.00  0.00    -0.275 OA
ATOM     18  H   UNL     1       3.725  -4.466   2.259  0.00  0.00    +0.149 HD
BRANCH  15  19
ATOM     19  C   UNL     1       3.028  -2.529   2.775  0.00  0.00    +0.104 C 
BRANCH  19  20
ATOM     20  C   UNL     1       4.173  -1.998   1.910  0.00  0.00    +0.019 C 
BRANCH  20  21
ATOM     21  C   UNL     1       4.152  -0.468   1.918  0.00  0.00    +0.001 C 
BRANCH  21  23
ATOM     22  C   UNL     1       5.276   1.592   1.061  0.00  0.00    +0.004 C 
ATOM     23  C   UNL     1       5.296   0.062   1.052  0.00  0.00    -0.003 C 
ENDBRANCH  21  23
ENDBRANCH  20  21
ENDBRANCH  19  20
ENDBRANCH  15  19
ENDBRANCH   1  16
BRANCH  11  24
ATOM     24  C   UNL     1      -0.780  -9.344   3.369  0.00  0.00    +0.324 C 
BRANCH  24  25
ATOM     25  O   UNL     1      -1.308 -10.667   3.480  0.00  0.00    -0.479 OA
BRANCH  25  26
ATOM     26  C   UNL     1      -2.274 -11.023   2.591  0.00  0.00    +0.164 A 
ATOM     27  C   UNL     1      -2.698 -10.122   1.632  0.00  0.00    +0.049 A 
ATOM     28  C   UNL     1      -3.682 -10.472   0.719  0.00  0.00    +0.004 A 
ATOM     29  C   UNL     1      -4.252 -11.725   0.756  0.00  0.00    +0.012 A 
ATOM     30  C   UNL     1      -3.834 -12.649   1.720  0.00  0.00    +0.024 A 
ATOM     31  C   UNL     1      -2.834 -12.298   2.642  0.00  0.00    +0.181 A 
ATOM     32  O   UNL     1      -2.429 -13.193   3.569  0.00  0.00    -0.418 OA
ATOM     33  C   UNL     1      -2.958 -14.425   3.631  0.00  0.00    +0.338 A 
ATOM     34  O   UNL     1      -2.562 -15.198   4.484  0.00  0.00    -0.245 OA
ATOM     35  C   UNL     1      -3.963 -14.846   2.733  0.00  0.00    +0.096 A 
ATOM     36  C   UNL     1      -4.422 -13.990   1.785  0.00  0.00    -0.033 A 
ATOM     37  C   UNL     1      -5.494 -14.414   0.814  0.00  0.00    +0.045 C 
ENDBRANCH  25  26
ENDBRANCH  24  25
ENDBRANCH  11  24
TORSDOF 8
