REMARK  Name = ZINC43746634
REMARK  15 active torsions:
REMARK  status: ('A' for Active; 'I' for Inactive)
REMARK    1  A    between atoms: C_1  and  C_2
REMARK    2  A    between atoms: C_2  and  C_3
REMARK    3  A    between atoms: C_3  and  C_5
REMARK    4  A    between atoms: C_3  and  N_6
REMARK    5  A    between atoms: C_7  and  C_9
REMARK    6  A    between atoms: C_9  and  C_10
REMARK    7  A    between atoms: C_10  and  C_11
REMARK    8  A    between atoms: C_11  and  O_13
REMARK    9  A    between atoms: O_13  and  C_14
REMARK   10  A    between atoms: C_14  and  C_15
REMARK   11  A    between atoms: C_15  and  C_17
REMARK   12  A    between atoms: C_17  and  O_42
REMARK   13  A    between atoms: C_22  and  C_41
REMARK   14  A    between atoms: C_24  and  O_40
REMARK   15  A    between atoms: C_38  and  C_39
REMARK                            x       y       z     vdW  Elec       q    Type
REMARK                         _______ _______ _______ _____ _____    ______ ____
ROOT
ATOM      1  C   UNL     1     -10.544   1.600   6.077  0.00  0.00    +0.133 C 
ATOM      2  C   UNL     1     -11.049   0.348   6.820  0.00  0.00    +0.043 C 
ATOM      3  C   UNL     1     -12.593   0.462   6.862  0.00  0.00    +0.008 C 
ATOM      4  C   UNL     1     -12.905   1.329   5.630  0.00  0.00    +0.002 C 
ATOM      5  C   UNL     1     -11.806   2.403   5.660  0.00  0.00    +0.009 C 
ATOM      6  C   UNL     1     -12.088   3.396   6.784  0.00  0.00    +0.041 C 
ATOM      7  C   UNL     1     -13.488   4.008   6.651  0.00  0.00    +0.119 C 
ATOM      8  C   UNL     1     -14.543   2.911   6.761  0.00  0.00    +0.031 C 
ATOM      9  C   UNL     1     -14.307   1.892   5.642  0.00  0.00    -0.001 C 
ATOM     10  C   UNL     1     -15.301   0.729   5.724  0.00  0.00    +0.008 C 
ATOM     11  C   UNL     1     -16.729   1.260   5.540  0.00  0.00    +0.032 C 
ATOM     12  C   UNL     1     -16.930   2.294   6.635  0.00  0.00    -0.060 C 
ATOM     13  C   UNL     1     -17.939   2.129   7.481  0.00  0.00    +0.046 C 
ATOM     14  C   UNL     1     -18.132   3.067   8.593  0.00  0.00    +0.156 C 
ATOM     15  O   UNL     1     -19.185   3.175   9.181  0.00  0.00    -0.293 OA
ATOM     16  C   UNL     1     -16.906   3.875   8.986  0.00  0.00    +0.080 C 
ATOM     17  C   UNL     1     -16.344   4.486   7.703  0.00  0.00    +0.019 C 
ATOM     18  C   UNL     1     -15.964   3.450   6.676  0.00  0.00    -0.005 C 
ATOM     19  C   UNL     1     -16.118   4.163   5.327  0.00  0.00    +0.016 C 
ATOM     20  C   UNL     1     -11.621   3.086   4.305  0.00  0.00    +0.015 C 
ENDROOT
BRANCH   1  21
ATOM     21  C   UNL     1      -9.764   1.193   4.852  0.00  0.00    +0.202 C 
ATOM     22  O   UNL     1     -10.028   0.161   4.284  0.00  0.00    -0.291 OA
BRANCH  21  23
ATOM     23  C   UNL     1      -8.656   2.075   4.338  0.00  0.00    +0.309 C 
BRANCH  23  24
ATOM     24  O   UNL     1      -8.073   1.480   3.177  0.00  0.00    -0.457 OA
BRANCH  24  25
ATOM     25  C   UNL     1      -7.064   2.144   2.592  0.00  0.00    +0.308 C 
ATOM     26  O   UNL     1      -6.688   3.197   3.050  0.00  0.00    -0.251 OA
BRANCH  25  27
ATOM     27  C   UNL     1      -6.400   1.577   1.364  0.00  0.00    +0.130 C 
BRANCH  27  28
ATOM     28  C   UNL     1      -5.290   2.524   0.901  0.00  0.00    +0.107 C 
BRANCH  28  30
ATOM     29  N   UNL     1      -3.614   2.624  -0.914  0.00  0.00    -0.313 N 
ATOM     30  C   UNL     1      -4.627   1.957  -0.327  0.00  0.00    +0.214 C 
ATOM     31  O   UNL     1      -5.004   0.900  -0.787  0.00  0.00    -0.276 OA
ATOM     32  H   UNL     1      -3.312   3.469  -0.546  0.00  0.00    +0.149 HD
BRANCH  29  33
ATOM     33  C   UNL     1      -2.968   2.073  -2.109  0.00  0.00    +0.070 C 
ATOM     34  C   UNL     1      -1.879   1.084  -1.689  0.00  0.00    +0.028 C 
BRANCH  33  36
ATOM     35  C   UNL     1      -3.444   4.130  -3.444  0.00  0.00    +0.005 C 
ATOM     36  C   UNL     1      -2.341   3.209  -2.919  0.00  0.00    +0.018 C 
ENDBRANCH  33  36
ENDBRANCH  29  33
ENDBRANCH  28  30
ENDBRANCH  27  28
ENDBRANCH  25  27
ENDBRANCH  24  25
ENDBRANCH  23  24
ENDBRANCH  21  23
ENDBRANCH   1  21
BRANCH   7  37
ATOM     37  O   UNL     1     -13.605   4.956   7.718  0.00  0.00    -0.391 OA
ATOM     38  H   UNL     1     -12.947   5.663   7.691  0.00  0.00    +0.210 HD
ENDBRANCH   7  37
BRANCH   1  39
ATOM     39  O   UNL     1      -9.719   2.384   6.940  0.00  0.00    -0.380 OA
ATOM     40  H   UNL     1      -8.921   1.929   7.242  0.00  0.00    +0.211 HD
ENDBRANCH   1  39
TORSDOF 11
