REMARK  Name = ZINC21560927
REMARK  8 active torsions:
REMARK  status: ('A' for Active; 'I' for Inactive)
REMARK    1  A    between atoms: C_1  and  C_2
REMARK    2  A    between atoms: C_6  and  N_9
REMARK    3  A    between atoms: C_7  and  C_8
REMARK    4  A    between atoms: C_11  and  C_16
REMARK    5  A    between atoms: N_18  and  C_19
REMARK    6  A    between atoms: C_19  and  C_20
REMARK    7  A    between atoms: C_20  and  C_21
REMARK    8  A    between atoms: C_21  and  N_22
REMARK                            x       y       z     vdW  Elec       q    Type
REMARK                         _______ _______ _______ _____ _____    ______ ____
ROOT
ATOM      1  C   UNL     1       5.448   2.039   0.843  0.00  0.00    +0.218 C 
ATOM      2  O   UNL     1       4.990   3.074   1.280  0.00  0.00    -0.275 OA
ATOM      3  N   UNL     1       6.744   1.978   0.476  0.00  0.00    -0.315 N 
ATOM      4  H   UNL     1       7.159   1.039   0.080  0.00  0.00    +0.149 HD
ENDROOT
BRANCH   1   7
ATOM      5  N   UNL     1       2.397   1.534  -0.013  0.00  0.00    -0.270 N 
ATOM      6  C   UNL     1       3.132   1.124   1.190  0.00  0.00    +0.127 C 
ATOM      7  C   UNL     1       4.569   0.822   0.712  0.00  0.00    +0.101 C 
ATOM      8  C   UNL     1       4.338   0.464  -0.775  0.00  0.00    +0.110 C 
ATOM      9  C   UNL     1       3.046   1.165  -1.131  0.00  0.00    +0.221 C 
ATOM     10  O   UNL     1       2.654   1.368  -2.260  0.00  0.00    -0.275 OA
BRANCH   5  16
ATOM     11  C   UNL     1      -2.518   1.407   0.022  0.00  0.00    +0.044 C 
ATOM     12  C   UNL     1      -1.223   2.178   0.020  0.00  0.00    -0.046 A 
ATOM     13  C   UNL     1      -1.243   3.561   0.033  0.00  0.00    +0.004 A 
ATOM     14  C   UNL     1      -0.057   4.272   0.025  0.00  0.00    +0.002 A 
ATOM     15  C   UNL     1       1.151   3.603   0.010  0.00  0.00    +0.024 A 
ATOM     16  C   UNL     1       1.175   2.214   0.003  0.00  0.00    +0.039 A 
ATOM     17  C   UNL     1      -0.018   1.503   0.010  0.00  0.00    -0.026 A 
ATOM     18  C   UNL     1       0.002  -0.004   0.002  0.00  0.00    +0.046 C 
ENDBRANCH   5  16
ENDBRANCH   1   7
BRANCH   3  19
ATOM     19  C   UNL     1       7.598   3.161   0.604  0.00  0.00    +0.106 C 
BRANCH  19  20
ATOM     20  C   UNL     1       9.011   2.824   0.122  0.00  0.00    +0.038 C 
BRANCH  20  21
ATOM     21  C   UNL     1       9.903   4.060   0.256  0.00  0.00    +0.119 C 
BRANCH  21  22
ATOM     22  N   UNL     1      11.256   3.738  -0.206  0.00  0.00    -0.224 N 
ATOM     23  C   UNL     1      11.678   3.884  -1.480  0.00  0.00    +0.246 C 
ATOM     24  O   UNL     1      11.037   4.291  -2.425  0.00  0.00    -0.273 OA
ATOM     25  C   UNL     1      13.116   3.434  -1.476  0.00  0.00    +0.113 C 
ATOM     26  C   UNL     1      14.050   4.567  -1.921  0.00  0.00    +0.035 C 
ATOM     27  C   UNL     1      15.172   3.841  -2.709  0.00  0.00    +0.003 C 
ATOM     28  C   UNL     1      14.403   2.717  -3.448  0.00  0.00    +0.003 C 
ATOM     29  C   UNL     1      13.333   2.258  -2.432  0.00  0.00    +0.035 C 
ATOM     30  N   UNL     1      13.377   3.049  -0.088  0.00  0.00    -0.285 N 
ATOM     31  C   UNL     1      12.229   3.267   0.585  0.00  0.00    +0.309 C 
ATOM     32  O   UNL     1      12.092   3.057   1.774  0.00  0.00    -0.252 OA
ATOM     33  H   UNL     1      14.368   2.671   0.202  0.00  0.00    +0.151 HD
ENDBRANCH  21  22
ENDBRANCH  20  21
ENDBRANCH  19  20
ENDBRANCH   3  19
TORSDOF 6
