REMARK  Name = ZINC01806733
REMARK  7 active torsions:
REMARK  status: ('A' for Active; 'I' for Inactive)
REMARK    1  A    between atoms: C_4  and  C_7
REMARK    2  A    between atoms: C_8  and  C_38
REMARK    3  A    between atoms: C_11  and  S_13
REMARK    4  A    between atoms: S_13  and  C_14
REMARK    5  A    between atoms: C_26  and  N_28
REMARK    6  A    between atoms: N_28  and  S_29
REMARK    7  A    between atoms: S_29  and  C_32
REMARK                            x       y       z     vdW  Elec       q    Type
REMARK                         _______ _______ _______ _____ _____    ______ ____
ROOT
ATOM      1  C   UNL     1       7.174   5.104   1.159  0.00  0.00    +0.108 C 
ATOM      2  C   UNL     1       6.543   5.128   2.530  0.00  0.00    -0.024 A 
ATOM      3  C   UNL     1       5.325   4.776   3.029  0.00  0.00    +0.005 A 
ATOM      4  C   UNL     1       5.050   4.927   4.389  0.00  0.00    +0.001 A 
ATOM      5  C   UNL     1       5.968   5.424   5.269  0.00  0.00    +0.008 A 
ATOM      6  C   UNL     1       7.234   5.796   4.789  0.00  0.00    -0.017 A 
ATOM      7  C   UNL     1       7.488   5.635   3.415  0.00  0.00    -0.009 A 
ATOM      8  C   UNL     1       8.706   5.971   2.832  0.00  0.00    -0.019 A 
ATOM      9  C   UNL     1       9.682   6.474   3.636  0.00  0.00    +0.006 A 
ATOM     10  C   UNL     1       9.452   6.643   5.004  0.00  0.00    +0.001 A 
ATOM     11  C   UNL     1       8.263   6.319   5.590  0.00  0.00    +0.008 A 
ATOM     12  C   UNL     1       8.601   5.660   1.358  0.00  0.00    +0.125 C 
ENDROOT
BRANCH  12  13
ATOM     13  N   UNL     1       8.785   6.880   0.568  0.00  0.00    -0.181 NA
ATOM     14  H   UNL     1       8.045   7.496   0.447  0.00  0.00    +0.149 HD
BRANCH  13  15
ATOM     15  S   UNL     1      10.256   7.208  -0.118  0.00  0.00    +0.059 S 
ATOM     16  O   UNL     1      10.109   8.429  -0.831  0.00  0.00    -0.153 OA
ATOM     17  O   UNL     1      11.229   7.035   0.904  0.00  0.00    -0.153 OA
BRANCH  15  18
ATOM     18  C   UNL     1      10.561   5.957  -1.320  0.00  0.00    +0.105 A 
ATOM     19  C   UNL     1      11.224   4.798  -0.959  0.00  0.00    +0.028 A 
ATOM     20  C   UNL     1      11.459   3.814  -1.901  0.00  0.00    +0.002 A 
ATOM     21  C   UNL     1      11.040   3.993  -3.206  0.00  0.00    +0.000 A 
ATOM     22  C   UNL     1      10.382   5.154  -3.568  0.00  0.00    +0.002 A 
ATOM     23  C   UNL     1      10.142   6.135  -2.625  0.00  0.00    +0.028 A 
ENDBRANCH  15  18
ENDBRANCH  13  15
ENDBRANCH  12  13
BRANCH   1  24
ATOM     24  S   UNL     1       6.242   6.159   0.022  0.00  0.00    -0.074 S 
BRANCH  24  29
ATOM     25  C   UNL     1       2.809   4.784  -1.277  0.00  0.00    +0.102 A 
ATOM     26  C   UNL     1       2.814   3.480  -0.744  0.00  0.00    +0.119 A 
ATOM     27  N   UNL     1       3.853   3.087  -0.015  0.00  0.00    -0.145 NA
ATOM     28  N   UNL     1       4.843   3.882   0.192  0.00  0.00    -0.122 NA
ATOM     29  C   UNL     1       4.860   5.115  -0.302  0.00  0.00    +0.211 A 
ATOM     30  N   UNL     1       3.853   5.574  -1.034  0.00  0.00    -0.218 NA
BRANCH  25  34
ATOM     31  C   UNL     1      -0.463   6.166  -3.612  0.00  0.00    +0.000 A 
ATOM     32  C   UNL     1       0.206   7.043  -2.776  0.00  0.00    +0.001 A 
ATOM     33  C   UNL     1       1.269   6.600  -2.015  0.00  0.00    +0.010 A 
ATOM     34  C   UNL     1       1.669   5.266  -2.091  0.00  0.00    +0.003 A 
ATOM     35  C   UNL     1       0.994   4.389  -2.940  0.00  0.00    +0.010 A 
ATOM     36  C   UNL     1      -0.071   4.842  -3.691  0.00  0.00    +0.001 A 
ENDBRANCH  25  34
BRANCH  26  37
ATOM     37  C   UNL     1       1.675   2.563  -0.986  0.00  0.00    +0.004 A 
ATOM     38  C   UNL     1       1.898   1.196  -1.144  0.00  0.00    +0.010 A 
ATOM     39  C   UNL     1       0.834   0.347  -1.369  0.00  0.00    +0.001 A 
ATOM     40  C   UNL     1      -0.452   0.852  -1.445  0.00  0.00    +0.000 A 
ATOM     41  C   UNL     1      -0.681   2.207  -1.284  0.00  0.00    +0.001 A 
ATOM     42  C   UNL     1       0.376   3.065  -1.058  0.00  0.00    +0.010 A 
ENDBRANCH  26  37
ENDBRANCH  24  29
ENDBRANCH   1  24
TORSDOF 7
