REMARK  Name = ZINC20430204
REMARK  3 active torsions:
REMARK  status: ('A' for Active; 'I' for Inactive)
REMARK    1  A    between atoms: C_3  and  N_18
REMARK    2  A    between atoms: C_6  and  C_7
REMARK    3  A    between atoms: N_9  and  C_10
REMARK                            x       y       z     vdW  Elec       q    Type
REMARK                         _______ _______ _______ _____ _____    ______ ____
ROOT
ATOM      1  C   UNL     1       1.207   1.543  -0.019  0.00  0.00    +0.248 C 
ATOM      2  O   UNL     1       1.305   2.751  -0.115  0.00  0.00    -0.270 OA
ATOM      3  N   UNL     1      -0.011   0.966   0.007  0.00  0.00    -0.281 N 
ATOM      4  H   UNL     1      -0.100  -0.131   0.024  0.00  0.00    +0.155 HD
ENDROOT
BRANCH   3   5
ATOM      5  C   UNL     1      -1.163   1.762   0.014  0.00  0.00    +0.048 A 
ATOM      6  C   UNL     1      -1.183   2.960  -0.687  0.00  0.00    +0.027 A 
ATOM      7  C   UNL     1      -2.321   3.744  -0.680  0.00  0.00    +0.040 A 
ATOM      8  C   UNL     1      -3.441   3.335   0.025  0.00  0.00    +0.125 A 
ATOM      9  C   UNL     1      -3.423   2.141   0.725  0.00  0.00    +0.055 A 
ATOM     10  C   UNL     1      -2.289   1.351   0.716  0.00  0.00    +0.042 A 
ATOM     11 BR   UNL     1      -2.267  -0.285   1.665  0.00  0.00    -0.048 Br
ATOM     12  F   UNL     1      -4.552   4.103   0.030  0.00  0.00    -0.205 F 
ENDBRANCH   3   5
BRANCH   1  18
ATOM     13  C   UNL     1       2.313  -0.680   0.184  0.00  0.00    +0.015 A 
ATOM     14  C   UNL     1       3.452  -1.455   0.260  0.00  0.00    +0.033 A 
ATOM     15  C   UNL     1       4.701  -0.859   0.233  0.00  0.00    +0.126 A 
ATOM     16  C   UNL     1       4.816   0.515   0.124  0.00  0.00    +0.033 A 
ATOM     17  C   UNL     1       3.685   1.301   0.042  0.00  0.00    +0.015 A 
ATOM     18  C   UNL     1       2.423   0.707   0.069  0.00  0.00    +0.037 A 
BRANCH  15  19
ATOM     19  N   UNL     1       5.918  -1.696   0.321  0.00  0.00    +0.056 N 
ATOM     20  O   UNL     1       7.019  -1.175   0.296  0.00  0.00    -0.126 OA
ATOM     21  O   UNL     1       5.820  -2.906   0.417  0.00  0.00    -0.126 OA
ENDBRANCH  15  19
ENDBRANCH   1  18
TORSDOF 3
