REMARK  Name = ZINC39667123
REMARK  9 active torsions:
REMARK  status: ('A' for Active; 'I' for Inactive)
REMARK    1  A    between atoms: C_1  and  C_2
REMARK    2  A    between atoms: C_5  and  C_9
REMARK    3  A    between atoms: C_6  and  C_8
REMARK    4  A    between atoms: C_9  and  C_10
REMARK    5  A    between atoms: C_10  and  N_11
REMARK    6  A    between atoms: C_12  and  C_14
REMARK    7  A    between atoms: C_25  and  C_27
REMARK    8  A    between atoms: C_31  and  O_32
REMARK    9  A    between atoms: O_32  and  C_33
REMARK                            x       y       z     vdW  Elec       q    Type
REMARK                         _______ _______ _______ _____ _____    ______ ____
ROOT
ATOM      1  C   UNL     1      -2.474  -8.480   0.195  0.00  0.00    +0.100 C 
ATOM      2  C   UNL     1      -1.593  -9.012   1.348  0.00  0.00    +0.121 C 
ATOM      3  N   UNL     1      -2.542  -9.270   2.456  0.00  0.00    -0.296 N 
ATOM      4  C   UNL     1      -3.739  -9.840   1.791  0.00  0.00    +0.115 C 
ATOM      5  C   UNL     1      -3.881  -9.029   0.487  0.00  0.00    -0.004 C 
ATOM      6  C   UNL     1      -4.341  -9.935  -0.651  0.00  0.00    -0.010 C 
ATOM      7  C   UNL     1      -5.765 -10.421  -0.365  0.00  0.00    -0.082 C 
ATOM      8  N   UNL     1      -6.662  -9.267  -0.238  0.00  0.00    +0.379 N 
ATOM      9  C   UNL     1      -6.267  -8.451   0.916  0.00  0.00    -0.082 C 
ATOM     10  C   UNL     1      -4.865  -7.881   0.685  0.00  0.00    -0.010 C 
ATOM     11  C   UNL     1      -2.360  -9.040   3.771  0.00  0.00    +0.251 C 
ATOM     12  O   UNL     1      -1.354  -8.474   4.155  0.00  0.00    -0.270 OA
ATOM     13  H   UNL     1      -6.611  -8.708  -1.077  0.00  0.00    -0.086 HD
ATOM     14  H   UNL     1      -7.609  -9.591  -0.111  0.00  0.00    -0.086 HD
ENDROOT
BRANCH  11  15
ATOM     15  C   UNL     1      -3.376  -9.472   4.742  0.00  0.00    +0.087 A 
ATOM     16  C   UNL     1      -4.103 -10.629   4.559  0.00  0.00    +0.063 A 
ATOM     17  S   UNL     1      -5.113 -10.699   5.896  0.00  0.00    -0.081 S 
ATOM     18  C   UNL     1      -4.618  -9.213   6.741  0.00  0.00    +0.120 A 
ATOM     19  C   UNL     1      -3.657  -8.708   5.935  0.00  0.00    +0.158 A 
ATOM     20 CL   UNL     1      -5.218  -8.572   8.238  0.00  0.00    -0.072 Cl
BRANCH  19  21
ATOM     21  O   UNL     1      -2.999  -7.551   6.227  0.00  0.00    -0.492 OA
ATOM     22  C   UNL     1      -3.571  -6.338   5.734  0.00  0.00    +0.277 C 
ENDBRANCH  19  21
ENDBRANCH  11  15
BRANCH   1  24
ATOM     23  N   UNL     1      -2.633  -6.299  -0.962  0.00  0.00    -0.315 N 
ATOM     24  C   UNL     1      -2.488  -6.973   0.197  0.00  0.00    +0.218 C 
ATOM     25  O   UNL     1      -2.368  -6.367   1.240  0.00  0.00    -0.275 OA
ATOM     26  H   UNL     1      -2.728  -6.784  -1.796  0.00  0.00    +0.149 HD
BRANCH  23  27
ATOM     27  C   UNL     1      -2.646  -4.835  -0.960  0.00  0.00    +0.109 C 
BRANCH  27  28
ATOM     28  C   UNL     1      -2.823  -4.324  -2.391  0.00  0.00    +0.054 C 
BRANCH  28  33
ATOM     29  C   UNL     1      -2.876   1.454  -2.381  0.00  0.00    +0.044 C 
ATOM     30  C   UNL     1      -2.862  -0.053  -2.384  0.00  0.00    -0.050 A 
ATOM     31  C   UNL     1      -4.052  -0.755  -2.348  0.00  0.00    +0.003 A 
ATOM     32  C   UNL     1      -4.040  -2.137  -2.350  0.00  0.00    +0.004 A 
ATOM     33  C   UNL     1      -2.837  -2.817  -2.389  0.00  0.00    -0.043 A 
ATOM     34  C   UNL     1      -1.647  -2.115  -2.426  0.00  0.00    -0.047 A 
ATOM     35  C   UNL     1      -1.659  -0.733  -2.428  0.00  0.00    +0.007 A 
ATOM     36  C   UNL     1      -0.335  -2.857  -2.469  0.00  0.00    +0.044 C 
ENDBRANCH  28  33
ENDBRANCH  27  28
ENDBRANCH  23  27
ENDBRANCH   1  24
TORSDOF 6
