REMARK  Name = ZINC39652873
REMARK  5 active torsions:
REMARK  status: ('A' for Active; 'I' for Inactive)
REMARK    1  A    between atoms: C_4  and  C_7
REMARK    2  A    between atoms: C_11  and  C_20
REMARK    3  A    between atoms: N_22  and  C_23
REMARK    4  A    between atoms: C_23  and  C_24
REMARK    5  A    between atoms: C_24  and  C_25
REMARK                            x       y       z     vdW  Elec       q    Type
REMARK                         _______ _______ _______ _____ _____    ______ ____
ROOT
ATOM      1  C   UNL     1       3.981  -0.732  -0.137  0.00  0.00    +0.247 C 
ATOM      2  O   UNL     1       5.065  -0.201  -0.280  0.00  0.00    -0.270 OA
ATOM      3  N   UNL     1       3.898  -2.071  -0.006  0.00  0.00    -0.296 N 
ATOM      4  C   UNL     1       2.674  -2.905   0.045  0.00  0.00    +0.121 C 
ATOM      5  C   UNL     1       3.027  -4.167  -0.773  0.00  0.00    +0.100 C 
ATOM      6  C   UNL     1       4.562  -4.253  -0.720  0.00  0.00    -0.004 C 
ATOM      7  C   UNL     1       5.012  -3.043   0.112  0.00  0.00    +0.115 C 
ATOM      8  C   UNL     1       4.995  -5.550  -0.045  0.00  0.00    -0.010 C 
ATOM      9  C   UNL     1       6.524  -5.640  -0.056  0.00  0.00    -0.082 C 
ATOM     10  N   UNL     1       7.008  -5.601  -1.441  0.00  0.00    +0.379 N 
ATOM     11  C   UNL     1       6.667  -4.311  -2.054  0.00  0.00    -0.082 C 
ATOM     12  C   UNL     1       5.145  -4.165  -2.127  0.00  0.00    -0.010 C 
ATOM     13  H   UNL     1       8.010  -5.721  -1.449  0.00  0.00    -0.086 HD
ATOM     14  H   UNL     1       6.578  -6.346  -1.968  0.00  0.00    -0.086 HD
ENDROOT
BRANCH   1  18
ATOM     15  C   UNL     1       0.454   1.632  -0.048  0.00  0.00    +0.000 A 
ATOM     16  C   UNL     1       1.603   2.131  -0.635  0.00  0.00    +0.001 A 
ATOM     17  C   UNL     1       2.752   1.369  -0.667  0.00  0.00    +0.013 A 
ATOM     18  C   UNL     1       2.753   0.091  -0.106  0.00  0.00    +0.037 A 
ATOM     19  C   UNL     1       1.591  -0.406   0.485  0.00  0.00    +0.013 A 
ATOM     20  C   UNL     1       0.449   0.366   0.510  0.00  0.00    +0.001 A 
ENDBRANCH   1  18
BRANCH   5  21
ATOM     21  C   UNL     1       2.557  -4.017  -2.197  0.00  0.00    +0.218 C 
ATOM     22  O   UNL     1       2.504  -2.918  -2.706  0.00  0.00    -0.275 OA
ATOM     23  N   UNL     1       2.195  -5.106  -2.905  0.00  0.00    -0.315 N 
ATOM     24  H   UNL     1       2.237  -5.985  -2.498  0.00  0.00    +0.149 HD
BRANCH  23  25
ATOM     25  C   UNL     1       1.737  -4.960  -4.289  0.00  0.00    +0.109 C 
BRANCH  25  26
ATOM     26  C   UNL     1       1.391  -6.337  -4.859  0.00  0.00    +0.054 C 
BRANCH  26  27
ATOM     27  C   UNL     1       0.920  -6.188  -6.283  0.00  0.00    -0.046 A 
ATOM     28  C   UNL     1      -0.422  -5.989  -6.550  0.00  0.00    +0.005 A 
ATOM     29  C   UNL     1      -0.853  -5.852  -7.856  0.00  0.00    +0.015 A 
ATOM     30  C   UNL     1       0.057  -5.913  -8.895  0.00  0.00    +0.018 A 
ATOM     31  C   UNL     1       1.400  -6.111  -8.627  0.00  0.00    +0.015 A 
ATOM     32  C   UNL     1       1.831  -6.244  -7.321  0.00  0.00    +0.005 A 
ATOM     33 BR   UNL     1      -0.533  -5.725 -10.682  0.00  0.00    -0.050 Br
ENDBRANCH  26  27
ENDBRANCH  25  26
ENDBRANCH  23  25
ENDBRANCH   5  21
TORSDOF 5
