REMARK  Name = ZINC39664395
REMARK  9 active torsions:
REMARK  status: ('A' for Active; 'I' for Inactive)
REMARK    1  A    between atoms: C_1  and  C_2
REMARK    2  A    between atoms: C_2  and  S_3
REMARK    3  A    between atoms: S_3  and  C_4
REMARK    4  A    between atoms: C_5  and  C_10
REMARK    5  A    between atoms: C_14  and  C_23
REMARK    6  A    between atoms: N_25  and  C_26
REMARK    7  A    between atoms: C_26  and  C_27
REMARK    8  A    between atoms: C_27  and  C_29
REMARK    9  A    between atoms: C_27  and  N_35
REMARK                            x       y       z     vdW  Elec       q    Type
REMARK                         _______ _______ _______ _____ _____    ______ ____
ROOT
ATOM      1  C   UNL     1       3.787  -0.981   5.643  0.00  0.00    +0.249 C 
ATOM      2  O   UNL     1       4.288   0.104   5.868  0.00  0.00    -0.270 OA
ATOM      3  N   UNL     1       4.155  -2.056   6.367  0.00  0.00    -0.296 N 
ATOM      4  C   UNL     1       3.728  -3.463   6.185  0.00  0.00    +0.121 C 
ATOM      5  C   UNL     1       5.003  -4.295   6.447  0.00  0.00    +0.100 C 
ATOM      6  C   UNL     1       5.885  -3.395   7.329  0.00  0.00    -0.004 C 
ATOM      7  C   UNL     1       5.084  -2.099   7.522  0.00  0.00    +0.115 C 
ATOM      8  C   UNL     1       7.204  -3.093   6.625  0.00  0.00    -0.010 C 
ATOM      9  C   UNL     1       8.085  -2.244   7.544  0.00  0.00    -0.082 C 
ATOM     10  N   UNL     1       8.332  -2.970   8.796  0.00  0.00    +0.379 N 
ATOM     11  C   UNL     1       7.067  -3.175   9.513  0.00  0.00    -0.082 C 
ATOM     12  C   UNL     1       6.142  -4.064   8.676  0.00  0.00    -0.010 C 
ATOM     13  H   UNL     1       8.748  -3.865   8.588  0.00  0.00    -0.086 HD
ATOM     14  H   UNL     1       8.962  -2.436   9.375  0.00  0.00    -0.086 HD
ENDROOT
BRANCH   1  16
ATOM     15  C   UNL     1       2.938  -0.459   3.348  0.00  0.00    +0.109 A 
ATOM     16  C   UNL     1       2.776  -1.120   4.579  0.00  0.00    +0.069 A 
ATOM     17  C   UNL     1       1.639  -1.911   4.775  0.00  0.00    +0.017 A 
ATOM     18  C   UNL     1       0.721  -2.009   3.745  0.00  0.00    +0.020 A 
ATOM     19  C   UNL     1       0.948  -1.330   2.562  0.00  0.00    +0.112 A 
ATOM     20  N   UNL     1       2.024  -0.584   2.397  0.00  0.00    -0.248 NA
BRANCH  15  21
ATOM     21  S   UNL     1       4.359   0.545   3.071  0.00  0.00    -0.105 S 
BRANCH  21  23
ATOM     22  C   UNL     1       5.307   2.079   1.015  0.00  0.00    +0.015 C 
ATOM     23  C   UNL     1       4.127   1.179   1.388  0.00  0.00    +0.072 C 
ENDBRANCH  21  23
ENDBRANCH  15  21
ENDBRANCH   1  16
BRANCH   5  24
ATOM     24  C   UNL     1       4.658  -5.570   7.174  0.00  0.00    +0.218 C 
ATOM     25  O   UNL     1       3.694  -5.607   7.909  0.00  0.00    -0.275 OA
ATOM     26  N   UNL     1       5.421  -6.668   7.007  0.00  0.00    -0.313 N 
ATOM     27  H   UNL     1       6.192  -6.639   6.419  0.00  0.00    +0.149 HD
BRANCH  26  28
ATOM     28  C   UNL     1       5.086  -7.907   7.713  0.00  0.00    +0.127 C 
BRANCH  28  29
ATOM     29  C   UNL     1       6.102  -8.992   7.352  0.00  0.00    +0.104 C 
BRANCH  29  30
ATOM     30  C   UNL     1       5.689 -10.298   7.980  0.00  0.00    -0.029 A 
ATOM     31  C   UNL     1       6.614 -11.055   8.674  0.00  0.00    +0.005 A 
ATOM     32  C   UNL     1       6.235 -12.252   9.250  0.00  0.00    +0.000 A 
ATOM     33  C   UNL     1       4.930 -12.693   9.133  0.00  0.00    +0.000 A 
ATOM     34  C   UNL     1       4.004 -11.936   8.440  0.00  0.00    +0.000 A 
ATOM     35  C   UNL     1       4.383 -10.736   7.867  0.00  0.00    +0.005 A 
ENDBRANCH  29  30
BRANCH  29  36
ATOM     36  N   UNL     1       6.155  -9.146   5.892  0.00  0.00    -0.290 NA
ATOM     37  C   UNL     1       4.884  -9.669   5.371  0.00  0.00    +0.113 C 
ATOM     38  C   UNL     1       4.962  -9.757   3.844  0.00  0.00    +0.175 C 
ATOM     39  O   UNL     1       6.075 -10.575   3.475  0.00  0.00    -0.377 OA
ATOM     40  C   UNL     1       7.330 -10.095   3.966  0.00  0.00    +0.175 C 
ATOM     41  C   UNL     1       7.276 -10.010   5.493  0.00  0.00    +0.113 C 
ENDBRANCH  29  36
ENDBRANCH  28  29
ENDBRANCH  26  28
ENDBRANCH   5  24
TORSDOF 8
