REMARK  Name = ZINC67649765
REMARK  8 active torsions:
REMARK  status: ('A' for Active; 'I' for Inactive)
REMARK    1  A    between atoms: C_4  and  C_7
REMARK    2  A    between atoms: C_8  and  C_9
REMARK    3  A    between atoms: C_9  and  N_10
REMARK    4  A    between atoms: C_16  and  C_18
REMARK    5  A    between atoms: C_18  and  C_19
REMARK    6  A    between atoms: N_21  and  C_22
REMARK    7  A    between atoms: C_22  and  C_23
REMARK    8  A    between atoms: C_23  and  C_24
REMARK                            x       y       z     vdW  Elec       q    Type
REMARK                         _______ _______ _______ _____ _____    ______ ____
ROOT
ATOM      1  N   UNL     1       5.180  -4.166   1.510  0.00  0.00    -0.286 NA
ATOM      2  C   UNL     1       4.350  -5.381   1.479  0.00  0.00    +0.104 C 
ATOM      3  C   UNL     1       4.712  -6.254   2.682  0.00  0.00    +0.119 C 
ATOM      4  N   UNL     1       6.159  -6.434   2.752  0.00  0.00    -0.313 N 
ATOM      5  C   UNL     1       7.023  -5.637   2.113  0.00  0.00    +0.231 C 
ATOM      6  O   UNL     1       8.211  -5.839   2.251  0.00  0.00    -0.274 OA
ATOM      7  C   UNL     1       6.582  -4.503   1.231  0.00  0.00    +0.152 C 
ATOM      8  H   UNL     1       6.510  -7.163   3.287  0.00  0.00    +0.149 HD
ENDROOT
BRANCH   1   9
ATOM      9  C   UNL     1       4.681  -3.163   0.559  0.00  0.00    +0.112 C 
BRANCH   9  11
ATOM     10  C   UNL     1       3.298  -1.248   1.228  0.00  0.00    +0.005 C 
ATOM     11  C   UNL     1       3.404  -2.562   1.087  0.00  0.00    -0.011 C 
BRANCH  10  15
ATOM     12  C   UNL     1      -0.303   0.444   2.715  0.00  0.00    +0.000 A 
ATOM     13  C   UNL     1       0.757   1.267   2.379  0.00  0.00    +0.001 A 
ATOM     14  C   UNL     1       1.930   0.723   1.895  0.00  0.00    +0.008 A 
ATOM     15  C   UNL     1       2.045  -0.659   1.746  0.00  0.00    -0.025 A 
ATOM     16  C   UNL     1       0.972  -1.484   2.087  0.00  0.00    +0.008 A 
ATOM     17  C   UNL     1      -0.196  -0.928   2.569  0.00  0.00    +0.001 A 
ENDBRANCH  10  15
ENDBRANCH   9  11
ENDBRANCH   1   9
BRANCH   7  18
ATOM     18  C   UNL     1       7.462  -3.280   1.500  0.00  0.00    +0.124 C 
BRANCH  18  19
ATOM     19  C   UNL     1       7.268  -2.825   2.924  0.00  0.00    +0.215 C 
ATOM     20  O   UNL     1       6.431  -3.356   3.621  0.00  0.00    -0.276 OA
ATOM     21  N   UNL     1       8.026  -1.827   3.421  0.00  0.00    -0.315 N 
ATOM     22  H   UNL     1       8.696  -1.403   2.863  0.00  0.00    +0.149 HD
BRANCH  21  23
ATOM     23  C   UNL     1       7.837  -1.385   4.805  0.00  0.00    +0.109 C 
BRANCH  23  24
ATOM     24  C   UNL     1       8.815  -0.250   5.115  0.00  0.00    +0.056 C 
BRANCH  24  25
ATOM     25  C   UNL     1       8.621   0.205   6.538  0.00  0.00    -0.021 A 
ATOM     26  C   UNL     1       7.852   1.225   6.953  0.00  0.00    +0.087 A 
ATOM     27  N   UNL     1       7.924   1.339   8.315  0.00  0.00    -0.360 N 
ATOM     28  H   UNL     1       7.455   2.003   8.844  0.00  0.00    +0.165 HD
ATOM     29  C   UNL     1       8.762   0.372   8.822  0.00  0.00    +0.047 A 
ATOM     30  C   UNL     1       9.231  -0.385   7.733  0.00  0.00    +0.003 A 
ATOM     31  C   UNL     1      10.104  -1.452   7.950  0.00  0.00    +0.010 A 
ATOM     32  C   UNL     1      10.498  -1.758   9.222  0.00  0.00    +0.001 A 
ATOM     33  C   UNL     1      10.036  -1.017  10.301  0.00  0.00    +0.002 A 
ATOM     34  C   UNL     1       9.180   0.046  10.108  0.00  0.00    +0.026 A 
ENDBRANCH  24  25
ENDBRANCH  23  24
ENDBRANCH  21  23
ENDBRANCH  18  19
ENDBRANCH   7  18
TORSDOF 8
