REMARK  Name = ZINC39686157
REMARK  7 active torsions:
REMARK  status: ('A' for Active; 'I' for Inactive)
REMARK    1  A    between atoms: C_1  and  C_2
REMARK    2  A    between atoms: C_2  and  C_3
REMARK    3  A    between atoms: C_2  and  C_4
REMARK    4  A    between atoms: C_4  and  C_5
REMARK    5  A    between atoms: C_10  and  N_13
REMARK    6  A    between atoms: C_14  and  C_16
REMARK    7  A    between atoms: C_27  and  C_29
REMARK                            x       y       z     vdW  Elec       q    Type
REMARK                         _______ _______ _______ _____ _____    ______ ____
ROOT
ATOM      1  C   UNL     1       7.656  -3.635  -4.911  0.00  0.00    +0.100 C 
ATOM      2  C   UNL     1       6.939  -4.835  -5.569  0.00  0.00    +0.121 C 
ATOM      3  N   UNL     1       7.391  -4.813  -6.980  0.00  0.00    -0.296 N 
ATOM      4  C   UNL     1       8.826  -4.450  -6.901  0.00  0.00    +0.115 C 
ATOM      5  C   UNL     1       8.896  -3.388  -5.786  0.00  0.00    -0.004 C 
ATOM      6  C   UNL     1      10.168  -3.569  -4.963  0.00  0.00    -0.010 C 
ATOM      7  C   UNL     1      11.386  -3.261  -5.840  0.00  0.00    -0.082 C 
ATOM      8  N   UNL     1      11.295  -1.884  -6.340  0.00  0.00    +0.379 N 
ATOM      9  C   UNL     1      10.118  -1.743  -7.207  0.00  0.00    -0.082 C 
ATOM     10  C   UNL     1       8.847  -1.987  -6.388  0.00  0.00    -0.010 C 
ATOM     11  C   UNL     1       6.663  -5.068  -8.085  0.00  0.00    +0.249 C 
ATOM     12  O   UNL     1       7.202  -5.102  -9.174  0.00  0.00    -0.270 OA
ATOM     13  H   UNL     1      11.215  -1.249  -5.561  0.00  0.00    -0.086 HD
ATOM     14  H   UNL     1      12.127  -1.664  -6.867  0.00  0.00    -0.086 HD
ENDROOT
BRANCH  11  15
ATOM     15  C   UNL     1       5.209  -5.305  -7.973  0.00  0.00    +0.072 A 
ATOM     16  C   UNL     1       4.691  -5.971  -6.860  0.00  0.00    +0.016 A 
ATOM     17  C   UNL     1       3.333  -6.189  -6.761  0.00  0.00    +0.001 A 
ATOM     18  C   UNL     1       2.482  -5.750  -7.762  0.00  0.00    +0.003 A 
ATOM     19  C   UNL     1       2.986  -5.090  -8.867  0.00  0.00    +0.039 A 
ATOM     20  C   UNL     1       4.345  -4.859  -8.977  0.00  0.00    +0.135 A 
ATOM     21  F   UNL     1       4.836  -4.209 -10.055  0.00  0.00    -0.205 F 
ENDBRANCH  11  15
BRANCH   1  23
ATOM     22  N   UNL     1       6.903  -1.478  -3.963  0.00  0.00    -0.312 N 
ATOM     23  C   UNL     1       6.761  -2.422  -4.914  0.00  0.00    +0.218 C 
ATOM     24  O   UNL     1       5.914  -2.296  -5.773  0.00  0.00    -0.275 OA
ATOM     25  H   UNL     1       7.581  -1.579  -3.276  0.00  0.00    +0.149 HD
BRANCH  22  31
ATOM     26  C   UNL     1       5.705   3.726  -3.215  0.00  0.00    +0.216 C 
ATOM     27  O   UNL     1       6.091   4.513  -4.053  0.00  0.00    -0.276 OA
ATOM     28  N   UNL     1       5.472   2.442  -3.552  0.00  0.00    -0.301 N 
ATOM     29  C   UNL     1       4.999   1.479  -2.549  0.00  0.00    +0.109 C 
ATOM     30  C   UNL     1       5.936   0.267  -2.548  0.00  0.00    +0.041 C 
ATOM     31  C   UNL     1       6.033  -0.299  -3.966  0.00  0.00    +0.076 C 
ATOM     32  C   UNL     1       6.616   0.762  -4.902  0.00  0.00    +0.041 C 
ATOM     33  C   UNL     1       5.681   1.981  -4.931  0.00  0.00    +0.109 C 
BRANCH  26  34
ATOM     34  C   UNL     1       5.486   4.184  -1.796  0.00  0.00    +0.099 C 
BRANCH  34  36
ATOM     35  C   UNL     1       4.834   6.483  -2.526  0.00  0.00    +0.008 C 
ATOM     36  C   UNL     1       5.821   5.673  -1.683  0.00  0.00    -0.008 C 
ATOM     37  C   UNL     1       5.719   6.109  -0.220  0.00  0.00    +0.008 C 
ENDBRANCH  34  36
ENDBRANCH  26  34
ENDBRANCH  22  31
ENDBRANCH   1  23
TORSDOF 5
