REMARK  Name = ZINC32818915
REMARK  6 active torsions:
REMARK  status: ('A' for Active; 'I' for Inactive)
REMARK    1  A    between atoms: C_1  and  C_2
REMARK    2  A    between atoms: C_2  and  C_9
REMARK    3  A    between atoms: C_12  and  N_15
REMARK    4  A    between atoms: N_15  and  S_16
REMARK    5  A    between atoms: S_16  and  C_19
REMARK    6  A    between atoms: C_20  and  C_21
REMARK                            x       y       z     vdW  Elec       q    Type
REMARK                         _______ _______ _______ _____ _____    ______ ____
ROOT
ATOM      1  C   UNL     1      -0.554   4.235   0.105  0.00  0.00    -0.015 A 
ATOM      2  C   UNL     1       0.708   3.682  -0.019  0.00  0.00    +0.008 A 
ATOM      3  C   UNL     1       0.863   2.311  -0.052  0.00  0.00    +0.025 A 
ATOM      4  C   UNL     1      -0.250   1.485   0.041  0.00  0.00    +0.048 A 
ATOM      5  C   UNL     1      -1.517   2.043   0.160  0.00  0.00    +0.025 A 
ATOM      6  C   UNL     1      -1.664   3.416   0.197  0.00  0.00    +0.008 A 
ENDROOT
BRANCH   1   8
ATOM      7  C   UNL     1      -0.628   6.249   1.577  0.00  0.00    +0.047 C 
ATOM      8  C   UNL     1      -0.719   5.732   0.140  0.00  0.00    +0.135 C 
ATOM      9  C   UNL     1      -2.036   6.138  -0.491  0.00  0.00    +0.248 C 
ATOM     10  O   UNL     1      -3.150   5.831  -0.123  0.00  0.00    -0.273 OA
ATOM     11  N   UNL     1      -1.712   6.911  -1.546  0.00  0.00    -0.238 N 
ATOM     12  C   UNL     1      -0.386   7.049  -1.669  0.00  0.00    +0.307 C 
ATOM     13  O   UNL     1       0.147   7.700  -2.545  0.00  0.00    -0.252 OA
ATOM     14  N   UNL     1       0.292   6.385  -0.710  0.00  0.00    -0.282 N 
ATOM     15  H   UNL     1      -2.503   7.339  -2.179  0.00  0.00    +0.159 HD
ATOM     16  H   UNL     1       1.362   6.264  -0.484  0.00  0.00    +0.152 HD
ENDBRANCH   1   8
BRANCH   4  17
ATOM     17  N   UNL     1      -0.097   0.097   0.008  0.00  0.00    -0.217 N 
ATOM     18  H   UNL     1       0.555  -0.367  -0.747  0.00  0.00    +0.174 HD
BRANCH  17  19
ATOM     19  S   UNL     1      -0.898  -0.850   1.105  0.00  0.00    +0.066 S 
ATOM     20  O   UNL     1      -2.269  -0.483   1.034  0.00  0.00    -0.151 OA
ATOM     21  O   UNL     1      -0.454  -2.183   0.890  0.00  0.00    -0.151 OA
BRANCH  19  22
ATOM     22  C   UNL     1      -0.333  -0.383   2.707  0.00  0.00    +0.157 C 
ATOM     23  C   UNL     1      -1.171   0.175   3.569  0.00  0.00    +0.028 C 
BRANCH  23  24
ATOM     24  C   UNL     1      -0.697   0.567   4.913  0.00  0.00    -0.024 A 
ATOM     25  C   UNL     1       0.631   0.346   5.280  0.00  0.00    +0.008 A 
ATOM     26  C   UNL     1       1.068   0.719   6.534  0.00  0.00    +0.001 A 
ATOM     27  C   UNL     1       0.191   1.301   7.431  0.00  0.00    +0.000 A 
ATOM     28  C   UNL     1      -1.129   1.518   7.075  0.00  0.00    +0.001 A 
ATOM     29  C   UNL     1      -1.577   1.155   5.822  0.00  0.00    +0.008 A 
ENDBRANCH  23  24
ENDBRANCH  19  22
ENDBRANCH  17  19
ENDBRANCH   4  17
TORSDOF 5
