REMARK  Name = ZINC33890711
REMARK  9 active torsions:
REMARK  status: ('A' for Active; 'I' for Inactive)
REMARK    1  A    between atoms: C_1  and  C_2
REMARK    2  A    between atoms: C_2  and  O_3
REMARK    3  A    between atoms: O_3  and  C_4
REMARK    4  A    between atoms: C_14  and  O_31
REMARK    5  A    between atoms: C_16  and  C_19
REMARK    6  A    between atoms: C_21  and  N_28
REMARK    7  A    between atoms: C_22  and  O_27
REMARK    8  A    between atoms: C_23  and  O_25
REMARK    9  A    between atoms: O_25  and  C_26
REMARK                            x       y       z     vdW  Elec       q    Type
REMARK                         _______ _______ _______ _____ _____    ______ ____
ROOT
ATOM      1  C   UNL     1      -1.497  -1.836   0.006  0.00  0.00    +0.403 C 
ATOM      2  O   UNL     1      -0.523  -2.563  -0.007  0.00  0.00    -0.226 OA
ATOM      3  N   UNL     1      -2.735  -2.368   0.015  0.00  0.00    -0.262 N 
ATOM      4  C   UNL     1      -2.939  -3.824   0.016  0.00  0.00    +0.116 C 
ATOM      5  C   UNL     1      -3.619  -4.247   1.320  0.00  0.00    +0.056 C 
ATOM      6  C   UNL     1      -4.802  -3.329   1.588  0.00  0.00    -0.020 A 
ATOM      7  C   UNL     1      -4.905  -2.118   0.994  0.00  0.00    +0.013 A 
ATOM      8  S   UNL     1      -6.418  -1.434   1.610  0.00  0.00    -0.076 S 
ATOM      9  C   UNL     1      -6.895  -2.675   2.601  0.00  0.00    +0.080 A 
ATOM     10  C   UNL     1      -5.902  -3.654   2.480  0.00  0.00    +0.068 A 
ATOM     11  C   UNL     1      -6.076  -4.907   3.259  0.00  0.00    +0.220 C 
ATOM     12  N   UNL     1      -6.994  -4.920   4.187  0.00  0.00    -0.223 NA
ATOM     13  C   UNL     1      -7.816  -3.774   4.553  0.00  0.00    +0.224 C 
ATOM     14  N   UNL     1      -7.987  -2.844   3.422  0.00  0.00    -0.313 N 
ATOM     15  C   UNL     1      -3.937  -1.510   0.032  0.00  0.00    +0.153 C 
ATOM     16  H   UNL     1      -8.823  -2.378   3.264  0.00  0.00    +0.149 HD
ENDROOT
BRANCH  13  17
ATOM     17  C   UNL     1      -7.158  -3.042   5.694  0.00  0.00    +0.000 A 
ATOM     18  C   UNL     1      -7.336  -1.678   5.833  0.00  0.00    +0.044 A 
ATOM     19  C   UNL     1      -6.734  -1.001   6.878  0.00  0.00    +0.171 A 
ATOM     20  C   UNL     1      -5.951  -1.690   7.789  0.00  0.00    +0.189 A 
ATOM     21  C   UNL     1      -5.771  -3.063   7.649  0.00  0.00    +0.164 A 
ATOM     22  C   UNL     1      -6.381  -3.736   6.603  0.00  0.00    +0.057 A 
BRANCH  19  23
ATOM     23  N   UNL     1      -6.927   0.459   7.022  0.00  0.00    +0.060 N 
ATOM     24  O   UNL     1      -7.611   1.060   6.227  0.00  0.00    -0.126 OA
ATOM     25  O   UNL     1      -6.401   1.051   7.936  0.00  0.00    -0.126 OA
ENDBRANCH  19  23
BRANCH  21  26
ATOM     26  O   UNL     1      -5.003  -3.744   8.541  0.00  0.00    -0.491 OA
ATOM     27  C   UNL     1      -4.863  -5.152   8.336  0.00  0.00    +0.277 C 
ENDBRANCH  21  26
BRANCH  20  28
ATOM     28  O   UNL     1      -5.357  -1.027   8.817  0.00  0.00    -0.502 OA
ATOM     29  H   UNL     1      -5.898  -0.978   9.618  0.00  0.00    +0.292 HD
ENDBRANCH  20  28
ENDBRANCH  13  17
BRANCH  11  30
ATOM     30  O   UNL     1      -5.309  -5.995   3.016  0.00  0.00    -0.492 OA
ATOM     31  H   UNL     1      -5.510  -6.752   3.583  0.00  0.00    +0.294 HD
ENDBRANCH  11  30
BRANCH   1  32
ATOM     32  O   UNL     1      -1.339  -0.499   0.012  0.00  0.00    -0.451 OA
BRANCH  32  34
ATOM     33  C   UNL     1      -0.019   1.526   0.010  0.00  0.00    +0.048 C 
ATOM     34  C   UNL     1       0.002  -0.004   0.002  0.00  0.00    +0.230 C 
ENDBRANCH  32  34
ENDBRANCH   1  32
TORSDOF 7
