REMARK  Name = ZINC10039652
REMARK  8 active torsions:
REMARK  status: ('A' for Active; 'I' for Inactive)
REMARK    1  A    between atoms: C_1  and  C_2
REMARK    2  A    between atoms: C_2  and  C_3
REMARK    3  A    between atoms: C_2  and  C_4
REMARK    4  A    between atoms: C_4  and  C_6
REMARK    5  A    between atoms: C_4  and  N_18
REMARK    6  A    between atoms: N_8  and  N_9
REMARK    7  A    between atoms: C_10  and  C_11
REMARK    8  A    between atoms: C_19  and  C_21
REMARK                            x       y       z     vdW  Elec       q    Type
REMARK                         _______ _______ _______ _____ _____    ______ ____
ROOT
ATOM      1  C   UNL     1      -0.812   2.130   1.190  0.00  0.00    +0.163 C 
ENDROOT
BRANCH   1   2
ATOM      2  C   UNL     1      -2.147   1.449   1.353  0.00  0.00    +0.253 C 
ATOM      3  O   UNL     1      -3.164   2.109   1.389  0.00  0.00    -0.272 OA
ATOM      4  N   UNL     1      -2.210   0.107   1.460  0.00  0.00    -0.205 N 
ATOM      5  H   UNL     1      -1.406  -0.426   1.359  0.00  0.00    +0.177 HD
BRANCH   4   6
ATOM      6  N   UNL     1      -3.438  -0.518   1.716  0.00  0.00    -0.185 NA
ATOM      7  C   UNL     1      -3.482  -1.801   1.931  0.00  0.00    +0.176 C 
BRANCH   7   8
ATOM      8  C   UNL     1      -2.239  -2.566   2.058  0.00  0.00    +0.150 A 
ATOM      9  C   UNL     1      -2.140  -3.924   2.163  0.00  0.00    +0.067 A 
ATOM     10  C   UNL     1      -0.769  -4.224   2.259  0.00  0.00    +0.071 A 
ATOM     11  C   UNL     1      -0.102  -3.050   2.219  0.00  0.00    +0.185 A 
ATOM     12  O   UNL     1      -0.993  -2.052   2.097  0.00  0.00    -0.446 OA
ATOM     13 BR   UNL     1       1.775  -2.845   2.316  0.00  0.00    -0.007 Br
ATOM     14 BR   UNL     1      -0.005  -5.946   2.423  0.00  0.00    -0.046 Br
ENDBRANCH   7   8
ENDBRANCH   4   6
ENDBRANCH   1   2
BRANCH   1  15
ATOM     15  N   UNL     1      -0.932   3.538   1.574  0.00  0.00    -0.300 N 
ATOM     16  C   UNL     1       0.153   4.217   1.996  0.00  0.00    +0.245 C 
ATOM     17  O   UNL     1       1.232   3.660   2.058  0.00  0.00    -0.270 OA
ATOM     18  H   UNL     1      -1.793   3.983   1.524  0.00  0.00    +0.150 HD
BRANCH  16  19
ATOM     19  C   UNL     1       0.033   5.638   2.382  0.00  0.00    +0.037 A 
ATOM     20  C   UNL     1      -1.204   6.282   2.307  0.00  0.00    +0.014 A 
ATOM     21  C   UNL     1      -1.312   7.606   2.675  0.00  0.00    +0.021 A 
ATOM     22  C   UNL     1      -0.195   8.301   3.108  0.00  0.00    +0.041 A 
ATOM     23  C   UNL     1       1.036   7.669   3.180  0.00  0.00    +0.021 A 
ATOM     24  C   UNL     1       1.155   6.343   2.820  0.00  0.00    +0.014 A 
ATOM     25 CL   UNL     1      -0.337   9.970   3.563  0.00  0.00    -0.084 Cl
ENDBRANCH  16  19
ENDBRANCH   1  15
BRANCH   1  27
ATOM     26  C   UNL     1       1.035   2.631  -0.416  0.00  0.00    +0.009 C 
ATOM     27  C   UNL     1      -0.366   2.035  -0.271  0.00  0.00    +0.012 C 
ATOM     28  C   UNL     1      -1.345   2.812  -1.154  0.00  0.00    +0.009 C 
ENDBRANCH   1  27
TORSDOF 6
