REMARK  Name = ZINC06753017
REMARK  9 active torsions:
REMARK  status: ('A' for Active; 'I' for Inactive)
REMARK    1  A    between atoms: C_1  and  C_2
REMARK    2  A    between atoms: C_2  and  O_3
REMARK    3  A    between atoms: O_3  and  C_4
REMARK    4  A    between atoms: C_7  and  C_10
REMARK    5  A    between atoms: C_13  and  C_24
REMARK    6  A    between atoms: N_20  and  C_21
REMARK    7  A    between atoms: C_21  and  C_22
REMARK    8  A    between atoms: C_22  and  O_23
REMARK    9  A    between atoms: C_29  and  O_30
REMARK                            x       y       z     vdW  Elec       q    Type
REMARK                         _______ _______ _______ _____ _____    ______ ____
ROOT
ATOM      1  C   UNL     1       0.926  -6.033  -1.856  0.00  0.00    +0.141 C 
ATOM      2  C   UNL     1       2.304  -6.404  -1.378  0.00  0.00    +0.035 A 
ATOM      3  C   UNL     1       3.208  -6.457  -0.312  0.00  0.00    +0.102 A 
ATOM      4  N   UNL     1       4.330  -6.975  -0.771  0.00  0.00    -0.173 NA
ATOM      5  N   UNL     1       4.223  -7.255  -2.022  0.00  0.00    -0.272 N 
ATOM      6  H   UNL     1       4.925  -7.645  -2.567  0.00  0.00    +0.189 HD
ATOM      7  C   UNL     1       2.976  -6.922  -2.468  0.00  0.00    +0.126 A 
ATOM      8  C   UNL     1       2.077  -6.895  -3.627  0.00  0.00    +0.266 C 
ATOM      9  O   UNL     1       2.370  -7.283  -4.742  0.00  0.00    -0.268 OA
ATOM     10  N   UNL     1       0.882  -6.380  -3.282  0.00  0.00    -0.283 N 
ENDROOT
BRANCH   1  14
ATOM     11  C   UNL     1       0.273  -1.841  -1.341  0.00  0.00    +0.121 A 
ATOM     12  C   UNL     1      -0.447  -2.755  -0.585  0.00  0.00    +0.046 A 
ATOM     13  C   UNL     1      -0.234  -4.109  -0.753  0.00  0.00    +0.009 A 
ATOM     14  C   UNL     1       0.696  -4.555  -1.675  0.00  0.00    -0.022 A 
ATOM     15  C   UNL     1       1.415  -3.646  -2.430  0.00  0.00    +0.009 A 
ATOM     16  C   UNL     1       1.201  -2.291  -2.269  0.00  0.00    +0.046 A 
BRANCH  11  17
ATOM     17  O   UNL     1       0.065  -0.508  -1.178  0.00  0.00    -0.492 OA
BRANCH  17  19
ATOM     18  C   UNL     1      -1.001   1.409  -0.163  0.00  0.00    +0.048 C 
ATOM     19  C   UNL     1      -0.906  -0.117  -0.205  0.00  0.00    +0.225 C 
ENDBRANCH  17  19
ENDBRANCH  11  17
ENDBRANCH   1  14
BRANCH   3  20
ATOM     20  C   UNL     1       2.951  -6.011   1.080  0.00  0.00    +0.044 A 
ATOM     21  C   UNL     1       1.676  -5.600   1.459  0.00  0.00    +0.014 A 
ATOM     22  C   UNL     1       1.442  -5.186   2.755  0.00  0.00    +0.001 A 
ATOM     23  C   UNL     1       2.472  -5.177   3.680  0.00  0.00    +0.004 A 
ATOM     24  C   UNL     1       3.741  -5.582   3.314  0.00  0.00    +0.046 A 
ATOM     25  C   UNL     1       3.988  -6.006   2.018  0.00  0.00    +0.126 A 
BRANCH  25  26
ATOM     26  O   UNL     1       5.234  -6.411   1.659  0.00  0.00    -0.506 OA
ATOM     27  H   UNL     1       5.798  -5.700   1.326  0.00  0.00    +0.292 HD
ENDBRANCH  25  26
ENDBRANCH   3  20
BRANCH  10  28
ATOM     28  C   UNL     1      -0.266  -6.197  -4.174  0.00  0.00    +0.137 C 
BRANCH  28  29
ATOM     29  C   UNL     1      -0.122  -4.872  -4.925  0.00  0.00    +0.175 C 
BRANCH  29  30
ATOM     30  O   UNL     1       1.013  -4.936  -5.791  0.00  0.00    -0.393 OA
ATOM     31  H   UNL     1       1.166  -4.128  -6.300  0.00  0.00    +0.209 HD
ENDBRANCH  29  30
ENDBRANCH  28  29
ENDBRANCH  10  28
TORSDOF 8
