REMARK  Name = ZINC09891825
REMARK  8 active torsions:
REMARK  status: ('A' for Active; 'I' for Inactive)
REMARK    1  A    between atoms: C_1  and  C_2
REMARK    2  A    between atoms: C_5  and  N_8
REMARK    3  A    between atoms: C_12  and  C_13
REMARK    4  A    between atoms: C_15  and  C_29
REMARK    5  A    between atoms: N_16  and  C_19
REMARK    6  A    between atoms: C_17  and  C_18
REMARK    7  A    between atoms: C_22  and  S_25
REMARK    8  A    between atoms: S_25  and  N_28
REMARK                            x       y       z     vdW  Elec       q    Type
REMARK                         _______ _______ _______ _____ _____    ______ ____
ROOT
ATOM      1  C   UNL     1       2.040   1.073   0.958  0.00  0.00    -0.003 A 
ATOM      2  C   UNL     1       1.435   0.321  -0.152  0.00  0.00    +0.031 A 
ATOM      3  C   UNL     1       0.109   0.504  -0.057  0.00  0.00    +0.022 A 
ATOM      4  N   UNL     1      -0.160   1.307   1.018  0.00  0.00    -0.317 N 
ATOM      5  C   UNL     1       0.982   1.659   1.638  0.00  0.00    +0.028 A 
ATOM      6  C   UNL     1       1.092   2.535   2.860  0.00  0.00    +0.064 C 
ATOM      7  C   UNL     1      -0.922  -0.081  -0.988  0.00  0.00    +0.064 C 
ENDROOT
BRANCH   1  12
ATOM      8  N   UNL     1       6.387  -1.014   1.419  0.00  0.00    -0.190 N 
ATOM      9  C   UNL     1       5.678   0.134   1.403  0.00  0.00    +0.263 C 
ATOM     10  O   UNL     1       6.234   1.213   1.480  0.00  0.00    -0.269 OA
ATOM     11  C   UNL     1       4.211   0.044   1.290  0.00  0.00    +0.100 C 
ATOM     12  C   UNL     1       3.417   1.179   1.267  0.00  0.00    +0.028 C 
ATOM     13  C   UNL     1       3.625  -1.307   1.208  0.00  0.00    +0.257 C 
ATOM     14  O   UNL     1       2.422  -1.462   1.117  0.00  0.00    -0.270 OA
ATOM     15  N   UNL     1       4.460  -2.366   1.231  0.00  0.00    -0.235 N 
ATOM     16  C   UNL     1       5.787  -2.209   1.336  0.00  0.00    +0.320 C 
ATOM     17  O   UNL     1       6.484  -3.205   1.356  0.00  0.00    -0.251 OA
ATOM     18  H   UNL     1       4.092  -3.261   1.174  0.00  0.00    +0.159 HD
BRANCH   8  23
ATOM     19  C   UNL     1      12.040  -0.770   1.853  0.00  0.00    +0.044 C 
ATOM     20  C   UNL     1      10.539  -0.836   1.738  0.00  0.00    -0.050 A 
ATOM     21  C   UNL     1       9.763  -0.931   2.878  0.00  0.00    +0.005 A 
ATOM     22  C   UNL     1       8.387  -0.990   2.776  0.00  0.00    +0.024 A 
ATOM     23  C   UNL     1       7.783  -0.954   1.526  0.00  0.00    +0.046 A 
ATOM     24  C   UNL     1       8.565  -0.865   0.383  0.00  0.00    +0.024 A 
ATOM     25  C   UNL     1       9.941  -0.800   0.492  0.00  0.00    +0.005 A 
ENDBRANCH   8  23
ENDBRANCH   1  12
BRANCH   4  26
ATOM     26  C   UNL     1      -1.442   1.711   1.413  0.00  0.00    +0.047 A 
ATOM     27  C   UNL     1      -1.794   3.053   1.363  0.00  0.00    +0.028 A 
ATOM     28  C   UNL     1      -3.060   3.448   1.748  0.00  0.00    +0.030 A 
ATOM     29  C   UNL     1      -3.973   2.510   2.194  0.00  0.00    +0.105 A 
ATOM     30  C   UNL     1      -3.624   1.173   2.249  0.00  0.00    +0.030 A 
ATOM     31  C   UNL     1      -2.361   0.771   1.860  0.00  0.00    +0.028 A 
BRANCH  29  32
ATOM     32  S   UNL     1      -5.585   3.018   2.691  0.00  0.00    +0.056 S 
ATOM     33  O   UNL     1      -5.845   4.249   2.029  0.00  0.00    -0.153 OA
ATOM     34  O   UNL     1      -6.431   1.884   2.549  0.00  0.00    -0.153 OA
BRANCH  32  35
ATOM     35  N   UNL     1      -5.515   3.356   4.310  0.00  0.00    -0.204 NA
ATOM     36  H   UNL     1      -6.102   4.028   4.691  0.00  0.00    +0.144 HD
ATOM     37  H   UNL     1      -4.886   2.883   4.877  0.00  0.00    +0.144 HD
ENDBRANCH  32  35
ENDBRANCH  29  32
ENDBRANCH   4  26
TORSDOF 5
