REMARK  Name = ZINC14471671
REMARK  6 active torsions:
REMARK  status: ('A' for Active; 'I' for Inactive)
REMARK    1  A    between atoms: C_1  and  O_2
REMARK    2  A    between atoms: O_2  and  C_3
REMARK    3  A    between atoms: C_6  and  O_28
REMARK    4  A    between atoms: C_16  and  C_19
REMARK    5  A    between atoms: C_23  and  N_25
REMARK    6  A    between atoms: O_28  and  C_29
REMARK                            x       y       z     vdW  Elec       q    Type
REMARK                         _______ _______ _______ _____ _____    ______ ____
ROOT
ATOM      1  C   UNL     1      -1.803   0.494  -0.599  0.00  0.00    +0.126 A 
ATOM      2  C   UNL     1      -2.755   0.643  -1.593  0.00  0.00    +0.049 A 
ATOM      3  C   UNL     1      -2.533   1.526  -2.634  0.00  0.00    +0.051 A 
ATOM      4  C   UNL     1      -1.368   2.280  -2.664  0.00  0.00    +0.141 A 
ATOM      5  C   UNL     1      -0.399   2.119  -1.669  0.00  0.00    +0.077 A 
ATOM      6  C   UNL     1      -0.618   1.225  -0.635  0.00  0.00    +0.026 A 
ATOM      7  C   UNL     1       0.370   1.018   0.475  0.00  0.00    +0.052 C 
ATOM      8  C   UNL     1      -0.117   1.640   1.764  0.00  0.00    -0.022 C 
ATOM      9  C   UNL     1       0.878   2.195   2.409  0.00  0.00    -0.030 C 
ATOM     10  C   UNL     1       2.175   2.016   1.645  0.00  0.00    +0.033 C 
ATOM     11  C   UNL     1       1.704   1.741   0.189  0.00  0.00    +0.029 C 
ATOM     12  C   UNL     1       1.406   3.090  -0.470  0.00  0.00    +0.105 C 
ATOM     13  N   UNL     1       0.777   2.866  -1.772  0.00  0.00    -0.334 N 
ATOM     14  H   UNL     1       0.609   3.741  -2.247  0.00  0.00    +0.147 HD
ENDROOT
BRANCH  12  15
ATOM     15  C   UNL     1       0.474   3.883   0.410  0.00  0.00    -0.025 A 
ATOM     16  C   UNL     1      -0.880   3.915   0.131  0.00  0.00    +0.005 A 
ATOM     17  C   UNL     1      -1.735   4.638   0.940  0.00  0.00    +0.003 A 
ATOM     18  C   UNL     1      -1.236   5.339   2.022  0.00  0.00    +0.033 A 
ATOM     19  C   UNL     1       0.119   5.311   2.298  0.00  0.00    +0.127 A 
ATOM     20  C   UNL     1       0.974   4.583   1.491  0.00  0.00    +0.038 A 
BRANCH  19  21
ATOM     21  N   UNL     1       0.653   6.062   3.456  0.00  0.00    +0.056 N 
ATOM     22  O   UNL     1       1.847   6.038   3.699  0.00  0.00    -0.126 OA
ATOM     23  O   UNL     1      -0.100   6.704   4.167  0.00  0.00    -0.126 OA
ENDBRANCH  19  21
ENDBRANCH  12  15
BRANCH   1  25
ATOM     24  C   UNL     1      -3.261  -1.097   0.401  0.00  0.00    +0.277 C 
ATOM     25  O   UNL     1      -2.027  -0.376   0.422  0.00  0.00    -0.495 OA
ENDBRANCH   1  25
BRANCH   4  26
ATOM     26  O   UNL     1      -1.147   3.148  -3.688  0.00  0.00    -0.493 OA
ATOM     27  C   UNL     1      -2.177   3.267  -4.672  0.00  0.00    +0.277 C 
ENDBRANCH   4  26
TORSDOF 4
