REMARK  Name = ZINC03021671
REMARK  5 active torsions:
REMARK  status: ('A' for Active; 'I' for Inactive)
REMARK    1  A    between atoms: C_6  and  C_7
REMARK    2  A    between atoms: C_7  and  C_9
REMARK    3  A    between atoms: C_9  and  S_10
REMARK    4  A    between atoms: S_10  and  C_11
REMARK    5  A    between atoms: N_21  and  C_22
REMARK                            x       y       z     vdW  Elec       q    Type
REMARK                         _______ _______ _______ _____ _____    ______ ____
ROOT
ATOM      1  C   UNL     1       3.775   6.729   0.001  0.00  0.00    +0.177 A 
ATOM      2  N   UNL     1       4.761   5.873  -0.007  0.00  0.00    -0.201 NA
ATOM      3  C   UNL     1       6.062   6.272  -0.022  0.00  0.00    +0.187 A 
ATOM      4  C   UNL     1       6.355   7.713  -0.017  0.00  0.00    +0.079 A 
ATOM      5  C   UNL     1       7.719   7.840  -0.028  0.00  0.00    +0.118 A 
ATOM      6  N   UNL     1       8.246   6.604  -0.040  0.00  0.00    -0.282 N 
ATOM      7  H   UNL     1       9.338   6.471  -0.050  0.00  0.00    +0.188 HD
ATOM      8  N   UNL     1       7.219   5.652  -0.035  0.00  0.00    -0.154 NA
ATOM      9  C   UNL     1       5.213   8.644  -0.002  0.00  0.00    +0.124 A 
ATOM     10  N   UNL     1       5.390   9.939   0.003  0.00  0.00    -0.384 N 
ATOM     11  N   UNL     1       3.943   8.088   0.006  0.00  0.00    -0.275 N 
ATOM     12  H   UNL     1       4.521  10.613   0.014  0.00  0.00    +0.157 HD
ATOM     13  H   UNL     1       6.409  10.355  -0.004  0.00  0.00    +0.157 HD
ENDROOT
BRANCH  11  14
ATOM     14  C   UNL     1       2.820   8.926   0.021  0.00  0.00    +0.050 A 
ATOM     15  C   UNL     1       2.560   9.758  -1.060  0.00  0.00    +0.027 A 
ATOM     16  C   UNL     1       1.449  10.579  -1.045  0.00  0.00    +0.017 A 
ATOM     17  C   UNL     1       0.603  10.581   0.049  0.00  0.00    +0.018 A 
ATOM     18  C   UNL     1       0.863   9.756   1.129  0.00  0.00    +0.017 A 
ATOM     19  C   UNL     1       1.969   8.929   1.118  0.00  0.00    +0.027 A 
ATOM     20 BR   UNL     1      -0.913  11.711   0.069  0.00  0.00    -0.050 Br
ENDBRANCH  11  14
BRANCH   1  21
ATOM     21  S   UNL     1       2.130   6.098   0.013  0.00  0.00    -0.079 S 
BRANCH  21  22
ATOM     22  C   UNL     1       2.474   4.321   0.001  0.00  0.00    +0.157 C 
BRANCH  22  23
ATOM     23  C   UNL     1       1.176   3.557   0.009  0.00  0.00    +0.173 C 
ATOM     24  O   UNL     1       0.121   4.155   0.022  0.00  0.00    -0.291 OA
BRANCH  23  30
ATOM     25  C   UNL     1      -0.017   1.374   0.010  0.00  0.00    +0.013 A 
ATOM     26  C   UNL     1       0.002  -0.004   0.002  0.00  0.00    +0.020 A 
ATOM     27  C   UNL     1       1.209  -0.684  -0.013  0.00  0.00    +0.041 A 
ATOM     28  C   UNL     1       2.406   0.015  -0.021  0.00  0.00    +0.020 A 
ATOM     29  C   UNL     1       2.402   1.393  -0.013  0.00  0.00    +0.013 A 
ATOM     30  C   UNL     1       1.187   2.086   0.002  0.00  0.00    +0.018 A 
ATOM     31 CL   UNL     1       1.223  -2.420  -0.022  0.00  0.00    -0.084 Cl
ENDBRANCH  23  30
ENDBRANCH  22  23
ENDBRANCH  21  22
ENDBRANCH   1  21
TORSDOF 5
