REMARK  Name = ZINC12293313
REMARK  3 active torsions:
REMARK  status: ('A' for Active; 'I' for Inactive)
REMARK    1  A    between atoms: C_4  and  S_22
REMARK    2  A    between atoms: C_14  and  C_16
REMARK    3  A    between atoms: S_22  and  N_25
REMARK                            x       y       z     vdW  Elec       q    Type
REMARK                         _______ _______ _______ _____ _____    ______ ____
ROOT
ATOM      1  C   UNL     1      -1.786   0.491   0.593  0.00  0.00    +0.001 A 
ATOM      2  C   UNL     1      -0.864   1.488   0.413  0.00  0.00    +0.010 A 
ATOM      3  C   UNL     1       0.496   1.148   0.324  0.00  0.00    +0.011 A 
ATOM      4  C   UNL     1       1.559   2.050   0.146  0.00  0.00    +0.113 A 
ATOM      5  C   UNL     1       2.831   1.553   0.074  0.00  0.00    +0.031 A 
ATOM      6  C   UNL     1       3.128   0.193   0.168  0.00  0.00    +0.026 A 
ATOM      7  C   UNL     1       2.111  -0.725   0.343  0.00  0.00    +0.053 A 
ATOM      8  C   UNL     1       0.822  -0.206   0.415  0.00  0.00    +0.018 A 
ATOM      9  C   UNL     1      -0.115  -1.235   0.593  0.00  0.00    +0.047 A 
ATOM     10  C   UNL     1      -1.444  -0.857   0.681  0.00  0.00    +0.014 A 
ATOM     11  C   UNL     1       0.693  -2.459   0.628  0.00  0.00    +0.258 C 
ATOM     12  O   UNL     1       0.270  -3.591   0.768  0.00  0.00    -0.269 OA
ATOM     13  N   UNL     1       1.997  -2.106   0.477  0.00  0.00    -0.202 N 
ATOM     14  C   UNL     1       3.032  -2.970   0.460  0.00  0.00    +0.258 C 
ATOM     15  O   UNL     1       3.345  -3.522  -0.576  0.00  0.00    -0.269 OA
ENDROOT
BRANCH  14  16
ATOM     16  C   UNL     1       3.786  -3.246   1.703  0.00  0.00    +0.041 A 
ATOM     17  C   UNL     1       3.514  -2.542   2.881  0.00  0.00    +0.033 A 
ATOM     18  C   UNL     1       4.239  -2.835   4.019  0.00  0.00    +0.111 A 
ATOM     19  N   UNL     1       5.181  -3.756   4.003  0.00  0.00    -0.263 NA
ATOM     20  C   UNL     1       5.474  -4.439   2.914  0.00  0.00    +0.111 A 
ATOM     21  C   UNL     1       4.795  -4.214   1.732  0.00  0.00    +0.033 A 
ENDBRANCH  14  16
BRANCH   4  22
ATOM     22  S   UNL     1       1.259   3.781   0.018  0.00  0.00    +0.062 S 
ATOM     23  O   UNL     1       2.520   4.396  -0.208  0.00  0.00    -0.153 OA
ATOM     24  O   UNL     1       0.163   3.939  -0.873  0.00  0.00    -0.153 OA
BRANCH  22  25
ATOM     25  N   UNL     1       0.739   4.299   1.503  0.00  0.00    -0.172 NA
ATOM     26  C   UNL     1      -0.693   4.487   1.781  0.00  0.00    +0.137 C 
ATOM     27  C   UNL     1      -1.030   3.744   3.084  0.00  0.00    +0.177 C 
ATOM     28  O   UNL     1      -0.124   4.162   4.109  0.00  0.00    -0.377 OA
ATOM     29  C   UNL     1       1.245   3.848   3.844  0.00  0.00    +0.177 C 
ATOM     30  C   UNL     1       1.697   4.590   2.581  0.00  0.00    +0.137 C 
ENDBRANCH  22  25
ENDBRANCH   4  22
TORSDOF 3
