REMARK  Name = ZINC13033520
REMARK  7 active torsions:
REMARK  status: ('A' for Active; 'I' for Inactive)
REMARK    1  A    between atoms: C_3  and  C_7
REMARK    2  A    between atoms: C_7  and  C_9
REMARK    3  A    between atoms: C_9  and  S_10
REMARK    4  A    between atoms: S_10  and  C_11
REMARK    5  A    between atoms: C_15  and  C_28
REMARK    6  A    between atoms: N_21  and  C_22
REMARK    7  A    between atoms: C_22  and  C_23
REMARK                            x       y       z     vdW  Elec       q    Type
REMARK                         _______ _______ _______ _____ _____    ______ ____
ROOT
ATOM      1  C   UNL     1       6.763  -1.958  -0.074  0.00  0.00    +0.173 A 
ATOM      2  N   UNL     1       5.962  -2.995  -0.077  0.00  0.00    -0.223 NA
ATOM      3  C   UNL     1       6.441  -4.261  -0.088  0.00  0.00    +0.080 A 
ATOM      4  C   UNL     1       5.584  -5.366  -0.092  0.00  0.00    +0.043 A 
ATOM      5  C   UNL     1       6.122  -6.647  -0.104  0.00  0.00    +0.065 A 
ATOM      6  C   UNL     1       7.511  -6.834  -0.113  0.00  0.00    +0.016 A 
ATOM      7  C   UNL     1       8.357  -5.763  -0.109  0.00  0.00    +0.016 A 
ATOM      8  C   UNL     1       7.839  -4.468  -0.098  0.00  0.00    +0.065 A 
ATOM      9  C   UNL     1       8.715  -3.285  -0.094  0.00  0.00    +0.263 A 
ATOM     10  O   UNL     1       9.927  -3.398  -0.102  0.00  0.00    -0.267 OA
ATOM     11  N   UNL     1       8.124  -2.068  -0.088  0.00  0.00    -0.280 N 
ENDROOT
BRANCH   5  12
ATOM     12  C   UNL     1       5.223  -7.820  -0.108  0.00  0.00    +0.387 C 
ATOM     13  O   UNL     1       4.011  -7.662  -0.100  0.00  0.00    -0.241 OA
ATOM     14  O   UNL     1       5.692  -8.950  -0.119  0.00  0.00    -0.241 OA
ENDBRANCH   5  12
BRANCH   1  15
ATOM     15  S   UNL     1       6.051  -0.346  -0.059  0.00  0.00    -0.080 S 
BRANCH  15  16
ATOM     16  C   UNL     1       4.263  -0.657  -0.043  0.00  0.00    +0.158 C 
BRANCH  16  17
ATOM     17  C   UNL     1       3.526   0.657  -0.029  0.00  0.00    +0.189 C 
ATOM     18  O   UNL     1       4.145   1.702  -0.029  0.00  0.00    -0.290 OA
BRANCH  17  21
ATOM     19  C   UNL     1      -0.016   1.352   0.009  0.00  0.00    +0.020 A 
ATOM     20  C   UNL     1       1.306   1.799  -0.001  0.00  0.00    +0.030 A 
ATOM     21  C   UNL     1       2.112   0.674  -0.015  0.00  0.00    +0.083 A 
ATOM     22  N   UNL     1       1.283  -0.427  -0.013  0.00  0.00    -0.358 N 
ATOM     23  H   UNL     1       1.572  -1.353  -0.020  0.00  0.00    +0.165 HD
ATOM     24  C   UNL     1       0.002  -0.004   0.002  0.00  0.00    +0.083 A 
ENDBRANCH  17  21
ENDBRANCH  16  17
ENDBRANCH  15  16
ENDBRANCH   1  15
BRANCH  11  25
ATOM     25  C   UNL     1       8.951  -0.859  -0.090  0.00  0.00    +0.201 C 
BRANCH  25  26
ATOM     26  C   UNL     1       9.248  -0.451   1.330  0.00  0.00    +0.125 A 
ATOM     27  C   UNL     1      10.307  -0.850   2.057  0.00  0.00    +0.046 A 
ATOM     28  C   UNL     1      10.191  -0.230   3.323  0.00  0.00    +0.041 A 
ATOM     29  C   UNL     1       9.068   0.510   3.293  0.00  0.00    +0.195 A 
ATOM     30  O   UNL     1       8.504   0.377   2.081  0.00  0.00    -0.466 OA
ENDBRANCH  25  26
ENDBRANCH  11  25
TORSDOF 7
