REMARK  Name = ZINC01404704
REMARK  7 active torsions:
REMARK  status: ('A' for Active; 'I' for Inactive)
REMARK    1  A    between atoms: C_1  and  C_2
REMARK    2  A    between atoms: C_2  and  O_3
REMARK    3  A    between atoms: O_3  and  C_4
REMARK    4  A    between atoms: C_7  and  C_10
REMARK    5  A    between atoms: N_18  and  C_30
REMARK    6  A    between atoms: C_19  and  C_21
REMARK    7  A    between atoms: C_24  and  N_27
REMARK                            x       y       z     vdW  Elec       q    Type
REMARK                         _______ _______ _______ _____ _____    ______ ____
ROOT
ATOM      1  C   UNL     1      -0.827   1.641   2.615  0.00  0.00    +0.099 A 
ATOM      2  C   UNL     1      -0.749   1.587   1.220  0.00  0.00    +0.035 A 
ATOM      3  C   UNL     1      -1.828   2.317   0.754  0.00  0.00    +0.127 A 
ATOM      4  N   UNL     1      -2.488   2.766   1.863  0.00  0.00    -0.272 N 
ATOM      5  H   UNL     1      -3.316   3.328   1.850  0.00  0.00    +0.189 HD
ATOM      6  N   UNL     1      -1.888   2.360   2.924  0.00  0.00    -0.173 NA
ATOM      7  C   UNL     1      -1.805   2.300  -0.712  0.00  0.00    +0.270 C 
ATOM      8  O   UNL     1      -2.620   2.853  -1.425  0.00  0.00    -0.268 OA
ATOM      9  N   UNL     1      -0.754   1.588  -1.156  0.00  0.00    -0.255 N 
ATOM     10  C   UNL     1      -0.013   1.086   0.008  0.00  0.00    +0.146 C 
ENDROOT
BRANCH   9  11
ATOM     11  C   UNL     1      -0.424   1.364  -2.497  0.00  0.00    +0.038 A 
ATOM     12  C   UNL     1       0.698   0.611  -2.821  0.00  0.00    +0.024 A 
ATOM     13  C   UNL     1       1.018   0.387  -4.145  0.00  0.00    +0.017 A 
ATOM     14  C   UNL     1       0.230   0.921  -5.149  0.00  0.00    +0.018 A 
ATOM     15  C   UNL     1      -0.885   1.675  -4.829  0.00  0.00    +0.017 A 
ATOM     16  C   UNL     1      -1.214   1.898  -3.507  0.00  0.00    +0.024 A 
ATOM     17 BR   UNL     1       0.676   0.618  -6.961  0.00  0.00    -0.050 Br
ENDBRANCH   9  11
BRANCH   1  21
ATOM     18  C   UNL     1       1.866  -0.183   5.357  0.00  0.00    +0.121 A 
ATOM     19  C   UNL     1       1.290   1.042   5.663  0.00  0.00    +0.046 A 
ATOM     20  C   UNL     1       0.417   1.636   4.776  0.00  0.00    +0.013 A 
ATOM     21  C   UNL     1       0.113   1.004   3.572  0.00  0.00    +0.003 A 
ATOM     22  C   UNL     1       0.688  -0.228   3.270  0.00  0.00    +0.013 A 
ATOM     23  C   UNL     1       1.564  -0.815   4.159  0.00  0.00    +0.046 A 
BRANCH  18  24
ATOM     24  O   UNL     1       2.726  -0.766   6.234  0.00  0.00    -0.492 OA
BRANCH  24  26
ATOM     25  C   UNL     1       4.219  -2.522   6.959  0.00  0.00    +0.048 C 
ATOM     26  C   UNL     1       3.282  -2.027   5.856  0.00  0.00    +0.225 C 
ENDBRANCH  24  26
ENDBRANCH  18  24
ENDBRANCH   1  21
BRANCH  10  27
ATOM     27  C   UNL     1       1.395   1.623  -0.003  0.00  0.00    -0.022 A 
ATOM     28  C   UNL     1       1.638   2.916  -0.426  0.00  0.00    +0.008 A 
ATOM     29  C   UNL     1       2.929   3.411  -0.431  0.00  0.00    +0.033 A 
ATOM     30  C   UNL     1       3.978   2.609  -0.023  0.00  0.00    +0.126 A 
ATOM     31  C   UNL     1       3.736   1.314   0.396  0.00  0.00    +0.033 A 
ATOM     32  C   UNL     1       2.444   0.821   0.406  0.00  0.00    +0.008 A 
BRANCH  30  33
ATOM     33  N   UNL     1       5.361   3.136  -0.034  0.00  0.00    +0.056 N 
ATOM     34  O   UNL     1       6.285   2.430   0.327  0.00  0.00    -0.126 OA
ATOM     35  O   UNL     1       5.575   4.277  -0.403  0.00  0.00    -0.126 OA
ENDBRANCH  30  33
ENDBRANCH  10  27
TORSDOF 6
