REMARK  Name = ZINC67098881
REMARK  5 active torsions:
REMARK  status: ('A' for Active; 'I' for Inactive)
REMARK    1  A    between atoms: C_3  and  C_13
REMARK    2  A    between atoms: N_14  and  O_15
REMARK    3  A    between atoms: O_15  and  C_16
REMARK    4  A    between atoms: C_16  and  C_17
REMARK    5  A    between atoms: C_19  and  C_22
REMARK                            x       y       z     vdW  Elec       q    Type
REMARK                         _______ _______ _______ _____ _____    ______ ____
ROOT
ATOM      1  C   UNL     1       3.728   2.135   0.099  0.00  0.00    +0.166 C 
ATOM      2  N   UNL     1       4.855   1.505   0.263  0.00  0.00    -0.069 NA
ATOM      3  N   UNL     1       3.718   3.515  -0.020  0.00  0.00    -0.340 N 
ATOM      4  H   UNL     1       2.878   3.985  -0.142  0.00  0.00    +0.144 HD
ATOM      5  H   UNL     1       4.550   4.011   0.019  0.00  0.00    +0.144 HD
ENDROOT
BRANCH   1   8
ATOM      6  C   UNL     1       1.074  -0.318  -0.914  0.00  0.00    +0.020 A 
ATOM      7  C   UNL     1       2.281   0.361  -0.900  0.00  0.00    +0.016 A 
ATOM      8  C   UNL     1       2.459   1.379   0.040  0.00  0.00    +0.058 A 
ATOM      9  C   UNL     1       1.412   1.670   0.928  0.00  0.00    +0.132 A 
ATOM     10  N   UNL     1       0.278   0.991   0.872  0.00  0.00    -0.240 NA
ATOM     11  C   UNL     1       0.089   0.026  -0.008  0.00  0.00    +0.113 A 
ATOM     12  N   UNL     1       1.566   2.676   1.869  0.00  0.00    -0.315 N 
ATOM     13  C   UNL     1       1.066   4.032   1.605  0.00  0.00    +0.106 C 
ATOM     14  C   UNL     1       0.156   4.456   2.762  0.00  0.00    +0.019 C 
ATOM     15  C   UNL     1       0.915   4.312   4.083  0.00  0.00    +0.003 C 
ATOM     16  C   UNL     1       1.310   2.848   4.290  0.00  0.00    +0.019 C 
ATOM     17  C   UNL     1       2.228   2.404   3.153  0.00  0.00    +0.106 C 
ENDBRANCH   1   8
BRANCH   2  18
ATOM     18  O   UNL     1       4.877   0.089   0.285  0.00  0.00    -0.384 OA
BRANCH  18  19
ATOM     19  C   UNL     1       6.190  -0.471   0.359  0.00  0.00    +0.342 C 
BRANCH  19  20
ATOM     20  C   UNL     1       6.103  -1.971   0.253  0.00  0.00    +0.212 A 
ATOM     21  N   UNL     1       5.868  -2.807   1.267  0.00  0.00    -0.188 NA
ATOM     22  C   UNL     1       5.855  -4.048   0.833  0.00  0.00    +0.259 A 
ATOM     23  O   UNL     1       6.086  -4.027  -0.492  0.00  0.00    -0.333 OA
ATOM     24  N   UNL     1       6.239  -2.660  -0.845  0.00  0.00    -0.057 NA
BRANCH  22  25
ATOM     25  C   UNL     1       5.628  -5.253   1.656  0.00  0.00    +0.040 A 
ATOM     26  C   UNL     1       5.393  -5.131   3.027  0.00  0.00    +0.016 A 
ATOM     27  C   UNL     1       5.182  -6.260   3.790  0.00  0.00    +0.039 A 
ATOM     28  C   UNL     1       5.201  -7.513   3.199  0.00  0.00    +0.123 A 
ATOM     29  C   UNL     1       5.434  -7.640   1.838  0.00  0.00    +0.039 A 
ATOM     30  C   UNL     1       5.641  -6.518   1.065  0.00  0.00    +0.016 A 
ATOM     31  F   UNL     1       4.993  -8.616   3.952  0.00  0.00    -0.205 F 
ENDBRANCH  22  25
ENDBRANCH  19  20
ENDBRANCH  18  19
ENDBRANCH   2  18
TORSDOF 5
