REMARK  Name = ZINC14711150
REMARK  3 active torsions:
REMARK  status: ('A' for Active; 'I' for Inactive)
REMARK    1  A    between atoms: C_7  and  C_11
REMARK    2  A    between atoms: C_17  and  C_19
REMARK    3  A    between atoms: C_24  and  N_25
REMARK                            x       y       z     vdW  Elec       q    Type
REMARK                         _______ _______ _______ _____ _____    ______ ____
ROOT
ATOM      1  C   UNL     1       0.974  -4.519   1.014  0.00  0.00    +0.082 A 
ATOM      2  C   UNL     1       1.266  -5.928   0.646  0.00  0.00    +0.077 A 
ATOM      3  S   UNL     1      -0.272  -6.530   0.325  0.00  0.00    -0.060 S 
ATOM      4  C   UNL     1      -1.215  -5.052   0.648  0.00  0.00    +0.165 A 
ATOM      5  N   UNL     1      -0.295  -4.167   0.994  0.00  0.00    -0.225 NA
ATOM      6  N   UNL     1      -2.566  -4.877   0.564  0.00  0.00    -0.261 N 
ATOM      7  C   UNL     1      -3.357  -5.905   0.196  0.00  0.00    +0.252 C 
ATOM      8  O   UNL     1      -2.868  -6.987  -0.060  0.00  0.00    -0.270 OA
ATOM      9  H   UNL     1      -2.957  -4.013   0.768  0.00  0.00    +0.157 HD
ENDROOT
BRANCH   1  16
ATOM     10  C   UNL     1       0.926  -0.048   2.284  0.00  0.00    +0.001 A 
ATOM     11  C   UNL     1       2.202   0.422   2.541  0.00  0.00    +0.002 A 
ATOM     12  C   UNL     1       3.301  -0.410   2.410  0.00  0.00    +0.026 A 
ATOM     13  C   UNL     1       3.132  -1.730   2.016  0.00  0.00    +0.047 A 
ATOM     14  C   UNL     1       1.837  -2.205   1.757  0.00  0.00    +0.009 A 
ATOM     15  C   UNL     1       0.737  -1.359   1.892  0.00  0.00    +0.010 A 
ATOM     16  C   UNL     1       1.988  -3.619   1.368  0.00  0.00    +0.026 A 
ATOM     17  C   UNL     1       3.431  -3.880   1.432  0.00  0.00    +0.093 A 
ATOM     18  N   UNL     1       4.040  -2.761   1.810  0.00  0.00    -0.360 N 
ATOM     19  H   UNL     1       5.000  -2.675   1.926  0.00  0.00    +0.165 HD
ENDBRANCH   1  16
BRANCH   7  20
ATOM     20  C   UNL     1      -4.820  -5.715   0.105  0.00  0.00    +0.067 A 
ATOM     21  C   UNL     1      -5.535  -5.238   1.205  0.00  0.00    +0.015 A 
ATOM     22  C   UNL     1      -6.900  -5.063   1.112  0.00  0.00    +0.001 A 
ATOM     23  C   UNL     1      -7.561  -5.359  -0.067  0.00  0.00    +0.002 A 
ATOM     24  C   UNL     1      -6.858  -5.832  -1.161  0.00  0.00    +0.033 A 
ATOM     25  C   UNL     1      -5.492  -6.007  -1.084  0.00  0.00    +0.138 A 
BRANCH  25  26
ATOM     26  N   UNL     1      -4.741  -6.508  -2.257  0.00  0.00    +0.057 N 
ATOM     27  O   UNL     1      -5.389  -6.920  -3.327  0.00  0.00    -0.126 OA
ATOM     28  O   UNL     1      -3.424  -6.542  -2.230  0.00  0.00    -0.126 OA
ENDBRANCH  25  26
ENDBRANCH   7  20
TORSDOF 3
