REMARK  Name = ZINC32806178
REMARK  6 active torsions:
REMARK  status: ('A' for Active; 'I' for Inactive)
REMARK    1  A    between atoms: C_1  and  C_2
REMARK    2  A    between atoms: C_2  and  C_4
REMARK    3  A    between atoms: C_2  and  N_16
REMARK    4  A    between atoms: N_6  and  C_7
REMARK    5  A    between atoms: C_12  and  N_13
REMARK    6  A    between atoms: C_19  and  N_22
REMARK                            x       y       z     vdW  Elec       q    Type
REMARK                         _______ _______ _______ _____ _____    ______ ____
ROOT
ATOM      1  N   UNL     1      -0.497   2.546  -1.718  0.00  0.00    +0.387 N 
ATOM      2  C   UNL     1      -0.450   1.210  -2.326  0.00  0.00    -0.076 C 
ATOM      3  C   UNL     1       0.525   0.327  -1.545  0.00  0.00    +0.006 C 
ATOM      4  C   UNL     1       0.064   0.229  -0.088  0.00  0.00    +0.089 C 
ATOM      5  C   UNL     1      -0.025   1.637   0.507  0.00  0.00    +0.006 C 
ATOM      6  C   UNL     1      -0.984   2.482  -0.334  0.00  0.00    -0.076 C 
ATOM      7  H   UNL     1       0.529   2.941  -1.694  0.00  0.00    -0.081 HD
ENDROOT
BRANCH   4   8
ATOM      8  N   UNL     1       1.026  -0.568   0.678  0.00  0.00    -0.289 N 
ATOM      9  C   UNL     1       0.747  -1.752   1.355  0.00  0.00    +0.070 A 
ATOM     10  C   UNL     1      -0.406  -2.504   1.522  0.00  0.00    +0.028 A 
ATOM     11  C   UNL     1      -0.368  -3.664   2.270  0.00  0.00    +0.002 A 
ATOM     12  C   UNL     1       0.817  -4.080   2.853  0.00  0.00    +0.002 A 
ATOM     13  C   UNL     1       1.971  -3.338   2.692  0.00  0.00    +0.028 A 
ATOM     14  C   UNL     1       1.942  -2.171   1.943  0.00  0.00    +0.067 A 
ATOM     15  N   UNL     1       2.910  -1.229   1.605  0.00  0.00    -0.306 N 
ATOM     16  H   UNL     1       3.943  -1.348   1.964  0.00  0.00    +0.170 HD
ATOM     17  C   UNL     1       2.331  -0.282   0.842  0.00  0.00    +0.328 A 
ATOM     18  O   UNL     1       2.901   0.686   0.374  0.00  0.00    -0.247 OA
ENDBRANCH   4   8
BRANCH   1  20
ATOM     19  C   UNL     1      -1.479   4.789  -1.779  0.00  0.00    -0.004 C 
ATOM     20  C   UNL     1      -1.317   3.462  -2.523  0.00  0.00    +0.016 C 
BRANCH  20  21
ATOM     21  C   UNL     1      -2.674   2.849  -2.756  0.00  0.00    +0.203 C 
ATOM     22  O   UNL     1      -3.092   1.996  -2.001  0.00  0.00    -0.277 OA
ATOM     23  N   UNL     1      -3.422   3.247  -3.804  0.00  0.00    -0.285 N 
ATOM     24  H   UNL     1      -3.010   3.957  -4.535  0.00  0.00    +0.155 HD
BRANCH  23  25
ATOM     25  C   UNL     1      -4.723   2.756  -3.961  0.00  0.00    +0.064 A 
ATOM     26  C   UNL     1      -5.503   2.482  -2.845  0.00  0.00    +0.025 A 
ATOM     27  C   UNL     1      -6.788   2.002  -3.003  0.00  0.00    +0.002 A 
ATOM     28  C   UNL     1      -7.295   1.785  -4.271  0.00  0.00    +0.002 A 
ATOM     29  C   UNL     1      -6.520   2.053  -5.384  0.00  0.00    +0.034 A 
ATOM     30  C   UNL     1      -5.236   2.538  -5.233  0.00  0.00    +0.147 A 
BRANCH  30  31
ATOM     31  N   UNL     1      -4.406   2.823  -6.425  0.00  0.00    +0.058 N 
ATOM     32  O   UNL     1      -4.887   2.724  -7.539  0.00  0.00    -0.126 OA
ATOM     33  O   UNL     1      -3.242   3.157  -6.291  0.00  0.00    -0.126 OA
ENDBRANCH  30  31
ENDBRANCH  23  25
ENDBRANCH  20  21
ENDBRANCH   1  20
TORSDOF 5
