REMARK  Name = ZINC06923514
REMARK  7 active torsions:
REMARK  status: ('A' for Active; 'I' for Inactive)
REMARK    1  A    between atoms: C_1  and  C_2
REMARK    2  A    between atoms: C_5  and  S_8
REMARK    3  A    between atoms: S_8  and  N_11
REMARK    4  A    between atoms: N_11  and  N_12
REMARK    5  A    between atoms: C_13  and  C_15
REMARK    6  A    between atoms: C_18  and  N_21
REMARK    7  A    between atoms: C_22  and  C_24
REMARK                            x       y       z     vdW  Elec       q    Type
REMARK                         _______ _______ _______ _____ _____    ______ ____
ROOT
ATOM      1  N   UNL     1       2.164  -2.547  -2.582  0.00  0.00    -0.228 N 
ATOM      2  C   UNL     1       2.976  -3.474  -3.128  0.00  0.00    +0.259 C 
ATOM      3  O   UNL     1       2.813  -4.651  -2.873  0.00  0.00    -0.269 OA
ATOM      4  H   UNL     1       2.312  -1.482  -2.813  0.00  0.00    +0.171 HD
ENDROOT
BRANCH   2   5
ATOM      5  C   UNL     1       4.064  -3.059  -4.034  0.00  0.00    +0.038 A 
ATOM      6  C   UNL     1       4.250  -1.707  -4.333  0.00  0.00    +0.015 A 
ATOM      7  C   UNL     1       5.270  -1.323  -5.174  0.00  0.00    +0.024 A 
ATOM      8  C   UNL     1       6.108  -2.281  -5.736  0.00  0.00    +0.034 A 
ATOM      9  C   UNL     1       5.922  -3.629  -5.446  0.00  0.00    +0.024 A 
ATOM     10  C   UNL     1       4.908  -4.019  -4.601  0.00  0.00    +0.015 A 
BRANCH   8  11
ATOM     11  N   UNL     1       7.136  -1.890  -6.592  0.00  0.00    -0.282 N 
ATOM     12  C   UNL     1       7.496  -2.684  -7.620  0.00  0.00    +0.248 C 
ATOM     13  O   UNL     1       6.863  -3.694  -7.859  0.00  0.00    -0.270 OA
ATOM     14  H   UNL     1       7.653  -0.933  -6.429  0.00  0.00    +0.155 HD
BRANCH  12  15
ATOM     15  C   UNL     1       8.661  -2.327  -8.457  0.00  0.00    +0.037 A 
ATOM     16  C   UNL     1       9.387  -1.165  -8.188  0.00  0.00    +0.013 A 
ATOM     17  C   UNL     1      10.477  -0.840  -8.970  0.00  0.00    +0.001 A 
ATOM     18  C   UNL     1      10.844  -1.657 -10.024  0.00  0.00    +0.000 A 
ATOM     19  C   UNL     1      10.125  -2.808 -10.299  0.00  0.00    +0.001 A 
ATOM     20  C   UNL     1       9.037  -3.147  -9.522  0.00  0.00    +0.013 A 
ENDBRANCH  12  15
ENDBRANCH   8  11
ENDBRANCH   2   5
BRANCH   1  21
ATOM     21  N   UNL     1       1.131  -2.941  -1.721  0.00  0.00    -0.108 NA
ATOM     22  H   UNL     1       0.477  -3.595  -2.015  0.00  0.00    +0.172 HD
BRANCH  21  23
ATOM     23  S   UNL     1       1.025  -2.289  -0.203  0.00  0.00    +0.074 S 
ATOM     24  O   UNL     1       2.287  -2.495   0.416  0.00  0.00    -0.152 OA
ATOM     25  O   UNL     1      -0.188  -2.769   0.362  0.00  0.00    -0.152 OA
BRANCH  23  30
ATOM     26  C   UNL     1       0.381   3.674  -0.858  0.00  0.00    +0.044 C 
ATOM     27  C   UNL     1       0.542   2.185  -0.694  0.00  0.00    -0.050 A 
ATOM     28  C   UNL     1      -0.574   1.370  -0.646  0.00  0.00    +0.005 A 
ATOM     29  C   UNL     1      -0.426   0.004  -0.496  0.00  0.00    +0.029 A 
ATOM     30  C   UNL     1       0.837  -0.548  -0.395  0.00  0.00    +0.107 A 
ATOM     31  C   UNL     1       1.953   0.267  -0.443  0.00  0.00    +0.029 A 
ATOM     32  C   UNL     1       1.806   1.633  -0.594  0.00  0.00    +0.005 A 
ENDBRANCH  23  30
ENDBRANCH  21  23
ENDBRANCH   1  21
TORSDOF 6
