REMARK  Name = ZINC31022249
REMARK  9 active torsions:
REMARK  status: ('A' for Active; 'I' for Inactive)
REMARK    1  A    between atoms: C_1  and  C_2
REMARK    2  A    between atoms: C_2  and  C_3
REMARK    3  A    between atoms: C_2  and  N_4
REMARK    4  A    between atoms: N_7  and  C_8
REMARK    5  A    between atoms: C_11  and  N_14
REMARK    6  A    between atoms: C_15  and  C_17
REMARK    7  A    between atoms: C_17  and  C_18
REMARK    8  A    between atoms: C_18  and  C_19
REMARK    9  A    between atoms: C_19  and  C_21
REMARK                            x       y       z     vdW  Elec       q    Type
REMARK                         _______ _______ _______ _____ _____    ______ ____
ROOT
ATOM      1  N   UNL     1       3.401   7.997  -0.007  0.00  0.00    -0.285 N 
ATOM      2  C   UNL     1       3.414   6.649  -0.007  0.00  0.00    +0.218 C 
ATOM      3  O   UNL     1       4.471   6.053  -0.003  0.00  0.00    -0.275 OA
ATOM      4  H   UNL     1       2.447   8.538  -0.087  0.00  0.00    +0.155 HD
ENDROOT
BRANCH   1   8
ATOM      5  C   UNL     1       6.979  10.117   0.294  0.00  0.00    +0.035 A 
ATOM      6  C   UNL     1       6.940   8.918  -0.403  0.00  0.00    +0.025 A 
ATOM      7  C   UNL     1       5.755   8.216  -0.503  0.00  0.00    +0.025 A 
ATOM      8  C   UNL     1       4.603   8.709   0.094  0.00  0.00    +0.033 A 
ATOM      9  C   UNL     1       4.641   9.912   0.787  0.00  0.00    +0.025 A 
ATOM     10  C   UNL     1       5.827  10.611   0.892  0.00  0.00    +0.025 A 
BRANCH   5  14
ATOM     11  N   UNL     1       9.663  12.121   1.656  0.00  0.00    -0.297 N 
ATOM     12  C   UNL     1       8.467  11.513   1.522  0.00  0.00    +0.304 C 
ATOM     13  O   UNL     1       7.647  11.580   2.417  0.00  0.00    -0.253 OA
ATOM     14  N   UNL     1       8.181  10.830   0.396  0.00  0.00    -0.269 N 
ATOM     15  H   UNL     1      10.405  12.060   0.847  0.00  0.00    +0.151 HD
ATOM     16  H   UNL     1       8.892  10.832  -0.444  0.00  0.00    +0.156 HD
BRANCH  11  18
ATOM     17  C   UNL     1      11.490  12.913   3.075  0.00  0.00    +0.027 C 
ATOM     18  C   UNL     1       9.973  12.863   2.881  0.00  0.00    +0.068 C 
ATOM     19  C   UNL     1       9.426  14.287   2.766  0.00  0.00    +0.027 C 
ENDBRANCH  11  18
ENDBRANCH   5  14
ENDBRANCH   1   8
BRANCH   2  20
ATOM     20  C   UNL     1       2.117   5.883  -0.010  0.00  0.00    +0.104 C 
BRANCH  20  21
ATOM     21  C   UNL     1       2.411   4.382  -0.009  0.00  0.00    +0.089 C 
BRANCH  21  22
ATOM     22  C   UNL     1       1.114   3.615  -0.013  0.00  0.00    +0.164 C 
ATOM     23  O   UNL     1       0.058   4.211  -0.016  0.00  0.00    -0.292 OA
BRANCH  22  24
ATOM     24  C   UNL     1       1.128   2.144  -0.012  0.00  0.00    +0.018 A 
ATOM     25  C   UNL     1       2.343   1.450  -0.008  0.00  0.00    +0.011 A 
ATOM     26  C   UNL     1       2.339   0.074  -0.010  0.00  0.00    +0.004 A 
ATOM     27  C   UNL     1       1.142  -0.635  -0.017  0.00  0.00    -0.044 A 
ATOM     28  C   UNL     1      -0.059   0.042  -0.017  0.00  0.00    -0.044 A 
ATOM     29  C   UNL     1      -0.070   1.428  -0.015  0.00  0.00    +0.015 A 
ATOM     30  C   UNL     1      -1.389  -0.666  -0.014  0.00  0.00    +0.035 C 
ATOM     31  C   UNL     1      -1.223  -2.122  -0.446  0.00  0.00    +0.005 C 
ATOM     32  C   UNL     1      -0.109  -2.752   0.399  0.00  0.00    +0.005 C 
ATOM     33  C   UNL     1       1.223  -2.140  -0.028  0.00  0.00    +0.035 C 
ENDBRANCH  22  24
ENDBRANCH  21  22
ENDBRANCH  20  21
ENDBRANCH   2  20
TORSDOF 7
