REMARK  Name = ZINC21228773
REMARK  6 active torsions:
REMARK  status: ('A' for Active; 'I' for Inactive)
REMARK    1  A    between atoms: C_1  and  C_2
REMARK    2  A    between atoms: C_2  and  O_3
REMARK    3  A    between atoms: O_3  and  C_4
REMARK    4  A    between atoms: C_6  and  C_12
REMARK    5  A    between atoms: C_9  and  O_10
REMARK    6  A    between atoms: C_23  and  C_26
REMARK                            x       y       z     vdW  Elec       q    Type
REMARK                         _______ _______ _______ _____ _____    ______ ____
ROOT
ATOM      1  C   UNL     1      -1.294  -0.773   0.010  0.00  0.00    +0.063 C 
ATOM      2  C   UNL     1      -2.089  -0.419   1.268  0.00  0.00    +0.109 C 
ATOM      3  C   UNL     1      -2.623   0.984   1.135  0.00  0.00    +0.218 C 
ATOM      4  O   UNL     1      -2.726   1.687   2.117  0.00  0.00    -0.275 OA
ATOM      5  N   UNL     1      -2.986   1.456  -0.070  0.00  0.00    -0.289 N 
ATOM      6  C   UNL     1      -2.904   0.674  -1.194  0.00  0.00    +0.018 C 
ATOM      7  C   UNL     1      -2.102  -0.412  -1.214  0.00  0.00    +0.020 C 
ATOM      8  C   UNL     1      -1.997  -1.223  -2.356  0.00  0.00    +0.162 C 
ATOM      9  O   UNL     1      -1.274  -2.199  -2.332  0.00  0.00    -0.292 OA
ATOM     10  C   UNL     1      -2.766  -0.900  -3.609  0.00  0.00    +0.088 C 
ATOM     11  C   UNL     1      -2.999   0.613  -3.675  0.00  0.00    +0.032 C 
ATOM     12  C   UNL     1      -3.726   1.050  -2.401  0.00  0.00    +0.059 C 
ATOM     13  H   UNL     1      -3.356   2.488  -0.168  0.00  0.00    +0.155 HD
ENDROOT
BRANCH   1  16
ATOM     14  C   UNL     1       2.399   0.024  -0.020  0.00  0.00    +0.163 A 
ATOM     15  C   UNL     1       1.207  -0.682  -0.013  0.00  0.00    +0.053 A 
ATOM     16  C   UNL     1       0.002  -0.004   0.002  0.00  0.00    -0.034 A 
ATOM     17  C   UNL     1      -0.017   1.378   0.010  0.00  0.00    +0.028 A 
ATOM     18  C   UNL     1       1.170   2.089   0.002  0.00  0.00    +0.086 A 
ATOM     19  C   UNL     1       2.382   1.414  -0.013  0.00  0.00    +0.177 A 
ATOM     20 CL   UNL     1       1.143   3.825   0.012  0.00  0.00    -0.080 Cl
BRANCH  19  21
ATOM     21  O   UNL     1       3.550   2.111  -0.020  0.00  0.00    -0.502 OA
ATOM     22  H   UNL     1       3.534   3.211  -0.014  0.00  0.00    +0.292 HD
ENDBRANCH  19  21
BRANCH  14  23
ATOM     23  O   UNL     1       3.585  -0.643  -0.035  0.00  0.00    -0.489 OA
BRANCH  23  25
ATOM     24  C   UNL     1       4.947  -2.639  -0.059  0.00  0.00    +0.048 C 
ATOM     25  C   UNL     1       3.527  -2.070  -0.042  0.00  0.00    +0.226 C 
ENDBRANCH  23  25
ENDBRANCH  14  23
ENDBRANCH   1  16
BRANCH  11  26
ATOM     26  C   UNL     1      -3.843   0.943  -4.878  0.00  0.00    -0.044 A 
ATOM     27  C   UNL     1      -5.109   0.402  -5.004  0.00  0.00    +0.004 A 
ATOM     28  C   UNL     1      -5.885   0.709  -6.106  0.00  0.00    +0.000 A 
ATOM     29  C   UNL     1      -5.392   1.549  -7.087  0.00  0.00    +0.000 A 
ATOM     30  C   UNL     1      -4.124   2.086  -6.963  0.00  0.00    +0.000 A 
ATOM     31  C   UNL     1      -3.350   1.782  -5.859  0.00  0.00    +0.004 A 
ENDBRANCH  11  26
TORSDOF 5
