REMARK  Name = ZINC37263995
REMARK  14 active torsions:
REMARK  status: ('A' for Active; 'I' for Inactive)
REMARK    1  A    between atoms: C_1  and  C_2
REMARK    2  A    between atoms: C_5  and  N_8
REMARK    3  A    between atoms: C_11  and  C_13
REMARK    4  A    between atoms: C_13  and  C_14
REMARK    5  A    between atoms: C_13  and  C_15
REMARK    6  A    between atoms: C_13  and  C_16
REMARK    7  A    between atoms: C_17  and  C_33
REMARK    8  A    between atoms: N_23  and  C_24
REMARK    9  A    between atoms: C_24  and  C_25
REMARK   10  A    between atoms: N_27  and  C_28
REMARK   11  A    between atoms: C_28  and  C_29
REMARK   12  A    between atoms: C_29  and  N_30
REMARK   13  A    between atoms: N_30  and  C_31
REMARK   14  A    between atoms: N_30  and  C_32
REMARK                            x       y       z     vdW  Elec       q    Type
REMARK                         _______ _______ _______ _____ _____    ______ ____
ROOT
ATOM      1  N   UNL     1       1.939  -6.491   0.948  0.00  0.00    -0.218 N 
ATOM      2  C   UNL     1       2.085  -7.836   1.008  0.00  0.00    +0.136 A 
ATOM      3  C   UNL     1       1.123  -8.398   0.240  0.00  0.00    +0.034 A 
ATOM      4  C   UNL     1       0.361  -7.369  -0.314  0.00  0.00    +0.075 A 
ATOM      5  N   UNL     1       0.843  -6.226   0.112  0.00  0.00    -0.169 NA
ATOM      6  C   UNL     1       0.935  -9.881   0.046  0.00  0.00    +0.112 C 
ATOM      7  S   UNL     1       2.267 -10.501  -1.043  0.00  0.00    -0.138 S 
ATOM      8  C   UNL     1       3.717  -9.586  -0.420  0.00  0.00    +0.166 C 
ATOM      9  C   UNL     1       3.712  -9.537   1.077  0.00  0.00    +0.231 C 
ATOM     10  O   UNL     1       4.313 -10.379   1.711  0.00  0.00    -0.274 OA
ATOM     11  N   UNL     1       3.047  -8.570   1.718  0.00  0.00    -0.246 N 
ENDROOT
BRANCH   1  16
ATOM     12  C   UNL     1       5.148  -2.637   3.605  0.00  0.00    +0.044 C 
ATOM     13  C   UNL     1       4.296  -3.660   2.900  0.00  0.00    -0.050 A 
ATOM     14  C   UNL     1       4.885  -4.592   2.066  0.00  0.00    +0.005 A 
ATOM     15  C   UNL     1       4.107  -5.531   1.417  0.00  0.00    +0.028 A 
ATOM     16  C   UNL     1       2.731  -5.540   1.605  0.00  0.00    +0.067 A 
ATOM     17  C   UNL     1       2.142  -4.603   2.443  0.00  0.00    +0.028 A 
ATOM     18  C   UNL     1       2.926  -3.669   3.092  0.00  0.00    +0.005 A 
ENDBRANCH   1  16
BRANCH   6  19
ATOM     19  C   UNL     1      -0.406 -10.141  -0.590  0.00  0.00    -0.023 A 
ATOM     20  C   UNL     1      -0.516 -10.285  -1.960  0.00  0.00    +0.012 A 
ATOM     21  C   UNL     1      -1.737 -10.518  -2.501  0.00  0.00    +0.045 A 
ATOM     22  S   UNL     1      -2.783 -10.541  -1.055  0.00  0.00    -0.105 S 
ATOM     23  C   UNL     1      -1.522 -10.243   0.173  0.00  0.00    +0.050 A 
ENDBRANCH   6  19
BRANCH   4  24
ATOM     24  C   UNL     1      -0.816  -7.542  -1.239  0.00  0.00    +0.007 C 
ATOM     25  C   UNL     1      -1.934  -8.288  -0.507  0.00  0.00    +0.017 C 
ATOM     26  C   UNL     1      -1.324  -6.168  -1.679  0.00  0.00    +0.017 C 
ATOM     27  C   UNL     1      -0.386  -8.345  -2.468  0.00  0.00    +0.017 C 
ENDBRANCH   4  24
BRANCH  11  28
ATOM     28  C   UNL     1       3.317  -8.284   3.130  0.00  0.00    +0.210 C 
BRANCH  28  29
ATOM     29  C   UNL     1       2.527  -9.232   3.994  0.00  0.00    +0.231 C 
ATOM     30  O   UNL     1       1.809 -10.066   3.482  0.00  0.00    -0.274 OA
ATOM     31  N   UNL     1       2.618  -9.155   5.337  0.00  0.00    -0.316 N 
ATOM     32  H   UNL     1       3.192  -8.489   5.746  0.00  0.00    +0.149 HD
BRANCH  31  33
ATOM     33  C   UNL     1       1.850 -10.077   6.178  0.00  0.00    +0.085 C 
BRANCH  33  34
ATOM     34  C   UNL     1       2.132  -9.778   7.651  0.00  0.00    -0.061 C 
BRANCH  34  35
ATOM     35  N   UNL     1       1.362 -10.702   8.494  0.00  0.00    +0.377 N 
ATOM     36  C   UNL     1       1.723 -10.496   9.903  0.00  0.00    -0.097 C 
ATOM     37  C   UNL     1      -0.074 -10.450   8.314  0.00  0.00    -0.097 C 
ATOM     38  H   UNL     1       1.572 -11.653   8.230  0.00  0.00    -0.083 HD
ENDBRANCH  34  35
ENDBRANCH  33  34
ENDBRANCH  31  33
ENDBRANCH  28  29
ENDBRANCH  11  28
TORSDOF 8
