REMARK  Name = ZINC15867544
REMARK  9 active torsions:
REMARK  status: ('A' for Active; 'I' for Inactive)
REMARK    1  A    between atoms: C_1  and  C_2
REMARK    2  A    between atoms: C_2  and  C_3
REMARK    3  A    between atoms: C_3  and  N_4
REMARK    4  A    between atoms: C_8  and  C_17
REMARK    5  A    between atoms: C_15  and  C_16
REMARK    6  A    between atoms: N_19  and  C_20
REMARK    7  A    between atoms: C_20  and  C_22
REMARK    8  A    between atoms: C_20  and  C_23
REMARK    9  A    between atoms: C_23  and  C_24
REMARK                            x       y       z     vdW  Elec       q    Type
REMARK                         _______ _______ _______ _____ _____    ______ ____
ROOT
ATOM      1  N   UNL     1       2.400   0.028   8.204  0.00  0.00    -0.286 N 
ATOM      2  C   UNL     1       1.687   0.255   7.035  0.00  0.00    +0.062 A 
ATOM      3  C   UNL     1       2.338   0.269   5.804  0.00  0.00    +0.026 A 
ATOM      4  C   UNL     1       1.626   0.503   4.650  0.00  0.00    +0.015 A 
ATOM      5  C   UNL     1       0.247   0.727   4.708  0.00  0.00    +0.039 A 
ATOM      6  C   UNL     1      -0.405   0.718   5.945  0.00  0.00    +0.044 A 
ATOM      7  C   UNL     1       0.312   0.477   7.090  0.00  0.00    +0.134 A 
ATOM      8  S   UNL     1      -0.481   0.448   8.665  0.00  0.00    +0.102 S 
ATOM      9  O   UNL     1      -0.647   1.801   9.068  0.00  0.00    -0.146 OA
ATOM     10  O   UNL     1      -1.570  -0.459   8.561  0.00  0.00    -0.146 OA
ATOM     11  N   UNL     1       0.613  -0.232   9.709  0.00  0.00    -0.118 NA
ATOM     12  C   UNL     1       1.847  -0.359   9.380  0.00  0.00    +0.121 C 
ATOM     13  C   UNL     1       2.764  -0.996  10.392  0.00  0.00    +0.085 C 
ENDROOT
BRANCH   5  14
ATOM     14  C   UNL     1      -0.515   0.979   3.470  0.00  0.00    +0.244 C 
ATOM     15  O   UNL     1      -1.714   1.174   3.523  0.00  0.00    -0.270 OA
ATOM     16  N   UNL     1       0.118   0.993   2.280  0.00  0.00    -0.309 N 
ATOM     17  H   UNL     1       1.074   0.838   2.237  0.00  0.00    +0.149 HD
BRANCH  16  18
ATOM     18  C   UNL     1      -0.639   1.243   1.051  0.00  0.00    +0.070 C 
ATOM     19  C   UNL     1      -0.773   2.752   0.832  0.00  0.00    +0.028 C 
BRANCH  18  20
ATOM     20  C   UNL     1       0.096   0.619  -0.137  0.00  0.00    +0.018 C 
ATOM     21  C   UNL     1       0.120  -0.903   0.021  0.00  0.00    +0.005 C 
ENDBRANCH  18  20
ENDBRANCH  16  18
ENDBRANCH   5  14
BRANCH   1  22
ATOM     22  C   UNL     1       3.852   0.218   8.164  0.00  0.00    +0.112 C 
BRANCH  22  24
ATOM     23  C   UNL     1       6.043  -0.891   7.704  0.00  0.00    +0.005 C 
ATOM     24  C   UNL     1       4.526  -1.090   7.745  0.00  0.00    +0.016 C 
ENDBRANCH  22  24
ENDBRANCH   1  22
TORSDOF 5
