REMARK  Name = ZINC14387612
REMARK  8 active torsions:
REMARK  status: ('A' for Active; 'I' for Inactive)
REMARK    1  A    between atoms: C_1  and  C_2
REMARK    2  A    between atoms: C_7  and  N_8
REMARK    3  A    between atoms: C_9  and  C_11
REMARK    4  A    between atoms: C_11  and  N_12
REMARK    5  A    between atoms: C_13  and  C_15
REMARK    6  A    between atoms: C_16  and  C_17
REMARK    7  A    between atoms: C_20  and  O_23
REMARK    8  A    between atoms: O_23  and  C_24
REMARK                            x       y       z     vdW  Elec       q    Type
REMARK                         _______ _______ _______ _____ _____    ______ ____
ROOT
ATOM      1  N   UNL     1       6.066   1.756  -0.063  0.00  0.00    -0.303 N 
ATOM      2  C   UNL     1       4.910   1.063  -0.066  0.00  0.00    +0.237 C 
ATOM      3  O   UNL     1       4.931  -0.154  -0.080  0.00  0.00    -0.271 OA
ATOM      4  H   UNL     1       6.050   2.726  -0.051  0.00  0.00    +0.149 HD
ENDROOT
BRANCH   2   5
ATOM      5  C   UNL     1       3.632   1.773  -0.051  0.00  0.00    +0.068 C 
ATOM      6  C   UNL     1       2.474   1.078  -0.054  0.00  0.00    +0.013 C 
BRANCH   6   7
ATOM      7  C   UNL     1       1.189   1.792  -0.039  0.00  0.00    -0.025 A 
ATOM      8  C   UNL     1      -0.013   1.074  -0.042  0.00  0.00    +0.011 A 
ATOM      9  C   UNL     1      -1.214   1.747  -0.034  0.00  0.00    +0.046 A 
ATOM     10  C   UNL     1      -1.234   3.137  -0.012  0.00  0.00    +0.120 A 
ATOM     11  C   UNL     1      -0.043   3.854  -0.009  0.00  0.00    +0.046 A 
ATOM     12  C   UNL     1       1.163   3.191  -0.023  0.00  0.00    +0.011 A 
BRANCH  10  13
ATOM     13  O   UNL     1      -2.421   3.796   0.001  0.00  0.00    -0.495 OA
ATOM     14  C   UNL     1      -3.606   2.998  -0.002  0.00  0.00    +0.277 C 
ENDBRANCH  10  13
ENDBRANCH   6   7
ENDBRANCH   2   5
BRANCH   1  15
ATOM     15  C   UNL     1       7.347   1.045  -0.077  0.00  0.00    +0.200 C 
BRANCH  15  17
ATOM     16  N   UNL     1       9.754   1.615  -0.082  0.00  0.00    -0.284 N 
ATOM     17  C   UNL     1       8.476   2.043  -0.071  0.00  0.00    +0.234 C 
ATOM     18  O   UNL     1       8.234   3.232  -0.056  0.00  0.00    -0.274 OA
ATOM     19  H   UNL     1       9.948   0.668  -0.014  0.00  0.00    +0.155 HD
BRANCH  16  26
ATOM     20  C   UNL     1      12.302   0.889   0.954  0.00  0.00    +0.046 C 
ATOM     21  C   UNL     1      12.059   2.224   0.299  0.00  0.00    -0.028 A 
ATOM     22  C   UNL     1      13.091   3.135   0.184  0.00  0.00    +0.020 A 
ATOM     23  C   UNL     1      12.868   4.364  -0.411  0.00  0.00    +0.018 A 
ATOM     24  C   UNL     1      11.612   4.682  -0.898  0.00  0.00    +0.017 A 
ATOM     25  C   UNL     1      10.578   3.773  -0.790  0.00  0.00    +0.024 A 
ATOM     26  C   UNL     1      10.800   2.538  -0.193  0.00  0.00    +0.036 A 
ATOM     27 BR   UNL     1      14.281   5.612  -0.560  0.00  0.00    -0.050 Br
ENDBRANCH  16  26
ENDBRANCH  15  17
ENDBRANCH   1  15
TORSDOF 6
