REMARK  Name = ZINC32717637
REMARK  7 active torsions:
REMARK  status: ('A' for Active; 'I' for Inactive)
REMARK    1  A    between atoms: C_5  and  C_7
REMARK    2  A    between atoms: N_9  and  C_10
REMARK    3  A    between atoms: C_10  and  C_11
REMARK    4  A    between atoms: N_13  and  C_14
REMARK    5  A    between atoms: C_14  and  C_15
REMARK    6  A    between atoms: C_15  and  S_16
REMARK    7  A    between atoms: S_16  and  N_19
REMARK                            x       y       z     vdW  Elec       q    Type
REMARK                         _______ _______ _______ _____ _____    ______ ____
ROOT
ATOM      1  C   UNL     1      -2.882  -6.692   0.009  0.00  0.00    +0.128 C 
ENDROOT
BRANCH   1   4
ATOM      2  C   UNL     1      -1.288  -4.849   0.042  0.00  0.00    +0.230 C 
ATOM      3  O   UNL     1      -2.225  -4.078   0.037  0.00  0.00    -0.274 OA
ATOM      4  N   UNL     1      -1.510  -6.179   0.029  0.00  0.00    -0.312 N 
ATOM      5  H   UNL     1      -0.761  -6.795   0.033  0.00  0.00    +0.149 HD
BRANCH   2   6
ATOM      6  C   UNL     1       0.123  -4.321   0.063  0.00  0.00    +0.200 C 
BRANCH   6   9
ATOM      7  C   UNL     1       1.250  -2.161   0.093  0.00  0.00    +0.247 C 
ATOM      8  O   UNL     1       2.314  -2.749   0.101  0.00  0.00    -0.270 OA
ATOM      9  N   UNL     1       0.095  -2.856   0.074  0.00  0.00    -0.303 N 
ATOM     10  H   UNL     1      -0.753  -2.387   0.068  0.00  0.00    +0.150 HD
BRANCH   7  15
ATOM     11  C   UNL     1      -0.017   1.374   0.105  0.00  0.00    +0.001 A 
ATOM     12  C   UNL     1       1.170   2.087   0.125  0.00  0.00    +0.003 A 
ATOM     13  C   UNL     1       2.383   1.424   0.134  0.00  0.00    +0.039 A 
ATOM     14  C   UNL     1       2.418   0.041   0.124  0.00  0.00    +0.135 A 
ATOM     15  C   UNL     1       1.222  -0.684   0.104  0.00  0.00    +0.072 A 
ATOM     16  C   UNL     1       0.002  -0.005   0.095  0.00  0.00    +0.016 A 
ATOM     17  F   UNL     1       3.603  -0.607   0.133  0.00  0.00    -0.205 F 
ENDBRANCH   7  15
ENDBRANCH   6   9
ENDBRANCH   2   6
ENDBRANCH   1   4
BRANCH   1  18
ATOM     18  C   UNL     1      -2.853  -8.222  -0.003  0.00  0.00    +0.204 C 
BRANCH  18  19
ATOM     19  S   UNL     1      -4.552  -8.858  -0.028  0.00  0.00    +0.033 S 
ATOM     20  O   UNL     1      -5.202  -8.566   1.202  0.00  0.00    -0.158 OA
ATOM     21  O   UNL     1      -5.173  -8.547  -1.267  0.00  0.00    -0.158 OA
BRANCH  19  22
ATOM     22  N   UNL     1      -4.389 -10.506  -0.039  0.00  0.00    -0.178 NA
ATOM     23  C   UNL     1      -4.295 -11.240  -1.309  0.00  0.00    +0.128 C 
ATOM     24  C   UNL     1      -3.012 -12.080  -1.295  0.00  0.00    +0.123 C 
ATOM     25  N   UNL     1      -2.959 -12.835  -0.035  0.00  0.00    -0.314 N 
ATOM     26  C   UNL     1      -3.053 -12.101   1.235  0.00  0.00    +0.123 C 
ATOM     27  C   UNL     1      -4.330 -11.261   1.221  0.00  0.00    +0.128 C 
ATOM     28  C   UNL     1      -2.822 -14.219  -0.044  0.00  0.00    +0.099 A 
ATOM     29  C   UNL     1      -2.860 -14.907  -1.252  0.00  0.00    +0.042 A 
ATOM     30  C   UNL     1      -2.723 -16.283  -1.247  0.00  0.00    +0.005 A 
ATOM     31  C   UNL     1      -2.551 -16.927  -0.029  0.00  0.00    +0.018 A 
ATOM     32  C   UNL     1      -2.523 -16.182   1.132  0.00  0.00    +0.084 A 
ATOM     33  N   UNL     1      -2.651 -14.869   1.097  0.00  0.00    -0.350 N 
ATOM     34  H   UNL     1      -2.624 -14.368   1.927  0.00  0.00    +0.166 HD
ENDBRANCH  19  22
ENDBRANCH  18  19
ENDBRANCH   1  18
TORSDOF 7
