REMARK  Name = ZINC08874880
REMARK  10 active torsions:
REMARK  status: ('A' for Active; 'I' for Inactive)
REMARK    1  A    between atoms: C_1  and  C_2
REMARK    2  A    between atoms: C_2  and  O_3
REMARK    3  A    between atoms: O_3  and  C_4
REMARK    4  A    between atoms: C_14  and  O_30
REMARK    5  A    between atoms: C_16  and  C_19
REMARK    6  A    between atoms: C_21  and  O_28
REMARK    7  A    between atoms: C_22  and  O_27
REMARK    8  A    between atoms: C_23  and  O_25
REMARK    9  A    between atoms: O_25  and  C_26
REMARK   10  A    between atoms: O_28  and  C_29
REMARK                            x       y       z     vdW  Elec       q    Type
REMARK                         _______ _______ _______ _____ _____    ______ ____
ROOT
ATOM      1  C   UNL     1      -1.497  -1.836   0.006  0.00  0.00    +0.403 C 
ATOM      2  O   UNL     1      -0.523  -2.563  -0.007  0.00  0.00    -0.226 OA
ATOM      3  N   UNL     1      -2.735  -2.368   0.015  0.00  0.00    -0.262 N 
ATOM      4  C   UNL     1      -2.939  -3.824   0.016  0.00  0.00    +0.116 C 
ATOM      5  C   UNL     1      -3.619  -4.247   1.320  0.00  0.00    +0.056 C 
ATOM      6  C   UNL     1      -4.802  -3.329   1.588  0.00  0.00    -0.020 A 
ATOM      7  C   UNL     1      -4.905  -2.118   0.994  0.00  0.00    +0.013 A 
ATOM      8  S   UNL     1      -6.418  -1.434   1.610  0.00  0.00    -0.076 S 
ATOM      9  C   UNL     1      -6.895  -2.675   2.601  0.00  0.00    +0.080 A 
ATOM     10  C   UNL     1      -5.902  -3.654   2.480  0.00  0.00    +0.068 A 
ATOM     11  C   UNL     1      -6.076  -4.907   3.259  0.00  0.00    +0.220 C 
ATOM     12  N   UNL     1      -6.994  -4.920   4.187  0.00  0.00    -0.223 NA
ATOM     13  C   UNL     1      -7.816  -3.774   4.553  0.00  0.00    +0.224 C 
ATOM     14  N   UNL     1      -7.987  -2.844   3.422  0.00  0.00    -0.313 N 
ATOM     15  C   UNL     1      -3.937  -1.510   0.032  0.00  0.00    +0.153 C 
ATOM     16  H   UNL     1      -8.823  -2.378   3.264  0.00  0.00    +0.149 HD
ENDROOT
BRANCH  13  17
ATOM     17  C   UNL     1      -7.158  -3.042   5.694  0.00  0.00    +0.002 A 
ATOM     18  C   UNL     1      -7.336  -1.678   5.832  0.00  0.00    +0.057 A 
ATOM     19  C   UNL     1      -6.732  -1.000   6.880  0.00  0.00    +0.165 A 
ATOM     20  C   UNL     1      -5.946  -1.694   7.793  0.00  0.00    +0.201 A 
ATOM     21  C   UNL     1      -5.769  -3.065   7.650  0.00  0.00    +0.165 A 
ATOM     22  C   UNL     1      -6.381  -3.736   6.603  0.00  0.00    +0.057 A 
BRANCH  21  23
ATOM     23  O   UNL     1      -5.001  -3.749   8.540  0.00  0.00    -0.491 OA
ATOM     24  C   UNL     1      -4.863  -5.156   8.332  0.00  0.00    +0.277 C 
ENDBRANCH  21  23
BRANCH  20  25
ATOM     25  O   UNL     1      -5.351  -1.033   8.822  0.00  0.00    -0.501 OA
ATOM     26  H   UNL     1      -5.890  -0.985   9.624  0.00  0.00    +0.292 HD
ENDBRANCH  20  25
BRANCH  19  27
ATOM     27  O   UNL     1      -6.908   0.342   7.015  0.00  0.00    -0.491 OA
ATOM     28  C   UNL     1      -7.728   0.990   6.041  0.00  0.00    +0.277 C 
ENDBRANCH  19  27
ENDBRANCH  13  17
BRANCH  11  29
ATOM     29  O   UNL     1      -5.309  -5.995   3.016  0.00  0.00    -0.492 OA
ATOM     30  H   UNL     1      -5.510  -6.752   3.583  0.00  0.00    +0.294 HD
ENDBRANCH  11  29
BRANCH   1  31
ATOM     31  O   UNL     1      -1.339  -0.499   0.012  0.00  0.00    -0.451 OA
BRANCH  31  33
ATOM     32  C   UNL     1      -0.019   1.526   0.010  0.00  0.00    +0.048 C 
ATOM     33  C   UNL     1       0.002  -0.004   0.002  0.00  0.00    +0.230 C 
ENDBRANCH  31  33
ENDBRANCH   1  31
TORSDOF 7
