REMARK  Name = ZINC41584804
REMARK  11 active torsions:
REMARK  status: ('A' for Active; 'I' for Inactive)
REMARK    1  A    between atoms: C_1  and  C_2
REMARK    2  A    between atoms: C_2  and  C_3
REMARK    3  A    between atoms: C_3  and  O_4
REMARK    4  A    between atoms: O_4  and  C_5
REMARK    5  A    between atoms: C_5  and  C_7
REMARK    6  A    between atoms: C_7  and  C_8
REMARK    7  A    between atoms: C_8  and  C_9
REMARK    8  A    between atoms: C_12  and  C_38
REMARK    9  A    between atoms: C_18  and  C_21
REMARK   10  A    between atoms: C_19  and  O_20
REMARK   11  A    between atoms: C_21  and  N_22
REMARK                            x       y       z     vdW  Elec       q    Type
REMARK                         _______ _______ _______ _____ _____    ______ ____
ROOT
ATOM      1  C   UNL     1       2.179  -5.947  -3.743  0.00  0.00    -0.004 A 
ATOM      2  C   UNL     1       3.282  -6.606  -3.282  0.00  0.00    +0.019 A 
ATOM      3  C   UNL     1       3.337  -8.003  -3.353  0.00  0.00    +0.021 A 
ATOM      4  C   UNL     1       4.507  -8.737  -2.866  0.00  0.00    -0.033 A 
ATOM      5  C   UNL     1       4.500 -10.092  -2.963  0.00  0.00    +0.096 A 
ATOM      6  C   UNL     1       3.384 -10.750  -3.521  0.00  0.00    +0.337 A 
ATOM      7  O   UNL     1       3.391 -11.965  -3.602  0.00  0.00    -0.245 OA
ATOM      8  O   UNL     1       2.315 -10.071  -3.966  0.00  0.00    -0.422 OA
ATOM      9  C   UNL     1       2.258  -8.723  -3.899  0.00  0.00    +0.144 A 
ATOM     10  C   UNL     1       1.147  -8.037  -4.363  0.00  0.00    +0.021 A 
ATOM     11  C   UNL     1       1.106  -6.655  -4.279  0.00  0.00    +0.125 A 
ATOM     12  C   UNL     1       5.686  -8.009  -2.274  0.00  0.00    +0.045 C 
ENDROOT
BRANCH  11  13
ATOM     13  O   UNL     1       0.015  -5.985  -4.729  0.00  0.00    -0.506 OA
ATOM     14  H   UNL     1       0.063  -5.735  -5.662  0.00  0.00    +0.292 HD
ENDBRANCH  11  13
BRANCH   1  15
ATOM     15  C   UNL     1       2.120  -4.443  -3.666  0.00  0.00    +0.050 C 
BRANCH  15  16
ATOM     16  C   UNL     1       1.393  -4.026  -2.386  0.00  0.00    +0.125 C 
BRANCH  16  17
ATOM     17  C   UNL     1       1.334  -2.522  -2.309  0.00  0.00    +0.307 C 
ATOM     18  O   UNL     1       1.823  -1.852  -3.188  0.00  0.00    -0.251 OA
BRANCH  17  19
ATOM     19  O   UNL     1       0.738  -1.926  -1.265  0.00  0.00    -0.465 OA
BRANCH  19  20
ATOM     20  C   UNL     1       0.718  -0.497  -1.257  0.00  0.00    +0.232 C 
BRANCH  20  22
ATOM     21  C   UNL     1      -0.019   1.526   0.010  0.00  0.00    +0.007 C 
ATOM     22  C   UNL     1       0.002  -0.004   0.002  0.00  0.00    +0.038 C 
ENDBRANCH  20  22
ENDBRANCH  19  20
ENDBRANCH  17  19
ENDBRANCH  16  17
ENDBRANCH  15  16
ENDBRANCH   1  15
BRANCH  10  23
ATOM     23  C   UNL     1      -0.017  -8.793  -4.951  0.00  0.00    -0.036 C 
BRANCH  23  24
ATOM     24  N   UNL     1      -0.973  -9.126  -3.886  0.00  0.00    +0.383 N 
ATOM     25  C   UNL     1      -2.163  -9.747  -4.476  0.00  0.00    -0.073 C 
ATOM     26  C   UNL     1      -3.181 -10.111  -3.406  0.00  0.00    -0.007 C 
ATOM     27  C   UNL     1      -2.553 -11.026  -2.350  0.00  0.00    +0.011 C 
ATOM     28  C   UNL     1      -1.329 -10.299  -1.782  0.00  0.00    +0.020 C 
ATOM     29  C   UNL     1      -0.344 -10.056  -2.938  0.00  0.00    -0.069 C 
ATOM     30  C   UNL     1      -1.759  -8.953  -1.245  0.00  0.00    +0.023 A 
ATOM     31  C   UNL     1      -1.039  -8.427  -0.219  0.00  0.00    +0.022 A 
ATOM     32  C   UNL     1      -1.342  -7.157   0.284  0.00  0.00    +0.007 A 
ATOM     33  C   UNL     1      -2.355  -6.446  -0.289  0.00  0.00    +0.070 A 
ATOM     34  C   UNL     1      -3.075  -7.016  -1.348  0.00  0.00    +0.251 A 
ATOM     35  O   UNL     1      -3.942  -6.365  -1.909  0.00  0.00    -0.268 OA
ATOM     36  N   UNL     1      -2.818  -8.283  -1.756  0.00  0.00    -0.312 N 
ATOM     37  C   UNL     1      -3.741  -8.877  -2.718  0.00  0.00    +0.126 C 
ATOM     38  H   UNL     1      -1.242  -8.283  -3.401  0.00  0.00    -0.081 HD
ENDBRANCH  23  24
ENDBRANCH  10  23
TORSDOF 9
