REMARK  Name = ZINC11658471
REMARK  9 active torsions:
REMARK  status: ('A' for Active; 'I' for Inactive)
REMARK    1  A    between atoms: C_1  and  O_2
REMARK    2  A    between atoms: O_2  and  C_3
REMARK    3  A    between atoms: C_6  and  C_9
REMARK    4  A    between atoms: C_9  and  C_11
REMARK    5  A    between atoms: C_9  and  N_69
REMARK    6  A    between atoms: C_11  and  N_12
REMARK    7  A    between atoms: C_13  and  C_15
REMARK    8  A    between atoms: C_15  and  C_16
REMARK    9  A    between atoms: C_16  and  C_17
REMARK                            x       y       z     vdW  Elec       q    Type
REMARK                         _______ _______ _______ _____ _____    ______ ____
ROOT
ATOM      1  N   UNL     1      -0.239  -1.887   1.530  0.00  0.00    -0.317 N 
ATOM      2  C   UNL     1      -0.296  -2.497   2.731  0.00  0.00    +0.213 C 
ATOM      3  O   UNL     1      -0.298  -1.836   3.748  0.00  0.00    -0.276 OA
ATOM      4  H   UNL     1      -0.238  -2.415   0.717  0.00  0.00    +0.149 HD
ENDROOT
BRANCH   1   5
ATOM      5  C   UNL     1      -0.180  -0.425   1.454  0.00  0.00    +0.093 C 
BRANCH   5   6
ATOM      6  C   UNL     1       0.014   0.003  -0.002  0.00  0.00    -0.020 C 
BRANCH   6  12
ATOM      7  C   UNL     1      -1.317   0.372  -1.990  0.00  0.00    -0.078 C 
ATOM      8  C   UNL     1      -2.406  -0.236  -2.877  0.00  0.00    -0.019 C 
ATOM      9  C   UNL     1      -3.708  -0.343  -2.079  0.00  0.00    -0.004 C 
ATOM     10  C   UNL     1      -3.462  -1.189  -0.827  0.00  0.00    -0.019 C 
ATOM     11  C   UNL     1      -2.342  -0.553   0.001  0.00  0.00    -0.078 C 
ATOM     12  N   UNL     1      -1.111  -0.502  -0.816  0.00  0.00    +0.385 N 
ATOM     13  H   UNL     1      -0.888  -1.450  -1.141  0.00  0.00    -0.081 HD
ENDBRANCH   6  12
BRANCH   6  17
ATOM     14  C   UNL     1       0.219   4.266  -0.220  0.00  0.00    +0.120 A 
ATOM     15  C   UNL     1       1.354   3.502  -0.454  0.00  0.00    +0.046 A 
ATOM     16  C   UNL     1       1.285   2.125  -0.383  0.00  0.00    +0.005 A 
ATOM     17  C   UNL     1       0.086   1.506  -0.079  0.00  0.00    -0.059 A 
ATOM     18  C   UNL     1      -1.047   2.264   0.149  0.00  0.00    +0.005 A 
ATOM     19  C   UNL     1      -0.982   3.643   0.085  0.00  0.00    +0.046 A 
BRANCH  14  21
ATOM     20  C   UNL     1      -0.923   6.343  -0.038  0.00  0.00    +0.277 C 
ATOM     21  O   UNL     1       0.284   5.621  -0.290  0.00  0.00    -0.495 OA
ENDBRANCH  14  21
ENDBRANCH   6  17
ENDBRANCH   5   6
ENDBRANCH   1   5
BRANCH   2  22
ATOM     22  C   UNL     1      -0.358  -4.001   2.809  0.00  0.00    +0.103 C 
BRANCH  22  23
ATOM     23  C   UNL     1      -0.415  -4.433   4.275  0.00  0.00    +0.083 C 
BRANCH  23  24
ATOM     24  C   UNL     1      -0.477  -5.937   4.353  0.00  0.00    +0.111 A 
ATOM     25  N   UNL     1      -0.534  -6.540   5.569  0.00  0.00    -0.310 N 
ATOM     26  H   UNL     1      -0.534  -5.994   6.370  0.00  0.00    +0.170 HD
ATOM     27  C   UNL     1      -0.590  -7.880   5.684  0.00  0.00    +0.260 A 
ATOM     28  O   UNL     1      -0.640  -8.406   6.782  0.00  0.00    -0.267 OA
ATOM     29  C   UNL     1      -0.589  -8.678   4.493  0.00  0.00    +0.075 A 
ATOM     30  C   UNL     1      -0.643 -10.134   4.376  0.00  0.00    -0.023 A 
ATOM     31  C   UNL     1      -0.629 -10.649   3.129  0.00  0.00    -0.004 A 
ATOM     32  S   UNL     1      -0.545  -9.243   2.053  0.00  0.00    -0.073 S 
ATOM     33  C   UNL     1      -0.528  -7.966   3.285  0.00  0.00    +0.116 A 
ATOM     34  N   UNL     1      -0.480  -6.637   3.251  0.00  0.00    -0.227 NA
ATOM     35  C   UNL     1      -0.675 -12.096   2.744  0.00  0.00    +0.043 C 
ATOM     36  C   UNL     1      -0.366 -12.939   3.990  0.00  0.00    +0.005 C 
ATOM     37  C   UNL     1      -1.216 -12.423   5.154  0.00  0.00    +0.005 C 
ATOM     38  C   UNL     1      -0.712 -11.049   5.596  0.00  0.00    +0.037 C 
ENDBRANCH  23  24
ENDBRANCH  22  23
ENDBRANCH   2  22
TORSDOF 8
