REMARK  Name = ZINC09672647
REMARK  8 active torsions:
REMARK  status: ('A' for Active; 'I' for Inactive)
REMARK    1  A    between atoms: N_7  and  C_20
REMARK    2  A    between atoms: C_9  and  C_12
REMARK    3  A    between atoms: C_20  and  C_21
REMARK    4  A    between atoms: N_23  and  C_24
REMARK    5  A    between atoms: C_24  and  C_25
REMARK    6  A    between atoms: C_25  and  C_26
REMARK    7  A    between atoms: C_29  and  S_32
REMARK    8  A    between atoms: S_32  and  N_35
REMARK                            x       y       z     vdW  Elec       q    Type
REMARK                         _______ _______ _______ _____ _____    ______ ____
ROOT
ATOM      1  C   UNL     1       2.493   0.930  -0.370  0.00  0.00    +0.201 C 
ENDROOT
BRANCH   1   8
ATOM      2  C   UNL     1       2.092   4.190  -2.745  0.00  0.00    +0.002 A 
ATOM      3  C   UNL     1       3.227   4.811  -3.232  0.00  0.00    +0.004 A 
ATOM      4  C   UNL     1       4.467   4.495  -2.709  0.00  0.00    +0.047 A 
ATOM      5  C   UNL     1       4.577   3.554  -1.695  0.00  0.00    +0.143 A 
ATOM      6  C   UNL     1       3.437   2.931  -1.201  0.00  0.00    +0.073 A 
ATOM      7  C   UNL     1       2.193   3.254  -1.735  0.00  0.00    +0.027 A 
ATOM      8  N   UNL     1       3.499   1.982  -0.176  0.00  0.00    -0.314 N 
ATOM      9  C   UNL     1       4.842   1.407  -0.035  0.00  0.00    +0.160 C 
ATOM     10  C   UNL     1       5.860   2.552   0.038  0.00  0.00    +0.276 C 
ATOM     11  O   UNL     1       5.813   3.262  -1.204  0.00  0.00    -0.476 OA
BRANCH  10  12
ATOM     12  C   UNL     1       7.242   1.992   0.253  0.00  0.00    +0.258 C 
ATOM     13  O   UNL     1       8.075   2.078  -0.625  0.00  0.00    -0.271 OA
ATOM     14  N   UNL     1       7.554   1.396   1.421  0.00  0.00    -0.294 N 
ATOM     15  C   UNL     1       6.594   1.368   2.536  0.00  0.00    +0.136 C 
ATOM     16  C   UNL     1       6.475  -0.083   3.030  0.00  0.00    +0.179 C 
ATOM     17  O   UNL     1       7.782  -0.594   3.304  0.00  0.00    -0.377 OA
ATOM     18  C   UNL     1       8.638  -0.657   2.160  0.00  0.00    +0.179 C 
ATOM     19  C   UNL     1       8.865   0.759   1.621  0.00  0.00    +0.136 C 
ENDBRANCH  10  12
ENDBRANCH   1   8
BRANCH   1  20
ATOM     20  C   UNL     1       2.302   0.173   0.918  0.00  0.00    +0.230 C 
ATOM     21  O   UNL     1       2.855   0.549   1.930  0.00  0.00    -0.274 OA
ATOM     22  N   UNL     1       1.517  -0.923   0.947  0.00  0.00    -0.314 N 
ATOM     23  H   UNL     1       1.075  -1.223   0.138  0.00  0.00    +0.149 HD
BRANCH  22  24
ATOM     24  C   UNL     1       1.327  -1.655   2.201  0.00  0.00    +0.109 C 
BRANCH  24  25
ATOM     25  C   UNL     1       0.393  -2.843   1.961  0.00  0.00    +0.054 C 
BRANCH  25  26
ATOM     26  C   UNL     1       0.198  -3.597   3.251  0.00  0.00    -0.046 A 
ATOM     27  C   UNL     1       1.048  -4.636   3.581  0.00  0.00    +0.005 A 
ATOM     28  C   UNL     1       0.872  -5.324   4.767  0.00  0.00    +0.029 A 
ATOM     29  C   UNL     1      -0.162  -4.980   5.618  0.00  0.00    +0.105 A 
ATOM     30  C   UNL     1      -1.015  -3.945   5.286  0.00  0.00    +0.029 A 
ATOM     31  C   UNL     1      -0.836  -3.253   4.103  0.00  0.00    +0.005 A 
BRANCH  29  32
ATOM     32  S   UNL     1      -0.391  -5.862   7.126  0.00  0.00    +0.056 S 
ATOM     33  O   UNL     1       0.869  -6.427   7.462  0.00  0.00    -0.153 OA
ATOM     34  O   UNL     1      -1.094  -4.993   8.002  0.00  0.00    -0.153 OA
BRANCH  32  35
ATOM     35  N   UNL     1      -1.406  -7.130   6.802  0.00  0.00    -0.204 NA
ATOM     36  H   UNL     1      -1.333  -7.952   7.312  0.00  0.00    +0.144 HD
ATOM     37  H   UNL     1      -2.073  -7.051   6.103  0.00  0.00    +0.144 HD
ENDBRANCH  32  35
ENDBRANCH  29  32
ENDBRANCH  25  26
ENDBRANCH  24  25
ENDBRANCH  22  24
ENDBRANCH   1  20
TORSDOF 8
