REMARK  Name = ZINC15958632
REMARK  7 active torsions:
REMARK  status: ('A' for Active; 'I' for Inactive)
REMARK    1  A    between atoms: C_1  and  C_2
REMARK    2  A    between atoms: C_2  and  O_3
REMARK    3  A    between atoms: O_3  and  C_4
REMARK    4  A    between atoms: C_4  and  C_6
REMARK    5  A    between atoms: C_9  and  N_12
REMARK    6  A    between atoms: C_17  and  C_35
REMARK    7  A    between atoms: C_35  and  C_36
REMARK                            x       y       z     vdW  Elec       q    Type
REMARK                         _______ _______ _______ _____ _____    ______ ____
ROOT
ATOM      1  N   UNL     1      -6.683  -4.065   0.045  0.00  0.00    -0.210 N 
ATOM      2  C   UNL     1      -7.789  -3.320   0.147  0.00  0.00    +0.232 C 
ATOM      3  O   UNL     1      -7.814  -2.112   0.243  0.00  0.00    -0.274 OA
ATOM      4  C   UNL     1      -9.004  -4.219   0.122  0.00  0.00    +0.108 C 
ATOM      5  C   UNL     1      -9.693  -4.183   1.503  0.00  0.00    +0.076 C 
ATOM      6  N   UNL     1      -8.998  -5.226   2.304  0.00  0.00    -0.295 NA
ATOM      7  C   UNL     1      -8.761  -6.320   1.344  0.00  0.00    +0.136 C 
ATOM      8  C   UNL     1      -8.394  -5.643   0.000  0.00  0.00    +0.123 C 
ATOM      9  C   UNL     1      -6.905  -5.380  -0.053  0.00  0.00    +0.233 C 
ATOM     10  O   UNL     1      -6.048  -6.230  -0.164  0.00  0.00    -0.274 OA
ATOM     11  C   UNL     1      -9.971  -7.199   1.200  0.00  0.00    +0.005 A 
ATOM     12  C   UNL     1     -11.271  -6.966   0.812  0.00  0.00    +0.027 A 
ATOM     13  C   UNL     1     -12.182  -8.008   0.779  0.00  0.00    +0.041 A 
ATOM     14  C   UNL     1     -11.781  -9.283   1.137  0.00  0.00    +0.022 A 
ATOM     15  C   UNL     1     -10.480  -9.521   1.527  0.00  0.00    +0.025 A 
ATOM     16  C   UNL     1      -9.557  -8.477   1.563  0.00  0.00    +0.039 A 
ATOM     17  N   UNL     1      -8.206  -8.466   1.917  0.00  0.00    -0.283 N 
ATOM     18  C   UNL     1      -7.665  -7.237   1.816  0.00  0.00    +0.243 C 
ATOM     19  O   UNL     1      -6.517  -6.928   2.058  0.00  0.00    -0.273 OA
ATOM     20 CL   UNL     1     -13.822  -7.716   0.290  0.00  0.00    -0.084 Cl
ATOM     21  H   UNL     1      -8.127  -4.875   2.675  0.00  0.00    +0.124 HD
ATOM     22  H   UNL     1      -7.714  -9.252   2.202  0.00  0.00    +0.155 HD
ENDROOT
BRANCH   1  26
ATOM     23  C   UNL     1      -2.853  -2.418   0.015  0.00  0.00    +0.059 A 
ATOM     24  C   UNL     1      -3.361  -3.031  -1.134  0.00  0.00    +0.017 A 
ATOM     25  C   UNL     1      -4.626  -3.574  -1.120  0.00  0.00    +0.025 A 
ATOM     26  C   UNL     1      -5.398  -3.513   0.035  0.00  0.00    +0.044 A 
ATOM     27  C   UNL     1      -4.896  -2.904   1.180  0.00  0.00    +0.025 A 
ATOM     28  C   UNL     1      -3.630  -2.364   1.176  0.00  0.00    +0.017 A 
BRANCH  23  29
ATOM     29  C   UNL     1      -1.498  -1.835   0.005  0.00  0.00    +0.339 C 
ATOM     30  O   UNL     1      -1.056  -1.307   1.006  0.00  0.00    -0.245 OA
BRANCH  29  31
ATOM     31  O   UNL     1      -0.750  -1.889  -1.115  0.00  0.00    -0.461 OA
BRANCH  31  33
ATOM     32  C   UNL     1       1.246  -1.461  -2.409  0.00  0.00    +0.048 C 
ATOM     33  C   UNL     1       0.553  -1.305  -1.054  0.00  0.00    +0.229 C 
ENDBRANCH  31  33
ENDBRANCH  29  31
ENDBRANCH  23  29
ENDBRANCH   1  26
BRANCH   5  34
ATOM     34  C   UNL     1      -9.519  -2.808   2.149  0.00  0.00    +0.115 C 
BRANCH  34  35
ATOM     35  C   UNL     1     -10.301  -2.755   3.437  0.00  0.00    +0.212 C 
ATOM     36  O   UNL     1     -10.935  -3.723   3.801  0.00  0.00    -0.276 OA
ATOM     37  N   UNL     1     -10.295  -1.633   4.183  0.00  0.00    -0.329 N 
ATOM     38  H   UNL     1      -9.788  -0.859   3.891  0.00  0.00    +0.145 HD
ATOM     39  H   UNL     1     -10.798  -1.599   5.011  0.00  0.00    +0.145 HD
ENDBRANCH  34  35
ENDBRANCH   5  34
TORSDOF 6
