REMARK  Name = ZINC60271842
REMARK  17 active torsions:
REMARK  status: ('A' for Active; 'I' for Inactive)
REMARK    1  A    between atoms: C_1  and  C_2
REMARK    2  A    between atoms: C_2  and  C_3
REMARK    3  A    between atoms: C_2  and  C_4
REMARK    4  A    between atoms: C_4  and  N_5
REMARK    5  A    between atoms: C_6  and  N_34
REMARK    6  A    between atoms: C_7  and  N_14
REMARK    7  A    between atoms: N_14  and  C_15
REMARK    8  A    between atoms: C_15  and  C_16
REMARK    9  A    between atoms: C_16  and  O_17
REMARK   10  A    between atoms: O_17  and  C_18
REMARK   11  A    between atoms: C_19  and  C_21
REMARK   12  A    between atoms: C_21  and  N_22
REMARK   13  A    between atoms: N_22  and  C_23
REMARK   14  A    between atoms: C_26  and  O_30
REMARK   15  A    between atoms: O_30  and  C_31
REMARK   16  A    between atoms: C_31  and  C_32
REMARK   17  A    between atoms: C_31  and  C_33
REMARK                            x       y       z     vdW  Elec       q    Type
REMARK                         _______ _______ _______ _____ _____    ______ ____
ROOT
ATOM      1  N   UNL     1       3.730   3.374  -4.401  0.00  0.00    -0.261 N 
ATOM      2  C   UNL     1       2.710   4.245  -4.248  0.00  0.00    +0.237 C 
ATOM      3  O   UNL     1       1.602   3.839  -3.969  0.00  0.00    -0.274 OA
ENDROOT
BRANCH   1   6
ATOM      4  N   UNL     1       3.945   0.032  -2.889  0.00  0.00    -0.280 N 
ATOM      5  C   UNL     1       4.164   1.373  -3.104  0.00  0.00    +0.127 A 
ATOM      6  C   UNL     1       3.526   2.000  -4.155  0.00  0.00    +0.140 A 
ATOM      7  C   UNL     1       2.668   1.245  -4.977  0.00  0.00    +0.277 A 
ATOM      8  O   UNL     1       2.092   1.774  -5.912  0.00  0.00    -0.266 OA
ATOM      9  N   UNL     1       2.488  -0.066  -4.723  0.00  0.00    -0.273 N 
ATOM     10  H   UNL     1       1.898  -0.588  -5.289  0.00  0.00    +0.173 HD
ATOM     11  C   UNL     1       3.123  -0.661  -3.697  0.00  0.00    +0.331 A 
ATOM     12  O   UNL     1       2.946  -1.847  -3.494  0.00  0.00    -0.246 OA
BRANCH   5  13
ATOM     13  N   UNL     1       5.007   2.080  -2.281  0.00  0.00    -0.343 N 
ATOM     14  H   UNL     1       5.384   1.657  -1.494  0.00  0.00    +0.144 HD
ATOM     15  H   UNL     1       5.226   3.002  -2.488  0.00  0.00    +0.144 HD
ENDBRANCH   5  13
BRANCH   4  16
ATOM     16  C   UNL     1       4.615  -0.646  -1.777  0.00  0.00    +0.131 C 
BRANCH  16  18
ATOM     17  C   UNL     1       6.882  -0.034  -2.632  0.00  0.00    +0.009 C 
ATOM     18  C   UNL     1       5.961  -1.196  -2.252  0.00  0.00    +0.003 C 
ATOM     19  C   UNL     1       6.605  -2.011  -1.128  0.00  0.00    +0.009 C 
ENDBRANCH  16  18
ENDBRANCH   4  16
ENDBRANCH   1   6
BRANCH   1  20
ATOM     20  C   UNL     1       5.048   3.855  -4.822  0.00  0.00    +0.142 C 
BRANCH  20  21
ATOM     21  C   UNL     1       5.178   3.721  -6.340  0.00  0.00    +0.178 C 
BRANCH  21  22
ATOM     22  O   UNL     1       4.238   4.588  -6.978  0.00  0.00    -0.381 OA
ATOM     23  C   UNL     1       4.277   4.538  -8.406  0.00  0.00    +0.194 C 
ENDBRANCH  21  22
ENDBRANCH  20  21
ENDBRANCH   1  20
BRANCH   2  24
ATOM     24  C   UNL     1       2.949   5.723  -4.424  0.00  0.00    +0.198 C 
BRANCH  24  25
ATOM     25  N   UNL     1       1.696   6.449  -4.207  0.00  0.00    -0.333 N 
ATOM     26  H   UNL     1       0.885   5.963  -3.988  0.00  0.00    +0.147 HD
BRANCH  25  27
ATOM     27  C   UNL     1       1.667   7.846  -4.317  0.00  0.00    +0.063 A 
ATOM     28  C   UNL     1       2.825   8.541  -4.637  0.00  0.00    +0.029 A 
ATOM     29  C   UNL     1       2.797   9.918  -4.745  0.00  0.00    +0.047 A 
ATOM     30  C   UNL     1       1.612  10.607  -4.534  0.00  0.00    +0.124 A 
ATOM     31  C   UNL     1       0.453   9.914  -4.215  0.00  0.00    +0.085 A 
ATOM     32  C   UNL     1       0.478   8.536  -4.112  0.00  0.00    +0.148 A 
ATOM     33  F   UNL     1      -0.651   7.860  -3.806  0.00  0.00    -0.203 F 
BRANCH  30  34
ATOM     34  O   UNL     1       1.585  11.962  -4.641  0.00  0.00    -0.489 OA
BRANCH  34  35
ATOM     35  C   UNL     1       2.836  12.620  -4.855  0.00  0.00    +0.167 C 
ATOM     36  C   UNL     1       3.161  12.623  -6.350  0.00  0.00    +0.051 C 
ATOM     37  C   UNL     1       2.747  14.062  -4.350  0.00  0.00    +0.051 C 
ENDBRANCH  34  35
ENDBRANCH  30  34
ENDBRANCH  25  27
ENDBRANCH  24  25
ENDBRANCH   2  24
TORSDOF 12
