REMARK  Name = ZINC12701826
REMARK  12 active torsions:
REMARK  status: ('A' for Active; 'I' for Inactive)
REMARK    1  A    between atoms: C_1  and  C_2
REMARK    2  A    between atoms: C_5  and  N_8
REMARK    3  A    between atoms: C_13  and  N_64
REMARK    4  A    between atoms: C_16  and  C_18
REMARK    5  A    between atoms: C_16  and  C_19
REMARK    6  A    between atoms: C_20  and  C_21
REMARK    7  A    between atoms: C_20  and  N_64
REMARK    8  A    between atoms: C_24  and  C_27
REMARK    9  A    between atoms: C_28  and  C_29
REMARK   10  A    between atoms: C_29  and  C_30
REMARK   11  A    between atoms: C_29  and  C_31
REMARK   12  A    between atoms: C_29  and  O_32
REMARK                            x       y       z     vdW  Elec       q    Type
REMARK                         _______ _______ _______ _____ _____    ______ ____
ROOT
ATOM      1  N   UNL     1      -3.076 -10.575  -1.738  0.00  0.00    -0.237 N 
ATOM      2  C   UNL     1      -1.801 -10.369  -2.117  0.00  0.00    +0.047 A 
ATOM      3  C   UNL     1      -1.298  -9.366  -1.353  0.00  0.00    -0.020 A 
ATOM      4  C   UNL     1      -2.299  -8.948  -0.478  0.00  0.00    +0.137 A 
ATOM      5  N   UNL     1      -3.368  -9.672  -0.706  0.00  0.00    -0.174 NA
ATOM      6  C   UNL     1       0.108  -8.835  -1.473  0.00  0.00    -0.037 C 
ATOM      7  C   UNL     1       0.688  -9.300  -2.815  0.00  0.00    -0.005 C 
ATOM      8  C   UNL     1       0.471 -10.807  -2.970  0.00  0.00    -0.031 C 
ATOM      9  C   UNL     1      -1.020 -11.091  -3.186  0.00  0.00    +0.062 C 
ATOM     10  C   UNL     1       0.949 -11.524  -1.706  0.00  0.00    +0.011 C 
ATOM     11  C   UNL     1       1.266 -11.315  -4.175  0.00  0.00    +0.011 C 
ENDROOT
BRANCH   1  16
ATOM     12  C   UNL     1      -6.636 -14.415  -3.929  0.00  0.00    +0.044 C 
ATOM     13  C   UNL     1      -5.691 -13.396  -3.347  0.00  0.00    -0.050 A 
ATOM     14  C   UNL     1      -5.747 -13.092  -2.000  0.00  0.00    +0.005 A 
ATOM     15  C   UNL     1      -4.883 -12.158  -1.464  0.00  0.00    +0.028 A 
ATOM     16  C   UNL     1      -3.955 -11.524  -2.279  0.00  0.00    +0.066 A 
ATOM     17  C   UNL     1      -3.904 -11.827  -3.633  0.00  0.00    +0.028 A 
ATOM     18  C   UNL     1      -4.768 -12.766  -4.162  0.00  0.00    +0.005 A 
ENDBRANCH   1  16
BRANCH   6  19
ATOM     19  N   UNL     1       0.089  -7.360  -1.434  0.00  0.00    +0.386 N 
ATOM     20  H   UNL     1      -0.759  -7.020  -1.903  0.00  0.00    -0.085 HD
ATOM     21  H   UNL     1       0.917  -6.997  -1.919  0.00  0.00    -0.085 HD
BRANCH  19  22
ATOM     22  C   UNL     1       0.095  -6.885  -0.037  0.00  0.00    -0.046 C 
BRANCH  22  23
ATOM     23  C   UNL     1       0.075  -5.379  -0.028  0.00  0.00    -0.064 A 
ATOM     24  C   UNL     1      -1.134  -4.706  -0.012  0.00  0.00    +0.003 A 
ATOM     25  C   UNL     1      -1.160  -3.327  -0.005  0.00  0.00    +0.017 A 
ATOM     26  C   UNL     1       0.037  -2.610  -0.012  0.00  0.00    +0.025 A 
ATOM     27  C   UNL     1       1.253  -3.294  -0.033  0.00  0.00    +0.017 A 
ATOM     28  C   UNL     1       1.265  -4.674  -0.035  0.00  0.00    +0.003 A 
BRANCH  26  29
ATOM     29  C   UNL     1       0.018  -1.178  -0.004  0.00  0.00    -0.063 C 
ATOM     30  C   UNL     1       0.002  -0.004   0.002  0.00  0.00    -0.063 C 
BRANCH  30  31
ATOM     31  C   UNL     1      -0.018   1.468   0.010  0.00  0.00    +0.121 C 
ATOM     32  C   UNL     1      -0.758   1.975  -1.229  0.00  0.00    +0.055 C 
ATOM     33  C   UNL     1      -0.734   1.961   1.269  0.00  0.00    +0.055 C 
BRANCH  31  34
ATOM     34  O   UNL     1       1.323   1.962   0.000  0.00  0.00    -0.377 OA
ATOM     35  H   UNL     1       1.852   1.680   0.758  0.00  0.00    +0.211 HD
ENDBRANCH  31  34
ENDBRANCH  30  31
ENDBRANCH  26  29
ENDBRANCH  22  23
ENDBRANCH  19  22
ENDBRANCH   6  19
TORSDOF 7
