REMARK  Name = ZINC12082934
REMARK  6 active torsions:
REMARK  status: ('A' for Active; 'I' for Inactive)
REMARK    1  A    between atoms: C_1  and  C_2
REMARK    2  A    between atoms: C_5  and  C_8
REMARK    3  A    between atoms: C_9  and  C_10
REMARK    4  A    between atoms: N_12  and  C_13
REMARK    5  A    between atoms: C_20  and  C_26
REMARK    6  A    between atoms: N_24  and  C_25
REMARK                            x       y       z     vdW  Elec       q    Type
REMARK                         _______ _______ _______ _____ _____    ______ ____
ROOT
ATOM      1  C   UNL     1      -0.130  -0.247  -0.569  0.00  0.00    +0.241 C 
ATOM      2  O   UNL     1       0.848  -0.793  -1.044  0.00  0.00    -0.270 OA
ATOM      3  N   UNL     1      -0.011   0.966   0.007  0.00  0.00    -0.282 N 
ATOM      4  H   UNL     1      -0.775   1.372   0.445  0.00  0.00    +0.155 HD
ENDROOT
BRANCH   3   5
ATOM      5  C   UNL     1       1.217   1.636  -0.021  0.00  0.00    +0.037 A 
ATOM      6  C   UNL     1       1.249   3.020  -0.140  0.00  0.00    +0.025 A 
ATOM      7  C   UNL     1       2.459   3.686  -0.162  0.00  0.00    +0.029 A 
ATOM      8  C   UNL     1       3.643   2.972  -0.078  0.00  0.00    +0.078 A 
ATOM      9  C   UNL     1       3.615   1.582   0.036  0.00  0.00    +0.145 A 
ATOM     10  C   UNL     1       2.402   0.917   0.064  0.00  0.00    +0.071 A 
ATOM     11  O   UNL     1       4.785   0.894   0.116  0.00  0.00    -0.478 OA
ATOM     12  C   UNL     1       5.898   1.433  -0.601  0.00  0.00    +0.256 C 
ATOM     13  C   UNL     1       6.002   2.914  -0.337  0.00  0.00    +0.260 C 
ATOM     14  O   UNL     1       7.086   3.458  -0.334  0.00  0.00    -0.271 OA
ATOM     15  N   UNL     1       4.882   3.632  -0.103  0.00  0.00    -0.268 N 
ATOM     16  C   UNL     1       4.959   5.078   0.120  0.00  0.00    +0.138 C 
ATOM     17  C   UNL     1       7.183   0.743  -0.140  0.00  0.00    +0.062 C 
ENDBRANCH   3   5
BRANCH   1  19
ATOM     18  C   UNL     1      -1.555  -2.119  -1.199  0.00  0.00    +0.013 C 
ATOM     19  C   UNL     1      -1.436  -0.906  -0.623  0.00  0.00    +0.068 C 
BRANCH  18  24
ATOM     20  C   UNL     1      -6.683  -4.710  -1.409  0.00  0.00    +0.044 C 
ATOM     21  C   UNL     1      -5.339  -4.031  -1.355  0.00  0.00    -0.050 A 
ATOM     22  C   UNL     1      -4.229  -4.656  -1.897  0.00  0.00    +0.004 A 
ATOM     23  C   UNL     1      -2.996  -4.041  -1.850  0.00  0.00    +0.008 A 
ATOM     24  C   UNL     1      -2.868  -2.783  -1.253  0.00  0.00    -0.025 A 
ATOM     25  C   UNL     1      -3.993  -2.160  -0.703  0.00  0.00    +0.008 A 
ATOM     26  C   UNL     1      -5.221  -2.786  -0.762  0.00  0.00    +0.004 A 
ENDBRANCH  18  24
ENDBRANCH   1  19
TORSDOF 3
