REMARK  Name = ZINC08199975
REMARK  8 active torsions:
REMARK  status: ('A' for Active; 'I' for Inactive)
REMARK    1  A    between atoms: C_1  and  C_2
REMARK    2  A    between atoms: C_2  and  C_3
REMARK    3  A    between atoms: C_6  and  O_10
REMARK    4  A    between atoms: O_10  and  C_11
REMARK    5  A    between atoms: C_11  and  C_12
REMARK    6  A    between atoms: N_14  and  N_15
REMARK    7  A    between atoms: C_16  and  C_17
REMARK    8  A    between atoms: C_20  and  N_22
REMARK                            x       y       z     vdW  Elec       q    Type
REMARK                         _______ _______ _______ _____ _____    ______ ____
ROOT
ATOM      1  C   UNL     1       1.030   3.512   0.011  0.00  0.00    +0.270 C 
ATOM      2  O   UNL     1      -0.097   3.961   0.024  0.00  0.00    -0.270 OA
ATOM      3  N   UNL     1       2.088   4.348   0.005  0.00  0.00    -0.204 N 
ATOM      4  H   UNL     1       2.989   3.989  -0.005  0.00  0.00    +0.177 HD
ENDROOT
BRANCH   3   5
ATOM      5  N   UNL     1       1.885   5.734   0.015  0.00  0.00    -0.185 NA
ATOM      6  C   UNL     1       2.910   6.543   0.009  0.00  0.00    +0.176 C 
BRANCH   6   7
ATOM      7  C   UNL     1       2.705   7.946   0.019  0.00  0.00    +0.150 A 
ATOM      8  C   UNL     1       3.693   8.914   0.020  0.00  0.00    +0.053 A 
ATOM      9  C   UNL     1       3.038  10.153   0.028  0.00  0.00    +0.076 A 
ATOM     10  C   UNL     1       1.707   9.903   0.040  0.00  0.00    +0.280 A 
ATOM     11  O   UNL     1       1.512   8.575   0.034  0.00  0.00    -0.433 OA
BRANCH  10  12
ATOM     12  N   UNL     1       0.591  10.975   0.057  0.00  0.00    +0.093 N 
ATOM     13  O   UNL     1       0.883  12.157   0.061  0.00  0.00    -0.123 OA
ATOM     14  O   UNL     1      -0.579  10.636   0.067  0.00  0.00    -0.123 OA
ENDBRANCH  10  12
ENDBRANCH   6   7
ENDBRANCH   3   5
BRANCH   1  15
ATOM     15  C   UNL     1       1.248   2.021   0.001  0.00  0.00    +0.326 C 
BRANCH  15  16
ATOM     16  O   UNL     1      -0.016   1.355   0.009  0.00  0.00    -0.482 OA
BRANCH  16  20
ATOM     17  C   UNL     1       0.040  -2.771  -0.012  0.00  0.00    -0.046 A 
ATOM     18  C   UNL     1       1.228  -2.064  -0.020  0.00  0.00    +0.007 A 
ATOM     19  C   UNL     1       1.212  -0.682  -0.013  0.00  0.00    +0.047 A 
ATOM     20  C   UNL     1       0.002  -0.004   0.002  0.00  0.00    +0.135 A 
ATOM     21  C   UNL     1      -1.190  -0.716   0.015  0.00  0.00    +0.060 A 
ATOM     22  C   UNL     1      -1.168  -2.098   0.003  0.00  0.00    +0.022 A 
ATOM     23 BR   UNL     1      -2.841   0.205   0.043  0.00  0.00    -0.047 Br
BRANCH  17  25
ATOM     24  C   UNL     1       0.082  -4.794   1.421  0.00  0.00    +0.009 C 
ATOM     25  C   UNL     1       0.061  -4.278  -0.019  0.00  0.00    +0.032 C 
ENDBRANCH  17  25
ENDBRANCH  16  20
ENDBRANCH  15  16
ENDBRANCH   1  15
TORSDOF 7
