REMARK  Name = ZINC34791597
REMARK  9 active torsions:
REMARK  status: ('A' for Active; 'I' for Inactive)
REMARK    1  A    between atoms: C_1  and  C_2
REMARK    2  A    between atoms: C_2  and  C_3
REMARK    3  A    between atoms: C_2  and  N_4
REMARK    4  A    between atoms: C_5  and  C_7
REMARK    5  A    between atoms: C_7  and  C_9
REMARK    6  A    between atoms: C_7  and  N_16
REMARK    7  A    between atoms: C_9  and  C_10
REMARK    8  A    between atoms: C_22  and  C_29
REMARK    9  A    between atoms: N_27  and  C_28
REMARK                            x       y       z     vdW  Elec       q    Type
REMARK                         _______ _______ _______ _____ _____    ______ ____
ROOT
ATOM      1  N   UNL     1      -3.978  -1.213  -2.505  0.00  0.00    -0.280 N 
ATOM      2  C   UNL     1      -5.148  -0.490  -3.025  0.00  0.00    +0.160 C 
ATOM      3  C   UNL     1      -5.235  -0.888  -4.481  0.00  0.00    +0.042 C 
ATOM      4  C   UNL     1      -4.212  -1.737  -4.705  0.00  0.00    +0.058 C 
ATOM      5  C   UNL     1      -3.462  -1.923  -3.525  0.00  0.00    +0.247 C 
ATOM      6  O   UNL     1      -2.479  -2.636  -3.440  0.00  0.00    -0.270 OA
ATOM      7  C   UNL     1      -4.056  -2.301  -6.103  0.00  0.00    +0.143 C 
ATOM      8  N   UNL     1      -5.044  -1.872  -7.108  0.00  0.00    -0.288 N 
ATOM      9  C   UNL     1      -6.013  -1.015  -6.731  0.00  0.00    +0.307 C 
ATOM     10  O   UNL     1      -6.833  -0.656  -7.554  0.00  0.00    -0.252 OA
ATOM     11  N   UNL     1      -6.103  -0.547  -5.479  0.00  0.00    -0.260 N 
ATOM     12  C   UNL     1      -7.192   0.380  -5.163  0.00  0.00    +0.139 C 
ATOM     13  H   UNL     1      -4.997  -2.198  -8.020  0.00  0.00    +0.151 HD
ENDROOT
BRANCH   7  14
ATOM     14  C   UNL     1      -2.687  -1.923  -6.607  0.00  0.00    -0.004 A 
ATOM     15  C   UNL     1      -2.523  -0.789  -7.379  0.00  0.00    +0.007 A 
ATOM     16  C   UNL     1      -1.268  -0.443  -7.842  0.00  0.00    +0.000 A 
ATOM     17  C   UNL     1      -0.175  -1.231  -7.532  0.00  0.00    +0.001 A 
ATOM     18  C   UNL     1      -0.337  -2.365  -6.760  0.00  0.00    +0.020 A 
ATOM     19  C   UNL     1      -1.593  -2.709  -6.292  0.00  0.00    +0.046 A 
ATOM     20 CL   UNL     1      -1.797  -4.131  -5.317  0.00  0.00    -0.083 Cl
ENDBRANCH   7  14
BRANCH   1  21
ATOM     21  C   UNL     1      -3.465  -1.164  -1.134  0.00  0.00    +0.167 C 
BRANCH  21  23
ATOM     22  N   UNL     1      -1.372  -0.511   0.012  0.00  0.00    -0.311 N 
ATOM     23  C   UNL     1      -2.051  -0.643  -1.145  0.00  0.00    +0.234 C 
ATOM     24  O   UNL     1      -1.524  -0.341  -2.194  0.00  0.00    -0.274 OA
ATOM     25  H   UNL     1      -1.794  -0.752   0.852  0.00  0.00    +0.149 HD
BRANCH  22  27
ATOM     26  C   UNL     1      -0.019   1.526   0.010  0.00  0.00    +0.027 C 
ATOM     27  C   UNL     1       0.002  -0.004   0.002  0.00  0.00    +0.067 C 
ATOM     28  C   UNL     1       0.742  -0.511   1.242  0.00  0.00    +0.027 C 
ENDBRANCH  22  27
ENDBRANCH  21  23
BRANCH  21  29
ATOM     29  C   UNL     1      -3.485  -2.571  -0.532  0.00  0.00    +0.067 C 
BRANCH  29  30
ATOM     30  C   UNL     1      -4.910  -3.044  -0.408  0.00  0.00    -0.045 A 
ATOM     31  C   UNL     1      -5.627  -2.784   0.746  0.00  0.00    +0.004 A 
ATOM     32  C   UNL     1      -6.934  -3.218   0.860  0.00  0.00    +0.000 A 
ATOM     33  C   UNL     1      -7.526  -3.911  -0.180  0.00  0.00    +0.000 A 
ATOM     34  C   UNL     1      -6.810  -4.169  -1.334  0.00  0.00    +0.000 A 
ATOM     35  C   UNL     1      -5.503  -3.732  -1.449  0.00  0.00    +0.004 A 
ENDBRANCH  29  30
ENDBRANCH  21  29
ENDBRANCH   1  21
TORSDOF 6
