REMARK  Name = ZINC39443870
REMARK  7 active torsions:
REMARK  status: ('A' for Active; 'I' for Inactive)
REMARK    1  A    between atoms: C_1  and  C_2
REMARK    2  A    between atoms: C_5  and  C_17
REMARK    3  A    between atoms: C_7  and  C_16
REMARK    4  A    between atoms: N_23  and  C_24
REMARK    5  A    between atoms: C_24  and  C_25
REMARK    6  A    between atoms: C_24  and  C_26
REMARK    7  A    between atoms: C_24  and  C_27
REMARK                            x       y       z     vdW  Elec       q    Type
REMARK                         _______ _______ _______ _____ _____    ______ ____
ROOT
ATOM      1  C   UNL     1      -0.523   1.380   0.095  0.00  0.00    +0.028 C 
ATOM      2  C   UNL     1      -0.210  -0.115   0.004  0.00  0.00    +0.074 C 
ATOM      3  C   UNL     1       0.619  -0.568   1.232  0.00  0.00    +0.033 C 
ATOM      4  C   UNL     1       1.337  -1.826   0.676  0.00  0.00    +0.058 C 
ATOM      5  C   UNL     1       1.611  -1.446  -0.794  0.00  0.00    +0.082 C 
ATOM      6  N   UNL     1       0.653  -0.389  -1.159  0.00  0.00    -0.294 N 
ATOM      7  C   UNL     1       0.576   0.242  -2.387  0.00  0.00    +0.214 A 
ATOM      8  H   UNL     1       1.980  -0.750  -3.560  0.00  0.00    +0.192 HD
ATOM      9  N   UNL     1      -0.218   1.246  -2.694  0.00  0.00    -0.202 NA
ATOM     10  C   UNL     1      -0.024   1.600  -3.965  0.00  0.00    +0.246 A 
ATOM     11  N   UNL     1       0.893   0.832  -4.488  0.00  0.00    -0.160 NA
ATOM     12  N   UNL     1       1.306  -0.057  -3.482  0.00  0.00    -0.247 N 
ATOM     13  C   UNL     1       3.044  -0.928  -0.940  0.00  0.00    +0.029 C 
ENDROOT
BRANCH   4  14
ATOM     14  C   UNL     1       2.627  -2.074   1.416  0.00  0.00    +0.056 C 
ATOM     15  N   UNL     1       3.010  -1.215   2.278  0.00  0.00    -0.155 NA
ATOM     16  N   UNL     1       4.165  -1.248   3.041  0.00  0.00    -0.127 NA
ATOM     17  C   UNL     1       5.222  -1.967   2.734  0.00  0.00    +0.176 C 
ATOM     18  S   UNL     1       5.180  -2.939   1.256  0.00  0.00    -0.083 S 
ATOM     19  C   UNL     1       3.405  -3.329   1.109  0.00  0.00    +0.130 C 
ATOM     20  N   UNL     1       6.333  -1.965   3.542  0.00  0.00    -0.318 N 
ATOM     21  H   UNL     1       7.106  -2.499   3.304  0.00  0.00    +0.148 HD
BRANCH  20  22
ATOM     22  C   UNL     1       6.349  -1.154   4.762  0.00  0.00    +0.026 C 
ATOM     23  C   UNL     1       5.219  -1.605   5.689  0.00  0.00    +0.031 C 
ATOM     24  C   UNL     1       7.692  -1.329   5.473  0.00  0.00    +0.031 C 
ATOM     25  C   UNL     1       6.153   0.319   4.398  0.00  0.00    +0.031 C 
ENDBRANCH  20  22
ENDBRANCH   4  14
TORSDOF 2
