REMARK  Name = ZINC09080916
REMARK  9 active torsions:
REMARK  status: ('A' for Active; 'I' for Inactive)
REMARK    1  A    between atoms: C_1  and  N_2
REMARK    2  A    between atoms: N_2  and  C_3
REMARK    3  A    between atoms: N_2  and  C_4
REMARK    4  A    between atoms: C_7  and  C_10
REMARK    5  A    between atoms: C_10  and  C_12
REMARK    6  A    between atoms: C_10  and  S_24
REMARK    7  A    between atoms: C_12  and  N_13
REMARK    8  A    between atoms: N_16  and  C_17
REMARK    9  A    between atoms: S_24  and  C_27
REMARK                            x       y       z     vdW  Elec       q    Type
REMARK                         _______ _______ _______ _____ _____    ______ ____
ROOT
ATOM      1  C   UNL     1       2.789   0.094   0.712  0.00  0.00    +0.183 C 
ENDROOT
BRANCH   1   5
ATOM      2  C   UNL     1       6.184   2.676   0.983  0.00  0.00    +0.029 A 
ATOM      3  C   UNL     1       5.937   1.971  -0.189  0.00  0.00    +0.023 A 
ATOM      4  C   UNL     1       4.839   1.138  -0.273  0.00  0.00    +0.007 A 
ATOM      5  C   UNL     1       3.986   1.004   0.807  0.00  0.00    -0.021 A 
ATOM      6  C   UNL     1       4.226   1.709   1.973  0.00  0.00    +0.007 A 
ATOM      7  C   UNL     1       5.325   2.540   2.066  0.00  0.00    +0.023 A 
BRANCH   2   9
ATOM      8  C   UNL     1       8.270   3.563  -0.020  0.00  0.00    +0.129 C 
ATOM      9  N   UNL     1       7.293   3.520   1.071  0.00  0.00    -0.336 N 
ATOM     10  C   UNL     1       7.480   4.363   2.255  0.00  0.00    +0.129 C 
ENDBRANCH   2   9
ENDBRANCH   1   5
BRANCH   1  11
ATOM     11  S   UNL     1       2.908  -1.196   1.981  0.00  0.00    +0.005 S 
ATOM     12  O   UNL     1       1.706  -1.954   2.023  0.00  0.00    -0.169 OA
ATOM     13  O   UNL     1       4.170  -1.844   1.904  0.00  0.00    -0.169 OA
BRANCH  11  14
ATOM     14  C   UNL     1       2.942  -0.324   3.512  0.00  0.00    +0.089 A 
ATOM     15  C   UNL     1       4.151   0.067   4.057  0.00  0.00    +0.028 A 
ATOM     16  C   UNL     1       4.179   0.756   5.255  0.00  0.00    +0.022 A 
ATOM     17  C   UNL     1       2.997   1.046   5.913  0.00  0.00    +0.041 A 
ATOM     18  C   UNL     1       1.788   0.650   5.370  0.00  0.00    +0.022 A 
ATOM     19  C   UNL     1       1.761  -0.035   4.169  0.00  0.00    +0.028 A 
ATOM     20 CL   UNL     1       3.031   1.906   7.421  0.00  0.00    -0.084 Cl
ENDBRANCH  11  14
ENDBRANCH   1  11
BRANCH   1  21
ATOM     21  C   UNL     1       1.511   0.907   0.929  0.00  0.00    +0.137 C 
BRANCH  21  22
ATOM     22  N   UNL     1       0.347   0.022   0.836  0.00  0.00    -0.297 N 
ATOM     23  C   UNL     1      -0.894   0.523   0.990  0.00  0.00    +0.304 C 
ATOM     24  O   UNL     1      -1.048   1.709   1.210  0.00  0.00    -0.253 OA
ATOM     25  N   UNL     1      -1.965  -0.290   0.899  0.00  0.00    -0.269 N 
ATOM     26  H   UNL     1       0.470  -0.924   0.660  0.00  0.00    +0.150 HD
ATOM     27  H   UNL     1      -1.841  -1.247   0.800  0.00  0.00    +0.156 HD
BRANCH  25  28
ATOM     28  C   UNL     1      -3.258   0.246   0.947  0.00  0.00    +0.035 A 
ATOM     29  C   UNL     1      -4.290  -0.479   1.527  0.00  0.00    +0.025 A 
ATOM     30  C   UNL     1      -5.563   0.055   1.578  0.00  0.00    +0.022 A 
ATOM     31  C   UNL     1      -5.812   1.306   1.042  0.00  0.00    +0.041 A 
ATOM     32  C   UNL     1      -4.786   2.028   0.458  0.00  0.00    +0.022 A 
ATOM     33  C   UNL     1      -3.510   1.501   0.410  0.00  0.00    +0.025 A 
ATOM     34 CL   UNL     1      -7.415   1.971   1.103  0.00  0.00    -0.084 Cl
ENDBRANCH  25  28
ENDBRANCH  21  22
ENDBRANCH   1  21
TORSDOF 7
