REMARK  Name = ZINC66664426
REMARK  16 active torsions:
REMARK  status: ('A' for Active; 'I' for Inactive)
REMARK    1  A    between atoms: C_1  and  C_2
REMARK    2  A    between atoms: C_2  and  C_3
REMARK    3  A    between atoms: C_2  and  C_4
REMARK    4  A    between atoms: C_2  and  C_5
REMARK    5  A    between atoms: C_5  and  C_6
REMARK    6  A    between atoms: N_8  and  C_9
REMARK    7  A    between atoms: C_9  and  C_10
REMARK    8  A    between atoms: N_12  and  C_13
REMARK    9  A    between atoms: C_15  and  C_22
REMARK   10  A    between atoms: N_17  and  C_18
REMARK   11  A    between atoms: C_18  and  C_19
REMARK   12  A    between atoms: C_18  and  C_20
REMARK   13  A    between atoms: C_18  and  C_21
REMARK   14  A    between atoms: C_22  and  C_23
REMARK   15  A    between atoms: C_22  and  C_24
REMARK   16  A    between atoms: C_22  and  C_25
REMARK                            x       y       z     vdW  Elec       q    Type
REMARK                         _______ _______ _______ _____ _____    ______ ____
ROOT
ATOM      1  C   UNL     1       5.036  -0.264  -3.538  0.00  0.00    +0.235 C 
ATOM      2  O   UNL     1       4.449  -0.965  -4.335  0.00  0.00    -0.274 OA
ATOM      3  N   UNL     1       6.320   0.081  -3.762  0.00  0.00    -0.269 N 
ATOM      4  H   UNL     1       6.790   0.641  -3.125  0.00  0.00    +0.156 HD
ENDROOT
BRANCH   3   5
ATOM      5  C   UNL     1       6.973  -0.369  -4.909  0.00  0.00    +0.124 A 
ATOM      6  C   UNL     1       6.436  -1.152  -5.885  0.00  0.00    +0.069 A 
ATOM      7  C   UNL     1       7.423  -1.369  -6.851  0.00  0.00    +0.070 A 
ATOM      8  N   UNL     1       8.510  -0.744  -6.475  0.00  0.00    -0.174 NA
ATOM      9  N   UNL     1       8.252  -0.102  -5.258  0.00  0.00    -0.245 N 
BRANCH   9  10
ATOM     10  C   UNL     1       9.201   0.713  -4.495  0.00  0.00    +0.057 C 
ATOM     11  C   UNL     1       9.408   0.093  -3.111  0.00  0.00    +0.036 C 
ATOM     12  C   UNL     1      10.539   0.765  -5.235  0.00  0.00    +0.036 C 
ATOM     13  C   UNL     1       8.647   2.131  -4.341  0.00  0.00    +0.036 C 
ENDBRANCH   9  10
BRANCH   7  14
ATOM     14  C   UNL     1       7.263  -2.183  -8.108  0.00  0.00    +0.006 C 
ATOM     15  C   UNL     1       6.436  -1.394  -9.125  0.00  0.00    +0.017 C 
ATOM     16  C   UNL     1       8.642  -2.487  -8.698  0.00  0.00    +0.017 C 
ATOM     17  C   UNL     1       6.549  -3.496  -7.779  0.00  0.00    +0.017 C 
ENDBRANCH   7  14
ENDBRANCH   3   5
BRANCH   1  18
ATOM     18  C   UNL     1       4.331   0.222  -2.298  0.00  0.00    +0.200 C 
BRANCH  18  21
ATOM     19  C   UNL     1       2.132   0.024  -1.268  0.00  0.00    +0.214 C 
ATOM     20  O   UNL     1       2.528   0.722  -0.358  0.00  0.00    -0.276 OA
ATOM     21  N   UNL     1       2.957  -0.285  -2.288  0.00  0.00    -0.307 N 
ATOM     22  H   UNL     1       2.640  -0.843  -3.015  0.00  0.00    +0.149 HD
BRANCH  19  23
ATOM     23  C   UNL     1       0.718  -0.497  -1.257  0.00  0.00    +0.102 C 
BRANCH  23  25
ATOM     24  C   UNL     1      -0.019   1.526   0.010  0.00  0.00    +0.011 C 
ATOM     25  C   UNL     1       0.002  -0.004   0.002  0.00  0.00    -0.029 C 
ATOM     26  C   UNL     1       0.742  -0.511   1.242  0.00  0.00    +0.011 C 
ATOM     27  C   UNL     1      -1.433  -0.534   0.013  0.00  0.00    +0.011 C 
ENDBRANCH  23  25
ENDBRANCH  19  23
ENDBRANCH  18  21
ENDBRANCH   1  18
TORSDOF 7
