REMARK  Name = ZINC39688413
REMARK  9 active torsions:
REMARK  status: ('A' for Active; 'I' for Inactive)
REMARK    1  A    between atoms: C_1  and  C_2
REMARK    2  A    between atoms: C_2  and  C_4
REMARK    3  A    between atoms: C_2  and  N_12
REMARK    4  A    between atoms: C_4  and  C_5
REMARK    5  A    between atoms: C_13  and  C_15
REMARK    6  A    between atoms: C_26  and  C_28
REMARK    7  A    between atoms: C_33  and  O_34
REMARK    8  A    between atoms: O_34  and  C_35
REMARK    9  A    between atoms: C_35  and  C_37
REMARK                            x       y       z     vdW  Elec       q    Type
REMARK                         _______ _______ _______ _____ _____    ______ ____
ROOT
ATOM      1  C   UNL     1      -2.171  -1.760   1.134  0.00  0.00    +0.100 C 
ATOM      2  C   UNL     1      -1.609  -2.854   0.200  0.00  0.00    +0.121 C 
ATOM      3  N   UNL     1      -0.373  -3.321   0.871  0.00  0.00    -0.296 N 
ATOM      4  C   UNL     1      -0.722  -3.344   2.312  0.00  0.00    +0.115 C 
ATOM      5  C   UNL     1      -1.590  -2.086   2.520  0.00  0.00    -0.004 C 
ATOM      6  C   UNL     1      -2.714  -2.378   3.509  0.00  0.00    -0.010 C 
ATOM      7  C   UNL     1      -2.114  -2.643   4.893  0.00  0.00    -0.082 C 
ATOM      8  N   UNL     1      -1.345  -1.470   5.328  0.00  0.00    +0.379 N 
ATOM      9  C   UNL     1      -0.210  -1.253   4.423  0.00  0.00    -0.082 C 
ATOM     10  C   UNL     1      -0.729  -0.929   3.019  0.00  0.00    -0.010 C 
ATOM     11  C   UNL     1       0.803  -3.651   0.301  0.00  0.00    +0.250 C 
ATOM     12  O   UNL     1       1.716  -4.067   0.988  0.00  0.00    -0.270 OA
ATOM     13  H   UNL     1      -1.942  -0.657   5.319  0.00  0.00    -0.086 HD
ATOM     14  H   UNL     1      -1.002  -1.623   6.264  0.00  0.00    -0.086 HD
ENDROOT
BRANCH  11  15
ATOM     15  C   UNL     1       0.982  -3.507  -1.157  0.00  0.00    +0.079 A 
ATOM     16  C   UNL     1       1.102  -2.238  -1.728  0.00  0.00    +0.017 A 
ATOM     17  C   UNL     1       1.270  -2.111  -3.090  0.00  0.00    +0.001 A 
ATOM     18  C   UNL     1       1.320  -3.236  -3.896  0.00  0.00    +0.004 A 
ATOM     19  C   UNL     1       1.202  -4.496  -3.344  0.00  0.00    +0.047 A 
ATOM     20  C   UNL     1       1.039  -4.643  -1.975  0.00  0.00    +0.144 A 
BRANCH  20  21
ATOM     21  O   UNL     1       0.929  -5.881  -1.431  0.00  0.00    -0.425 OA
BRANCH  21  22
ATOM     22  C   UNL     1      -0.290  -6.296  -1.049  0.00  0.00    +0.309 C 
ATOM     23  O   UNL     1      -1.261  -5.615  -1.283  0.00  0.00    -0.251 OA
ATOM     24  C   UNL     1      -0.448  -7.611  -0.330  0.00  0.00    +0.136 C 
ENDBRANCH  21  22
ENDBRANCH  20  21
ENDBRANCH  11  15
BRANCH   1  26
ATOM     25  N   UNL     1      -2.425   0.698   1.012  0.00  0.00    -0.312 N 
ATOM     26  C   UNL     1      -1.713  -0.397   0.681  0.00  0.00    +0.218 C 
ATOM     27  O   UNL     1      -0.703  -0.286   0.019  0.00  0.00    -0.275 OA
ATOM     28  H   UNL     1      -3.266   0.604   1.488  0.00  0.00    +0.149 HD
BRANCH  25  30
ATOM     29  C   UNL     1      -0.940   2.509   1.716  0.00  0.00    +0.028 C 
ATOM     30  C   UNL     1      -1.931   2.030   0.654  0.00  0.00    +0.074 C 
BRANCH  30  31
ATOM     31  C   UNL     1      -3.107   3.006   0.575  0.00  0.00    +0.057 C 
BRANCH  31  32
ATOM     32  C   UNL     1      -4.397   2.232   0.482  0.00  0.00    -0.045 A 
ATOM     33  C   UNL     1      -4.840   1.774  -0.745  0.00  0.00    +0.006 A 
ATOM     34  C   UNL     1      -6.022   1.064  -0.831  0.00  0.00    +0.038 A 
ATOM     35  C   UNL     1      -6.763   0.812   0.311  0.00  0.00    +0.123 A 
ATOM     36  C   UNL     1      -6.319   1.272   1.539  0.00  0.00    +0.038 A 
ATOM     37  C   UNL     1      -5.133   1.977   1.624  0.00  0.00    +0.006 A 
ATOM     38  F   UNL     1      -7.920   0.119   0.228  0.00  0.00    -0.205 F 
ENDBRANCH  31  32
ENDBRANCH  30  31
ENDBRANCH  25  30
ENDBRANCH   1  26
TORSDOF 7
