REMARK  Name = ZINC66952881
REMARK  9 active torsions:
REMARK  status: ('A' for Active; 'I' for Inactive)
REMARK    1  A    between atoms: C_1  and  C_2
REMARK    2  A    between atoms: C_2  and  N_3
REMARK    3  A    between atoms: N_3  and  C_4
REMARK    4  A    between atoms: N_3  and  C_6
REMARK    5  A    between atoms: C_4  and  C_5
REMARK    6  A    between atoms: C_9  and  C_13
REMARK    7  A    between atoms: C_13  and  N_14
REMARK    8  A    between atoms: N_17  and  C_18
REMARK    9  A    between atoms: N_24  and  C_28
REMARK                            x       y       z     vdW  Elec       q    Type
REMARK                         _______ _______ _______ _____ _____    ______ ____
ROOT
ATOM      1  N   UNL     1      -1.345  -1.748  -7.061  0.00  0.00    -0.295 N 
ATOM      2  C   UNL     1      -1.811  -2.038  -8.292  0.00  0.00    +0.304 C 
ATOM      3  O   UNL     1      -2.961  -1.772  -8.585  0.00  0.00    -0.252 OA
ATOM      4  N   UNL     1      -1.004  -2.624  -9.198  0.00  0.00    -0.269 N 
ATOM      5  H   UNL     1      -0.427  -1.961  -6.828  0.00  0.00    +0.151 HD
ATOM      6  H   UNL     1      -0.067  -2.767  -8.992  0.00  0.00    +0.156 HD
ENDROOT
BRANCH   4   7
ATOM      7  C   UNL     1      -1.518  -3.027 -10.438  0.00  0.00    +0.037 A 
ATOM      8  C   UNL     1      -0.715  -2.977 -11.572  0.00  0.00    +0.027 A 
ATOM      9  C   UNL     1      -1.216  -3.372 -12.796  0.00  0.00    +0.050 A 
ATOM     10  C   UNL     1      -2.523  -3.821 -12.897  0.00  0.00    +0.157 A 
ATOM     11  C   UNL     1      -3.330  -3.872 -11.761  0.00  0.00    +0.092 A 
ATOM     12  C   UNL     1      -2.825  -3.481 -10.532  0.00  0.00    +0.053 A 
ATOM     13  N   UNL     1      -4.571  -4.358 -12.174  0.00  0.00    -0.277 N 
ATOM     14  C   UNL     1      -4.496  -4.584 -13.500  0.00  0.00    +0.421 A 
ATOM     15  O   UNL     1      -5.401  -5.011 -14.192  0.00  0.00    -0.223 OA
ATOM     16  O   UNL     1      -3.270  -4.263 -13.940  0.00  0.00    -0.407 OA
ATOM     17  C   UNL     1      -5.741  -4.582 -11.321  0.00  0.00    +0.156 C 
ENDBRANCH   4   7
BRANCH   1  18
ATOM     18  C   UNL     1      -2.223  -1.112  -6.076  0.00  0.00    +0.141 C 
BRANCH  18  22
ATOM     19  C   UNL     1      -0.070  -0.500  -2.433  0.00  0.00    +0.065 A 
ATOM     20  C   UNL     1      -0.072   0.482  -3.415  0.00  0.00    +0.026 A 
ATOM     21  C   UNL     1      -0.768   0.281  -4.591  0.00  0.00    +0.007 A 
ATOM     22  C   UNL     1      -1.464  -0.897  -4.792  0.00  0.00    -0.027 A 
ATOM     23  C   UNL     1      -1.466  -1.878  -3.817  0.00  0.00    +0.045 A 
ATOM     24  C   UNL     1      -0.766  -1.686  -2.640  0.00  0.00    +0.145 A 
ATOM     25  F   UNL     1      -0.763  -2.647  -1.690  0.00  0.00    -0.204 F 
BRANCH  19  26
ATOM     26  N   UNL     1       0.634  -0.299  -1.242  0.00  0.00    -0.328 N 
BRANCH  26  28
ATOM     27  C   UNL     1       0.151   1.839  -0.157  0.00  0.00    +0.024 C 
ATOM     28  C   UNL     1      -0.031   0.321  -0.093  0.00  0.00    +0.102 C 
ENDBRANCH  26  28
BRANCH  26  29
ATOM     29  C   UNL     1       2.037  -0.709  -1.142  0.00  0.00    +0.102 C 
ATOM     30  C   UNL     1       2.112  -2.154  -0.644  0.00  0.00    +0.024 C 
ENDBRANCH  26  29
ENDBRANCH  19  26
ENDBRANCH  18  22
ENDBRANCH   1  18
TORSDOF 6
