REMARK  Name = ZINC12804251
REMARK  6 active torsions:
REMARK  status: ('A' for Active; 'I' for Inactive)
REMARK    1  A    between atoms: C_2  and  C_12
REMARK    2  A    between atoms: N_14  and  N_15
REMARK    3  A    between atoms: C_16  and  C_18
REMARK    4  A    between atoms: C_18  and  C_19
REMARK    5  A    between atoms: C_19  and  N_20
REMARK    6  A    between atoms: C_21  and  C_23
REMARK                            x       y       z     vdW  Elec       q    Type
REMARK                         _______ _______ _______ _____ _____    ______ ____
ROOT
ATOM      1  N   UNL     1      -9.471   1.117   3.370  0.00  0.00    -0.234 N 
ATOM      2  C   UNL     1      -8.647   0.808   2.349  0.00  0.00    +0.231 C 
ATOM      3  O   UNL     1      -9.043   0.111   1.440  0.00  0.00    -0.274 OA
ATOM      4  H   UNL     1      -9.155   1.675   4.097  0.00  0.00    +0.173 HD
ENDROOT
BRANCH   1   7
ATOM      5  C   UNL     1     -11.610   0.941   4.400  0.00  0.00    +0.279 C 
ATOM      6  O   UNL     1     -11.213   1.641   5.312  0.00  0.00    -0.267 OA
ATOM      7  N   UNL     1     -10.786   0.632   3.380  0.00  0.00    -0.229 N 
ATOM      8  H   UNL     1     -11.102   0.074   2.652  0.00  0.00    +0.173 HD
BRANCH   5  10
ATOM      9  C   UNL     1     -13.839   0.740   5.444  0.00  0.00    +0.081 A 
ATOM     10  C   UNL     1     -12.991   0.432   4.410  0.00  0.00    +0.136 A 
ATOM     11  N   UNL     1     -13.438  -0.333   3.412  0.00  0.00    -0.220 NA
ATOM     12  C   UNL     1     -14.670  -0.801   3.410  0.00  0.00    +0.162 A 
ATOM     13  S   UNL     1     -15.318  -0.123   4.931  0.00  0.00    -0.060 S 
ATOM     14  N   UNL     1     -15.299  -1.603   2.473  0.00  0.00    -0.305 N 
ATOM     15  C   UNL     1     -15.249  -0.991   1.137  0.00  0.00    +0.135 C 
ATOM     16  C   UNL     1     -15.901  -1.936   0.124  0.00  0.00    +0.179 C 
ATOM     17  O   UNL     1     -17.240  -2.221   0.539  0.00  0.00    -0.377 OA
ATOM     18  C   UNL     1     -17.325  -2.819   1.835  0.00  0.00    +0.179 C 
ATOM     19  C   UNL     1     -16.688  -1.883   2.866  0.00  0.00    +0.135 C 
ENDBRANCH   5  10
ENDBRANCH   1   7
BRANCH   2  20
ATOM     20  C   UNL     1      -7.233   1.330   2.338  0.00  0.00    +0.116 C 
BRANCH  20  21
ATOM     21  C   UNL     1      -6.517   0.837   1.080  0.00  0.00    +0.113 C 
BRANCH  21  22
ATOM     22  N   UNL     1      -5.143   1.344   1.069  0.00  0.00    -0.314 N 
ATOM     23  C   UNL     1      -4.318   1.035   0.049  0.00  0.00    +0.219 C 
ATOM     24  O   UNL     1      -4.714   0.337  -0.861  0.00  0.00    -0.275 OA
ATOM     25  H   UNL     1      -4.826   1.902   1.797  0.00  0.00    +0.149 HD
BRANCH  23  26
ATOM     26  C   UNL     1      -2.904   1.556   0.038  0.00  0.00    +0.048 C 
ATOM     27  C   UNL     1      -2.188   1.063  -1.221  0.00  0.00    +0.019 C 
ATOM     28  C   UNL     1      -0.753   1.593  -1.232  0.00  0.00    -0.009 C 
ATOM     29  C   UNL     1      -0.013   1.086   0.008  0.00  0.00    +0.007 C 
ATOM     30  C   UNL     1      -0.729   1.579   1.267  0.00  0.00    -0.009 C 
ATOM     31  C   UNL     1      -2.164   1.050   1.278  0.00  0.00    +0.019 C 
ATOM     32  C   UNL     1      -0.750   3.109   1.275  0.00  0.00    +0.007 C 
ATOM     33  C   UNL     1      -1.490   3.616   0.036  0.00  0.00    -0.009 C 
ATOM     34  C   UNL     1      -0.773   3.123  -1.223  0.00  0.00    +0.007 C 
ATOM     35  C   UNL     1      -2.925   3.086   0.047  0.00  0.00    +0.019 C 
ENDBRANCH  23  26
ENDBRANCH  21  22
ENDBRANCH  20  21
ENDBRANCH   2  20
TORSDOF 6
