REMARK  Name = ZINC59435331
REMARK  9 active torsions:
REMARK  status: ('A' for Active; 'I' for Inactive)
REMARK    1  A    between atoms: C_1  and  C_2
REMARK    2  A    between atoms: C_2  and  O_3
REMARK    3  A    between atoms: O_3  and  C_4
REMARK    4  A    between atoms: C_4  and  C_6
REMARK    5  A    between atoms: C_10  and  N_11
REMARK    6  A    between atoms: C_12  and  C_14
REMARK    7  A    between atoms: C_14  and  S_15
REMARK    8  A    between atoms: S_15  and  C_16
REMARK    9  A    between atoms: C_22  and  C_24
REMARK                            x       y       z     vdW  Elec       q    Type
REMARK                         _______ _______ _______ _____ _____    ______ ____
ROOT
ATOM      1  C   UNL     1       1.449  -2.344  -2.516  0.00  0.00    +0.091 A 
ATOM      2  C   UNL     1       2.879  -2.619  -2.513  0.00  0.00    -0.021 A 
ATOM      3  C   UNL     1       3.344  -3.112  -3.680  0.00  0.00    -0.004 A 
ATOM      4  S   UNL     1       1.920  -3.212  -4.728  0.00  0.00    -0.077 S 
ATOM      5  C   UNL     1       0.749  -2.623  -3.679  0.00  0.00    +0.086 A 
ATOM      6  C   UNL     1       4.754  -3.481  -4.020  0.00  0.00    +0.043 C 
ATOM      7  C   UNL     1       5.328  -4.361  -2.902  0.00  0.00    +0.005 C 
ATOM      8  C   UNL     1       5.969  -3.458  -1.852  0.00  0.00    +0.001 C 
ATOM      9  C   UNL     1       5.205  -2.139  -1.754  0.00  0.00    +0.005 C 
ATOM     10  C   UNL     1       3.769  -2.387  -1.301  0.00  0.00    +0.037 C 
ENDROOT
BRANCH   5  11
ATOM     11  N   UNL     1      -0.605  -2.453  -3.921  0.00  0.00    -0.279 N 
ATOM     12  C   UNL     1      -1.121  -2.780  -5.122  0.00  0.00    +0.228 C 
ATOM     13  O   UNL     1      -0.401  -3.223  -5.991  0.00  0.00    -0.275 OA
ATOM     14  H   UNL     1      -1.181  -2.098  -3.226  0.00  0.00    +0.155 HD
BRANCH  12  15
ATOM     15  C   UNL     1      -2.593  -2.595  -5.385  0.00  0.00    +0.173 C 
BRANCH  15  16
ATOM     16  S   UNL     1      -2.976  -3.121  -7.079  0.00  0.00    -0.078 S 
BRANCH  16  17
ATOM     17  C   UNL     1      -4.710  -2.847  -7.229  0.00  0.00    +0.170 A 
ATOM     18  N   UNL     1      -5.336  -3.148  -8.400  0.00  0.00    -0.302 N 
ATOM     19  H   UNL     1      -4.830  -3.511  -9.143  0.00  0.00    +0.171 HD
ATOM     20  C   UNL     1      -6.665  -2.941  -8.522  0.00  0.00    +0.252 A 
ATOM     21  O   UNL     1      -7.242  -3.206  -9.563  0.00  0.00    -0.268 OA
ATOM     22  C   UNL     1      -7.370  -2.415  -7.425  0.00  0.00    +0.093 A 
ATOM     23  C   UNL     1      -6.689  -2.131  -6.277  0.00  0.00    +0.046 A 
ATOM     24  N   UNL     1      -5.380  -2.358  -6.203  0.00  0.00    -0.228 NA
ATOM     25  C   UNL     1      -7.423  -1.566  -5.088  0.00  0.00    +0.066 C 
ENDBRANCH  16  17
ENDBRANCH  15  16
ENDBRANCH  12  15
ENDBRANCH   5  11
BRANCH   1  26
ATOM     26  C   UNL     1       0.776  -1.800  -1.335  0.00  0.00    +0.342 C 
ATOM     27  O   UNL     1       0.312  -2.552  -0.499  0.00  0.00    -0.245 OA
BRANCH  26  28
ATOM     28  O   UNL     1       0.671  -0.465  -1.174  0.00  0.00    -0.461 OA
BRANCH  28  30
ATOM     29  C   UNL     1      -0.019   1.526   0.010  0.00  0.00    +0.048 C 
ATOM     30  C   UNL     1       0.002  -0.004   0.002  0.00  0.00    +0.229 C 
ENDBRANCH  28  30
ENDBRANCH  26  28
ENDBRANCH   1  26
TORSDOF 7
