REMARK  Name = ZINC51122347
REMARK  4 active torsions:
REMARK  status: ('A' for Active; 'I' for Inactive)
REMARK    1  A    between atoms: C_6  and  N_7
REMARK    2  A    between atoms: C_8  and  C_10
REMARK    3  A    between atoms: C_12  and  N_17
REMARK    4  A    between atoms: N_17  and  N_18
REMARK                            x       y       z     vdW  Elec       q    Type
REMARK                         _______ _______ _______ _____ _____    ______ ____
ROOT
ATOM      1  N   UNL     1      -1.200  -0.721   0.010  0.00  0.00    -0.281 N 
ATOM      2  C   UNL     1      -1.184  -2.064  -0.099  0.00  0.00    +0.248 C 
ATOM      3  O   UNL     1      -0.125  -2.660  -0.113  0.00  0.00    -0.270 OA
ATOM      4  H   UNL     1      -2.044  -0.252   0.098  0.00  0.00    +0.155 HD
ENDROOT
BRANCH   1  10
ATOM      5  C   UNL     1       1.071  -0.453  -0.767  0.00  0.00    +0.026 A 
ATOM      6  C   UNL     1       2.256   0.256  -0.780  0.00  0.00    +0.041 A 
ATOM      7  C   UNL     1       2.379   1.415  -0.033  0.00  0.00    +0.142 A 
ATOM      8  C   UNL     1       1.313   1.866   0.730  0.00  0.00    +0.078 A 
ATOM      9  C   UNL     1       0.126   1.159   0.746  0.00  0.00    +0.046 A 
ATOM     10  C   UNL     1       0.002  -0.004  -0.004  0.00  0.00    +0.035 A 
ATOM     11 CL   UNL     1       1.470   3.319   1.667  0.00  0.00    -0.081 Cl
ATOM     12  F   UNL     1       3.539   2.107  -0.047  0.00  0.00    -0.204 F 
ENDBRANCH   1  10
BRANCH   2  13
ATOM     13  C   UNL     1      -2.457  -2.814  -0.202  0.00  0.00    +0.043 A 
ATOM     14  C   UNL     1      -2.462  -4.206  -0.310  0.00  0.00    +0.057 A 
ATOM     15  C   UNL     1      -3.680  -4.870  -0.404  0.00  0.00    +0.134 A 
ATOM     16  N   UNL     1      -4.820  -4.197  -0.391  0.00  0.00    -0.220 NA
ATOM     17  C   UNL     1      -4.853  -2.881  -0.291  0.00  0.00    +0.132 A 
ATOM     18  C   UNL     1      -3.687  -2.147  -0.188  0.00  0.00    +0.053 A 
ATOM     19 CL   UNL     1      -6.383  -2.062  -0.281  0.00  0.00    -0.062 Cl
BRANCH  15  20
ATOM     20  N   UNL     1      -3.701  -6.255  -0.512  0.00  0.00    -0.267 N 
ATOM     21  H   UNL     1      -2.869  -6.754  -0.522  0.00  0.00    +0.167 HD
BRANCH  20  22
ATOM     22  N   UNL     1      -4.894  -6.915  -0.605  0.00  0.00    -0.255 NA
ATOM     23  H   UNL     1      -5.438  -6.570  -1.381  0.00  0.00    +0.140 HD
ATOM     24  H   UNL     1      -4.751  -7.911  -0.677  0.00  0.00    +0.140 HD
ENDBRANCH  20  22
ENDBRANCH  15  20
ENDBRANCH   2  13
TORSDOF 4
