REMARK  Name = ZINC40728906
REMARK  5 active torsions:
REMARK  status: ('A' for Active; 'I' for Inactive)
REMARK    1  A    between atoms: C_4  and  C_7
REMARK    2  A    between atoms: C_7  and  N_8
REMARK    3  A    between atoms: C_15  and  N_31
REMARK    4  A    between atoms: C_16  and  N_20
REMARK    5  A    between atoms: N_20  and  C_21
REMARK                            x       y       z     vdW  Elec       q    Type
REMARK                         _______ _______ _______ _____ _____    ______ ____
ROOT
ATOM      1  N   UNL     1       4.240  -0.936   1.326  0.00  0.00    +0.384 N 
ATOM      2  C   UNL     1       3.272  -1.821   1.986  0.00  0.00    -0.059 C 
ATOM      3  C   UNL     1       3.658  -1.990   3.459  0.00  0.00    +0.088 C 
ATOM      4  N   UNL     1       5.051  -2.458   3.526  0.00  0.00    -0.317 N 
ATOM      5  C   UNL     1       6.067  -1.721   2.757  0.00  0.00    +0.088 C 
ATOM      6  C   UNL     1       5.567  -1.564   1.317  0.00  0.00    -0.059 C 
ATOM      7  C   UNL     1       5.398  -3.564   4.292  0.00  0.00    +0.147 A 
ATOM      8  C   UNL     1       5.870  -3.403   5.596  0.00  0.00    +0.106 A 
ATOM      9  C   UNL     1       6.203  -4.547   6.322  0.00  0.00    +0.149 A 
ATOM     10  N   UNL     1       6.061  -5.740   5.748  0.00  0.00    -0.219 NA
ATOM     11  C   UNL     1       5.612  -5.847   4.514  0.00  0.00    +0.225 A 
ATOM     12  N   UNL     1       5.281  -4.793   3.796  0.00  0.00    -0.219 NA
ATOM     13  H   UNL     1       4.287  -0.060   1.826  0.00  0.00    -0.081 HD
ENDROOT
BRANCH   8  14
ATOM     14  N   UNL     1       6.005  -2.125   6.162  0.00  0.00    -0.353 N 
ATOM     15  H   UNL     1       5.701  -1.344   5.674  0.00  0.00    +0.143 HD
ATOM     16  H   UNL     1       6.402  -2.023   7.042  0.00  0.00    +0.143 HD
ENDBRANCH   8  14
BRANCH   9  17
ATOM     17  N   UNL     1       6.678  -4.444   7.625  0.00  0.00    -0.297 N 
ATOM     18  H   UNL     1       6.698  -3.580   8.067  0.00  0.00    +0.154 HD
BRANCH  17  19
ATOM     19  C   UNL     1       7.125  -5.580   8.296  0.00  0.00    +0.042 A 
ATOM     20  C   UNL     1       7.582  -6.672   7.588  0.00  0.00    +0.024 A 
ATOM     21  C   UNL     1       8.030  -7.809   8.252  0.00  0.00    +0.004 A 
ATOM     22  C   UNL     1       8.030  -7.878   9.612  0.00  0.00    +0.028 A 
ATOM     23  C   UNL     1       7.573  -6.788  10.372  0.00  0.00    +0.073 A 
ATOM     24  C   UNL     1       7.120  -5.622   9.706  0.00  0.00    +0.022 A 
ATOM     25  C   UNL     1       6.668  -4.532  10.469  0.00  0.00    +0.013 A 
ATOM     26  C   UNL     1       6.691  -4.644  11.831  0.00  0.00    +0.020 A 
ATOM     27  C   UNL     1       7.154  -5.816  12.424  0.00  0.00    +0.111 A 
ATOM     28  N   UNL     1       7.565  -6.835  11.708  0.00  0.00    -0.255 NA
ENDBRANCH  17  19
ENDBRANCH   9  17
BRANCH   1  29
ATOM     29  C   UNL     1       3.809  -0.685  -0.056  0.00  0.00    -0.043 C 
BRANCH  29  33
ATOM     30  C   UNL     1       0.112   1.455  -0.031  0.00  0.00    +0.000 A 
ATOM     31  C   UNL     1       1.310   2.145  -0.034  0.00  0.00    +0.000 A 
ATOM     32  C   UNL     1       2.507   1.452  -0.041  0.00  0.00    +0.002 A 
ATOM     33  C   UNL     1       2.505   0.070  -0.046  0.00  0.00    -0.064 A 
ATOM     34  C   UNL     1       1.307  -0.620  -0.043  0.00  0.00    +0.002 A 
ATOM     35  C   UNL     1       0.111   0.073  -0.037  0.00  0.00    +0.000 A 
ENDBRANCH  29  33
ENDBRANCH   1  29
TORSDOF 5
