REMARK  Name = ZINC37426309
REMARK  6 active torsions:
REMARK  status: ('A' for Active; 'I' for Inactive)
REMARK    1  A    between atoms: C_1  and  C_2
REMARK    2  A    between atoms: C_2  and  C_3
REMARK    3  A    between atoms: C_2  and  N_4
REMARK    4  A    between atoms: C_5  and  C_7
REMARK    5  A    between atoms: C_14  and  C_16
REMARK    6  A    between atoms: N_21  and  C_22
REMARK                            x       y       z     vdW  Elec       q    Type
REMARK                         _______ _______ _______ _____ _____    ______ ____
ROOT
ATOM      1  C   UNL     1       2.543  -1.533  -2.421  0.00  0.00    +0.092 C 
ATOM      2  C   UNL     1       4.038  -1.662  -2.121  0.00  0.00    +0.016 C 
ATOM      3  C   UNL     1       4.757  -2.240  -3.342  0.00  0.00    +0.020 C 
ATOM      4  C   UNL     1       4.582  -1.289  -4.530  0.00  0.00    +0.108 C 
ATOM      5  N   UNL     1       3.148  -1.045  -4.734  0.00  0.00    -0.296 N 
ATOM      6  C   UNL     1       2.342  -0.575  -3.599  0.00  0.00    +0.120 C 
ATOM      7  C   UNL     1       2.581  -1.250  -5.940  0.00  0.00    +0.266 C 
ATOM      8  O   UNL     1       1.373  -1.179  -6.064  0.00  0.00    -0.268 OA
ENDROOT
BRANCH   7   9
ATOM      9  C   UNL     1       3.424  -1.558  -7.106  0.00  0.00    +0.135 A 
ATOM     10  C   UNL     1       2.855  -1.953  -8.291  0.00  0.00    +0.081 A 
ATOM     11  S   UNL     1       4.313  -2.178  -9.302  0.00  0.00    -0.060 S 
ATOM     12  C   UNL     1       5.520  -1.730  -8.063  0.00  0.00    +0.163 A 
ATOM     13  N   UNL     1       4.752  -1.453  -7.029  0.00  0.00    -0.220 NA
ATOM     14  N   UNL     1       6.901  -1.682  -8.165  0.00  0.00    -0.294 N 
ATOM     15  H   UNL     1       7.441  -1.524  -7.375  0.00  0.00    +0.154 HD
BRANCH  14  16
ATOM     16  C   UNL     1       7.518  -1.862  -9.407  0.00  0.00    +0.034 A 
ATOM     17  C   UNL     1       6.924  -1.357 -10.558  0.00  0.00    +0.025 A 
ATOM     18  C   UNL     1       7.535  -1.536 -11.784  0.00  0.00    +0.023 A 
ATOM     19  C   UNL     1       8.737  -2.217 -11.867  0.00  0.00    +0.059 A 
ATOM     20  C   UNL     1       9.331  -2.721 -10.722  0.00  0.00    +0.061 A 
ATOM     21  C   UNL     1       8.726  -2.541  -9.492  0.00  0.00    +0.044 A 
ATOM     22 CL   UNL     1      10.838  -3.575 -10.831  0.00  0.00    -0.082 Cl
ATOM     23 CL   UNL     1       9.501  -2.439 -13.410  0.00  0.00    -0.082 Cl
ENDBRANCH  14  16
ENDBRANCH   7   9
BRANCH   1  25
ATOM     24  N   UNL     1       0.498  -0.796  -1.240  0.00  0.00    -0.313 N 
ATOM     25  C   UNL     1       1.831  -0.994  -1.207  0.00  0.00    +0.218 C 
ATOM     26  O   UNL     1       2.457  -0.739  -0.200  0.00  0.00    -0.275 OA
ATOM     27  H   UNL     1      -0.003  -1.000  -2.046  0.00  0.00    +0.149 HD
BRANCH  24  29
ATOM     28  C   UNL     1      -0.114   1.256  -0.059  0.00  0.00    +0.027 C 
ATOM     29  C   UNL     1      -0.194  -0.272  -0.060  0.00  0.00    +0.067 C 
ATOM     30  C   UNL     1      -1.661  -0.706  -0.095  0.00  0.00    +0.027 C 
ENDBRANCH  24  29
ENDBRANCH   1  25
TORSDOF 4
