REMARK  Name = ZINC63709751
REMARK  10 active torsions:
REMARK  status: ('A' for Active; 'I' for Inactive)
REMARK    1  A    between atoms: C_1  and  O_2
REMARK    2  A    between atoms: O_2  and  C_3
REMARK    3  A    between atoms: C_6  and  C_11
REMARK    4  A    between atoms: C_8  and  O_9
REMARK    5  A    between atoms: O_9  and  C_10
REMARK    6  A    between atoms: C_11  and  C_12
REMARK    7  A    between atoms: C_12  and  N_13
REMARK    8  A    between atoms: C_14  and  S_24
REMARK    9  A    between atoms: S_24  and  C_25
REMARK   10  A    between atoms: C_25  and  C_26
REMARK                            x       y       z     vdW  Elec       q    Type
REMARK                         _______ _______ _______ _____ _____    ______ ____
ROOT
ATOM      1  N   UNL     1       4.640  -3.366  -5.213  0.00  0.00    -0.269 N 
ATOM      2  C   UNL     1       4.678  -4.825  -5.279  0.00  0.00    +0.222 C 
ATOM      3  N   UNL     1       4.600  -5.318  -6.661  0.00  0.00    -0.316 N 
ATOM      4  C   UNL     1       5.319  -4.594  -7.633  0.00  0.00    +0.048 A 
ATOM      5  C   UNL     1       5.810  -5.028  -8.845  0.00  0.00    +0.031 A 
ATOM      6  C   UNL     1       6.478  -4.158  -9.644  0.00  0.00    +0.048 A 
ATOM      7  S   UNL     1       6.473  -2.710  -8.786  0.00  0.00    -0.090 S 
ATOM      8  C   UNL     1       5.588  -3.242  -7.358  0.00  0.00    +0.095 A 
ATOM      9  C   UNL     1       5.189  -2.594  -6.186  0.00  0.00    +0.257 C 
ATOM     10  O   UNL     1       5.330  -1.393  -6.044  0.00  0.00    -0.269 OA
ATOM     11  H   UNL     1       4.080  -6.103  -6.893  0.00  0.00    +0.149 HD
ENDROOT
BRANCH   1  12
ATOM     12  C   UNL     1       3.989  -2.719  -4.072  0.00  0.00    +0.115 C 
BRANCH  12  13
ATOM     13  C   UNL     1       2.507  -2.501  -4.386  0.00  0.00    +0.054 C 
BRANCH  13  17
ATOM     14  C   UNL     1       0.606  -0.608  -1.056  0.00  0.00    +0.161 A 
ATOM     15  C   UNL     1       1.173   0.159  -2.062  0.00  0.00    +0.049 A 
ATOM     16  C   UNL     1       1.787  -0.456  -3.137  0.00  0.00    +0.007 A 
ATOM     17  C   UNL     1       1.837  -1.836  -3.212  0.00  0.00    -0.042 A 
ATOM     18  C   UNL     1       1.273  -2.606  -2.212  0.00  0.00    +0.053 A 
ATOM     19  C   UNL     1       0.662  -1.996  -1.129  0.00  0.00    +0.162 A 
BRANCH  14  21
ATOM     20  C   UNL     1      -0.017   1.425   0.010  0.00  0.00    +0.277 C 
ATOM     21  O   UNL     1       0.002  -0.004   0.002  0.00  0.00    -0.491 OA
ENDBRANCH  14  21
BRANCH  19  22
ATOM     22  O   UNL     1       0.112  -2.753  -0.142  0.00  0.00    -0.491 OA
ATOM     23  C   UNL     1       0.206  -4.171  -0.283  0.00  0.00    +0.277 C 
ENDBRANCH  19  22
ENDBRANCH  13  17
ENDBRANCH  12  13
ENDBRANCH   1  12
BRANCH   2  24
ATOM     24  S   UNL     1       6.226  -5.408  -4.534  0.00  0.00    -0.115 S 
BRANCH  24  25
ATOM     25  C   UNL     1       7.519  -4.638  -5.548  0.00  0.00    +0.119 C 
BRANCH  25  26
ATOM     26  C   UNL     1       8.894  -5.053  -5.021  0.00  0.00    +0.184 C 
ATOM     27  N   UNL     1       9.011  -6.516  -5.014  0.00  0.00    -0.363 N 
ATOM     28  C   UNL     1       9.211  -6.886  -3.782  0.00  0.00    +0.060 A 
ATOM     29  C   UNL     1       9.402  -8.200  -3.152  0.00  0.00    +0.027 A 
ATOM     30  C   UNL     1       9.592  -8.277  -1.820  0.00  0.00    +0.002 A 
ATOM     31  C   UNL     1       9.616  -7.142  -0.990  0.00  0.00    +0.002 A 
ATOM     32  C   UNL     1       9.451  -5.891  -1.465  0.00  0.00    +0.027 A 
ATOM     33  C   UNL     1       9.237  -5.684  -2.904  0.00  0.00    +0.060 A 
ATOM     34  N   UNL     1       9.052  -4.618  -3.627  0.00  0.00    -0.363 N 
ATOM     35  H   UNL     1       8.951  -7.100  -5.786  0.00  0.00    +0.162 HD
ATOM     36  H   UNL     1       9.024  -3.704  -3.305  0.00  0.00    +0.162 HD
ENDBRANCH  25  26
ENDBRANCH  24  25
ENDBRANCH   2  24
TORSDOF 8
