REMARK  Name = ZINC13267048
REMARK  7 active torsions:
REMARK  status: ('A' for Active; 'I' for Inactive)
REMARK    1  A    between atoms: C_4  and  N_7
REMARK    2  A    between atoms: C_13  and  C_29
REMARK    3  A    between atoms: C_17  and  S_18
REMARK    4  A    between atoms: S_18  and  C_19
REMARK    5  A    between atoms: C_19  and  C_20
REMARK    6  A    between atoms: N_22  and  C_23
REMARK    7  A    between atoms: C_23  and  C_24
REMARK                            x       y       z     vdW  Elec       q    Type
REMARK                         _______ _______ _______ _____ _____    ______ ____
ROOT
ATOM      1  N   UNL     1       2.124   3.438  -0.005  0.00  0.00    -0.255 N 
ATOM      2  C   UNL     1       3.291   3.591   0.663  0.00  0.00    +0.267 A 
ATOM      3  O   UNL     1       3.536   4.614   1.277  0.00  0.00    -0.267 OA
ATOM      4  C   UNL     1       4.253   2.480   0.618  0.00  0.00    +0.065 A 
ATOM      5  C   UNL     1       5.483   2.550   1.272  0.00  0.00    +0.016 A 
ATOM      6  C   UNL     1       6.350   1.497   1.205  0.00  0.00    +0.016 A 
ATOM      7  C   UNL     1       6.016   0.343   0.483  0.00  0.00    +0.065 A 
ATOM      8  C   UNL     1       4.797   0.252  -0.176  0.00  0.00    +0.043 A 
ATOM      9  C   UNL     1       3.901   1.323  -0.114  0.00  0.00    +0.080 A 
ATOM     10  N   UNL     1       2.702   1.279  -0.742  0.00  0.00    -0.223 NA
ATOM     11  C   UNL     1       1.861   2.281  -0.686  0.00  0.00    +0.177 A 
ENDROOT
BRANCH   1  15
ATOM     12  C   UNL     1      -0.693   6.509   0.022  0.00  0.00    +0.000 A 
ATOM     13  C   UNL     1       0.271   6.466  -0.969  0.00  0.00    +0.002 A 
ATOM     14  C   UNL     1       1.206   5.449  -0.980  0.00  0.00    +0.026 A 
ATOM     15  C   UNL     1       1.177   4.470   0.004  0.00  0.00    +0.052 A 
ATOM     16  C   UNL     1       0.204   4.513   0.993  0.00  0.00    +0.026 A 
ATOM     17  C   UNL     1      -0.724   5.535   1.003  0.00  0.00    +0.002 A 
ENDBRANCH   1  15
BRANCH   7  18
ATOM     18  C   UNL     1       6.970  -0.786   0.423  0.00  0.00    +0.387 C 
ATOM     19  O   UNL     1       6.685  -1.788  -0.202  0.00  0.00    -0.241 OA
ATOM     20  O   UNL     1       8.153  -0.704   1.060  0.00  0.00    -0.241 OA
ENDBRANCH   7  18
BRANCH  11  21
ATOM     21  S   UNL     1       0.323   2.136  -1.533  0.00  0.00    -0.078 S 
BRANCH  21  22
ATOM     22  C   UNL     1       0.506   0.478  -2.235  0.00  0.00    +0.173 C 
BRANCH  22  23
ATOM     23  C   UNL     1      -0.728   0.129  -3.027  0.00  0.00    +0.224 C 
ATOM     24  O   UNL     1      -1.641   0.922  -3.108  0.00  0.00    -0.275 OA
ATOM     25  N   UNL     1      -0.816  -1.066  -3.644  0.00  0.00    -0.308 N 
ATOM     26  H   UNL     1      -0.086  -1.701  -3.579  0.00  0.00    +0.149 HD
BRANCH  25  27
ATOM     27  C   UNL     1      -2.016  -1.406  -4.413  0.00  0.00    +0.178 C 
BRANCH  27  28
ATOM     28  C   UNL     1      -1.863  -2.787  -4.998  0.00  0.00    +0.122 A 
ATOM     29  C   UNL     1      -2.236  -3.936  -4.408  0.00  0.00    +0.046 A 
ATOM     30  C   UNL     1      -1.911  -4.981  -5.303  0.00  0.00    +0.041 A 
ATOM     31  C   UNL     1      -1.358  -4.407  -6.387  0.00  0.00    +0.195 A 
ATOM     32  O   UNL     1      -1.337  -3.077  -6.199  0.00  0.00    -0.466 OA
ENDBRANCH  27  28
ENDBRANCH  25  27
ENDBRANCH  22  23
ENDBRANCH  21  22
ENDBRANCH  11  21
TORSDOF 7
