REMARK  Name = ZINC38804842
REMARK  6 active torsions:
REMARK  status: ('A' for Active; 'I' for Inactive)
REMARK    1  A    between atoms: C_1  and  C_2
REMARK    2  A    between atoms: C_10  and  N_16
REMARK    3  A    between atoms: C_11  and  C_12
REMARK    4  A    between atoms: C_12  and  O_14
REMARK    5  A    between atoms: O_14  and  C_15
REMARK    6  A    between atoms: C_17  and  C_19
REMARK                            x       y       z     vdW  Elec       q    Type
REMARK                         _______ _______ _______ _____ _____    ______ ____
ROOT
ATOM      1  C   UNL     1      -0.018   1.503   0.010  0.00  0.00    +0.109 C 
ATOM      2  C   UNL     1       0.002  -0.004   0.002  0.00  0.00    +0.213 C 
ATOM      3  O   UNL     1       1.060  -0.596  -0.011  0.00  0.00    -0.276 OA
ATOM      4  N   UNL     1      -1.156  -0.694   0.009  0.00  0.00    -0.297 N 
ATOM      5  C   UNL     1      -1.167  -2.164   0.008  0.00  0.00    +0.113 C 
ATOM      6  C   UNL     1      -1.787  -2.674   1.311  0.00  0.00    +0.056 C 
ATOM      7  C   UNL     1      -3.079  -1.917   1.578  0.00  0.00    -0.018 A 
ATOM      8  C   UNL     1      -3.340  -0.731   0.988  0.00  0.00    +0.013 A 
ATOM      9  S   UNL     1      -4.926  -0.256   1.607  0.00  0.00    -0.076 S 
ATOM     10  C   UNL     1      -5.247  -1.567   2.606  0.00  0.00    +0.086 A 
ATOM     11  C   UNL     1      -4.131  -2.378   2.469  0.00  0.00    +0.091 A 
ATOM     12  C   UNL     1      -2.459  -0.000   0.025  0.00  0.00    +0.150 C 
ENDROOT
BRANCH  10  13
ATOM     13  N   UNL     1      -6.370  -1.788   3.389  0.00  0.00    -0.279 N 
ATOM     14  C   UNL     1      -7.370  -0.885   3.401  0.00  0.00    +0.221 C 
ATOM     15  O   UNL     1      -7.288   0.121   2.729  0.00  0.00    -0.275 OA
ATOM     16  H   UNL     1      -6.436  -2.592   3.927  0.00  0.00    +0.155 HD
BRANCH  14  17
ATOM     17  C   UNL     1      -8.591  -1.125   4.252  0.00  0.00    +0.075 C 
ATOM     18  C   UNL     1      -9.327  -2.394   3.774  0.00  0.00    +0.013 C 
ATOM     19  C   UNL     1     -10.827  -2.049   3.942  0.00  0.00    +0.001 C 
ATOM     20  C   UNL     1     -10.884  -0.557   3.526  0.00  0.00    +0.001 C 
ATOM     21  C   UNL     1      -9.581   0.043   4.094  0.00  0.00    +0.013 C 
ENDBRANCH  14  17
ENDBRANCH  10  13
BRANCH  11  22
ATOM     22  C   UNL     1      -4.016  -3.647   3.191  0.00  0.00    +0.342 C 
ATOM     23  O   UNL     1      -3.507  -3.675   4.295  0.00  0.00    -0.245 OA
BRANCH  22  24
ATOM     24  O   UNL     1      -4.476  -4.785   2.632  0.00  0.00    -0.464 OA
ATOM     25  C   UNL     1      -4.332  -5.986   3.393  0.00  0.00    +0.280 C 
ENDBRANCH  22  24
ENDBRANCH  11  22
TORSDOF 4
