REMARK  Name = ZINC49060190
REMARK  6 active torsions:
REMARK  status: ('A' for Active; 'I' for Inactive)
REMARK    1  A    between atoms: C_1  and  C_2
REMARK    2  A    between atoms: C_5  and  C_8
REMARK    3  A    between atoms: N_13  and  C_15
REMARK    4  A    between atoms: C_15  and  C_17
REMARK    5  A    between atoms: C_15  and  C_18
REMARK    6  A    between atoms: C_26  and  C_28
REMARK                            x       y       z     vdW  Elec       q    Type
REMARK                         _______ _______ _______ _____ _____    ______ ____
ROOT
ATOM      1  C   UNL     1       0.066  -6.788   2.524  0.00  0.00    +0.193 C 
ATOM      2  C   UNL     1      -1.129  -5.989   3.047  0.00  0.00    +0.043 C 
ENDROOT
BRANCH   1   3
ATOM      3  C   UNL     1       1.307  -6.388   3.280  0.00  0.00    +0.240 C 
ATOM      4  O   UNL     1       2.052  -5.547   2.821  0.00  0.00    -0.273 OA
ATOM      5  N   UNL     1       1.589  -6.964   4.465  0.00  0.00    -0.297 N 
ATOM      6  C   UNL     1       0.757  -8.059   4.981  0.00  0.00    +0.127 C 
ATOM      7  C   UNL     1       1.660  -9.264   5.275  0.00  0.00    +0.127 C 
ATOM      8  N   UNL     1       2.806  -8.808   6.074  0.00  0.00    -0.296 N 
ATOM      9  C   UNL     1       3.638  -7.712   5.558  0.00  0.00    +0.127 C 
ATOM     10  C   UNL     1       2.739  -6.511   5.262  0.00  0.00    +0.127 C 
ATOM     11  C   UNL     1       3.088  -9.384   7.260  0.00  0.00    +0.245 C 
ATOM     12  O   UNL     1       4.080  -9.053   7.874  0.00  0.00    -0.273 OA
BRANCH  11  13
ATOM     13  C   UNL     1       2.171 -10.440   7.822  0.00  0.00    +0.204 C 
ATOM     14  C   UNL     1       2.310 -11.757   7.017  0.00  0.00    +0.043 C 
ATOM     15  C   UNL     1       1.853 -12.798   8.075  0.00  0.00    +0.031 C 
ATOM     16  C   UNL     1       2.370 -12.177   9.390  0.00  0.00    +0.161 C 
ATOM     17  O   UNL     1       2.559 -10.774   9.164  0.00  0.00    -0.367 OA
ENDBRANCH  11  13
ENDBRANCH   1   3
BRANCH   1  23
ATOM     18  C   UNL     1       0.659  -4.985  -0.540  0.00  0.00    +0.092 A 
ATOM     19  C   UNL     1       0.599  -5.981  -1.542  0.00  0.00    +0.035 A 
ATOM     20  C   UNL     1       0.356  -7.268  -1.160  0.00  0.00    +0.074 A 
ATOM     21  C   UNL     1       0.178  -7.526   0.217  0.00  0.00    +0.268 A 
ATOM     22  O   UNL     1      -0.042  -8.661   0.606  0.00  0.00    -0.266 OA
ATOM     23  N   UNL     1       0.253  -6.510   1.097  0.00  0.00    -0.217 N 
ATOM     24  N   UNL     1       0.487  -5.305   0.721  0.00  0.00    -0.168 NA
BRANCH  18  29
ATOM     25  C   UNL     1       1.678   0.493  -1.996  0.00  0.00    +0.044 C 
ATOM     26  C   UNL     1       1.412  -0.941  -1.615  0.00  0.00    -0.050 A 
ATOM     27  C   UNL     1       1.349  -1.914  -2.596  0.00  0.00    +0.004 A 
ATOM     28  C   UNL     1       1.105  -3.228  -2.253  0.00  0.00    +0.010 A 
ATOM     29  C   UNL     1       0.922  -3.574  -0.915  0.00  0.00    +0.002 A 
ATOM     30  C   UNL     1       0.987  -2.589   0.069  0.00  0.00    +0.010 A 
ATOM     31  C   UNL     1       1.237  -1.279  -0.285  0.00  0.00    +0.004 A 
ENDBRANCH  18  29
ENDBRANCH   1  23
TORSDOF 4
