REMARK  Name = ZINC39688501
REMARK  7 active torsions:
REMARK  status: ('A' for Active; 'I' for Inactive)
REMARK    1  A    between atoms: C_1  and  C_2
REMARK    2  A    between atoms: C_2  and  C_4
REMARK    3  A    between atoms: C_2  and  N_12
REMARK    4  A    between atoms: C_4  and  C_5
REMARK    5  A    between atoms: C_13  and  C_15
REMARK    6  A    between atoms: C_26  and  C_28
REMARK    7  A    between atoms: C_31  and  C_35
REMARK                            x       y       z     vdW  Elec       q    Type
REMARK                         _______ _______ _______ _____ _____    ______ ____
ROOT
ATOM      1  C   UNL     1       1.722  -2.007   0.996  0.00  0.00    +0.100 C 
ATOM      2  C   UNL     1       0.515  -2.972   0.964  0.00  0.00    +0.121 C 
ATOM      3  N   UNL     1       0.279  -3.229  -0.476  0.00  0.00    -0.296 N 
ATOM      4  C   UNL     1       1.638  -3.336  -1.059  0.00  0.00    +0.115 C 
ATOM      5  C   UNL     1       2.458  -2.251  -0.332  0.00  0.00    -0.004 C 
ATOM      6  C   UNL     1       3.875  -2.750  -0.066  0.00  0.00    -0.010 C 
ATOM      7  C   UNL     1       4.607  -2.930  -1.399  0.00  0.00    -0.082 C 
ATOM      8  N   UNL     1       4.644  -1.650  -2.116  0.00  0.00    +0.379 N 
ATOM      9  C   UNL     1       3.279  -1.224  -2.450  0.00  0.00    -0.082 C 
ATOM     10  C   UNL     1       2.492  -0.971  -1.161  0.00  0.00    -0.010 C 
ATOM     11  C   UNL     1      -0.904  -3.340  -1.112  0.00  0.00    +0.249 C 
ATOM     12  O   UNL     1      -0.933  -3.607  -2.297  0.00  0.00    -0.270 OA
ATOM     13  H   UNL     1       5.080  -0.952  -1.533  0.00  0.00    -0.086 HD
ATOM     14  H   UNL     1       5.178  -1.757  -2.965  0.00  0.00    -0.086 HD
ENDROOT
BRANCH  11  15
ATOM     15  C   UNL     1      -2.164  -3.138  -0.369  0.00  0.00    +0.072 A 
ATOM     16  C   UNL     1      -2.545  -1.855   0.032  0.00  0.00    +0.016 A 
ATOM     17  C   UNL     1      -3.722  -1.673   0.725  0.00  0.00    +0.013 A 
ATOM     18  C   UNL     1      -4.528  -2.758   1.026  0.00  0.00    +0.058 A 
ATOM     19  C   UNL     1      -4.160  -4.031   0.635  0.00  0.00    +0.051 A 
ATOM     20  C   UNL     1      -2.984  -4.229  -0.067  0.00  0.00    +0.136 A 
ATOM     21  F   UNL     1      -2.627  -5.473  -0.454  0.00  0.00    -0.205 F 
BRANCH  18  22
ATOM     22  C   UNL     1      -5.814  -2.549   1.784  0.00  0.00    +0.418 C 
ATOM     23  F   UNL     1      -6.875  -2.432   0.880  0.00  0.00    -0.166 F 
ATOM     24  F   UNL     1      -6.040  -3.641   2.629  0.00  0.00    -0.166 F 
ATOM     25  F   UNL     1      -5.720  -1.381   2.548  0.00  0.00    -0.166 F 
ENDBRANCH  18  22
ENDBRANCH  11  15
BRANCH   1  27
ATOM     26  N   UNL     1       2.058   0.370   1.592  0.00  0.00    -0.312 N 
ATOM     27  C   UNL     1       1.249  -0.578   1.079  0.00  0.00    +0.218 C 
ATOM     28  O   UNL     1       0.142  -0.282   0.683  0.00  0.00    -0.275 OA
ATOM     29  H   UNL     1       2.912   0.122   1.978  0.00  0.00    +0.149 HD
BRANCH  26  31
ATOM     30  C   UNL     1       2.002   2.388   0.211  0.00  0.00    +0.028 C 
ATOM     31  C   UNL     1       1.645   1.776   1.567  0.00  0.00    +0.074 C 
BRANCH  31  32
ATOM     32  C   UNL     1       2.369   2.539   2.678  0.00  0.00    +0.057 C 
BRANCH  32  33
ATOM     33  C   UNL     1       3.218   1.582   3.474  0.00  0.00    -0.045 A 
ATOM     34  C   UNL     1       2.655   0.853   4.505  0.00  0.00    +0.006 A 
ATOM     35  C   UNL     1       3.432  -0.025   5.236  0.00  0.00    +0.038 A 
ATOM     36  C   UNL     1       4.776  -0.174   4.936  0.00  0.00    +0.123 A 
ATOM     37  C   UNL     1       5.338   0.557   3.903  0.00  0.00    +0.038 A 
ATOM     38  C   UNL     1       4.558   1.430   3.170  0.00  0.00    +0.006 A 
ATOM     39  F   UNL     1       5.537  -1.032   5.650  0.00  0.00    -0.205 F 
ENDBRANCH  32  33
ENDBRANCH  31  32
ENDBRANCH  26  31
ENDBRANCH   1  27
TORSDOF 6
