REMARK  Name = ZINC33933377
REMARK  9 active torsions:
REMARK  status: ('A' for Active; 'I' for Inactive)
REMARK    1  A    between atoms: C_1  and  C_2
REMARK    2  A    between atoms: C_4  and  C_17
REMARK    3  A    between atoms: N_8  and  C_10
REMARK    4  A    between atoms: CA_23  and  C_26
REMARK    5  A    between atoms: N_31  and  C_34
REMARK    6  A    between atoms: C_34  and  C_35
REMARK    7  A    between atoms: C_35  and  N_36
REMARK    8  A    between atoms: N_36  and  C_37
REMARK    9  A    between atoms: C_37  and  C_38
REMARK                            x       y       z     vdW  Elec       q    Type
REMARK                         _______ _______ _______ _____ _____    ______ ____
ROOT
ATOM      1  C   UNL     1      -0.134  -0.738  -2.428  0.00  0.00    -0.050 C 
ATOM      2  C   UNL     1       0.673  -1.091  -3.674  0.00  0.00    +0.073 C 
ATOM      3  C   UNL     1      -0.439  -0.740  -4.733  0.00  0.00    +0.082 C 
ATOM      4  CA  UNL     1      -0.910   0.585  -4.309  0.00  0.00    +0.057 C 
ATOM      5  N   UNL     1      -0.796   0.554  -2.803  0.00  0.00    +0.391 N 
ATOM      6  C   UNL     1       0.045  -1.417  -5.912  0.00  0.00    +0.224 C 
ATOM      7  O   UNL     1      -0.072  -1.067  -7.066  0.00  0.00    -0.275 OA
ATOM      8  N   UNL     1       0.669  -2.546  -5.441  0.00  0.00    -0.244 N 
ATOM      9  C   UNL     1       0.885  -2.516  -4.078  0.00  0.00    +0.224 C 
ATOM     10  O   UNL     1       1.179  -3.442  -3.354  0.00  0.00    -0.275 OA
ATOM     11  H1  UNL     1      -1.711   0.605  -2.380  0.00  0.00    -0.084 HD
ATOM     12  H2  UNL     1      -0.231   1.331  -2.495  0.00  0.00    -0.084 HD
ENDROOT
BRANCH   1  15
ATOM     13  C   UNL     1       0.124   1.646  -0.119  0.00  0.00    +0.026 C 
ATOM     14  C   UNL     1       0.032   0.121  -0.041  0.00  0.00    +0.074 C 
ATOM     15  C   UNL     1       0.789  -0.542  -1.224  0.00  0.00    +0.031 C 
ATOM     16  C   UNL     1       1.187  -1.901  -0.599  0.00  0.00    +0.185 C 
ATOM     17  N   UNL     1       1.106  -1.702   0.857  0.00  0.00    -0.249 N 
ATOM     18  N   UNL     1       0.783  -0.398   1.131  0.00  0.00    -0.236 NA
ATOM     19 CL   UNL     1       0.037  -3.188  -1.121  0.00  0.00    -0.099 Cl
ATOM     20  H   UNL     1       1.612   0.151   1.301  0.00  0.00    +0.145 HD
BRANCH  17  21
ATOM     21  C   UNL     1       1.323  -2.694   1.816  0.00  0.00    +0.046 A 
ATOM     22  C   UNL     1       1.650  -3.985   1.421  0.00  0.00    +0.024 A 
ATOM     23  C   UNL     1       1.865  -4.963   2.372  0.00  0.00    +0.002 A 
ATOM     24  C   UNL     1       1.755  -4.658   3.716  0.00  0.00    +0.000 A 
ATOM     25  C   UNL     1       1.429  -3.374   4.113  0.00  0.00    +0.002 A 
ATOM     26  C   UNL     1       1.219  -2.390   3.167  0.00  0.00    +0.024 A 
ENDBRANCH  17  21
ENDBRANCH   1  15
BRANCH   4  27
ATOM     27  C   UNL     1      -0.046   1.665  -4.907  0.00  0.00    +0.343 C 
ATOM     28  O   UNL     1      -0.333   2.145  -5.990  0.00  0.00    -0.248 OA
ATOM     29  OXT UNL     1       0.940   2.059  -4.307  0.00  0.00    -0.248 OA
ENDBRANCH   4  27
BRANCH   8  30
ATOM     30  C   UNL     1       1.076  -3.664  -6.295  0.00  0.00    +0.097 C 
BRANCH  30  31
ATOM     31  C   UNL     1       2.502  -3.430  -6.797  0.00  0.00    -0.062 C 
BRANCH  31  32
ATOM     32  N   UNL     1       2.910  -4.551  -7.654  0.00  0.00    +0.383 N 
ATOM     33  H   UNL     1       2.877  -5.409  -7.123  0.00  0.00    -0.085 HD
ATOM     34  H   UNL     1       2.283  -4.618  -8.441  0.00  0.00    -0.085 HD
BRANCH  32  35
ATOM     35  C   UNL     1       4.279  -4.326  -8.136  0.00  0.00    -0.047 C 
BRANCH  35  36
ATOM     36  C   UNL     1       4.698  -5.477  -9.014  0.00  0.00    -0.064 A 
ATOM     37  C   UNL     1       5.317  -6.581  -8.459  0.00  0.00    +0.002 A 
ATOM     38  C   UNL     1       5.701  -7.636  -9.265  0.00  0.00    +0.000 A 
ATOM     39  C   UNL     1       5.466  -7.587 -10.627  0.00  0.00    +0.000 A 
ATOM     40  C   UNL     1       4.847  -6.483 -11.182  0.00  0.00    +0.000 A 
ATOM     41  C   UNL     1       4.459  -5.430 -10.375  0.00  0.00    +0.002 A 
ENDBRANCH  35  36
ENDBRANCH  32  35
ENDBRANCH  31  32
ENDBRANCH  30  31
ENDBRANCH   8  30
TORSDOF 8
