REMARK  Name = ZINC35486848
REMARK  9 active torsions:
REMARK  status: ('A' for Active; 'I' for Inactive)
REMARK    1  A    between atoms: C_1  and  N_2
REMARK    2  A    between atoms: N_2  and  C_3
REMARK    3  A    between atoms: N_2  and  C_4
REMARK    4  A    between atoms: C_4  and  C_5
REMARK    5  A    between atoms: C_5  and  N_6
REMARK    6  A    between atoms: C_7  and  C_23
REMARK    7  A    between atoms: C_25  and  O_31
REMARK    8  A    between atoms: C_26  and  O_30
REMARK    9  A    between atoms: O_31  and  C_32
REMARK                            x       y       z     vdW  Elec       q    Type
REMARK                         _______ _______ _______ _____ _____    ______ ____
ROOT
ATOM      1  N   UNL     1      -2.733  -2.544  -0.111  0.00  0.00    -0.285 N 
ATOM      2  C   UNL     1      -3.499  -2.941   1.081  0.00  0.00    +0.145 C 
ATOM      3  C   UNL     1      -4.833  -3.386   0.578  0.00  0.00    +0.072 A 
ATOM      4  C   UNL     1      -6.011  -3.899   1.286  0.00  0.00    +0.199 A 
ATOM      5  O   UNL     1      -6.121  -3.878   2.499  0.00  0.00    -0.287 OA
ATOM      6  C   UNL     1      -7.055  -4.446   0.384  0.00  0.00    +0.066 A 
ATOM      7  C   UNL     1      -8.141  -5.149   0.906  0.00  0.00    +0.035 A 
ATOM      8  C   UNL     1      -9.098  -5.654   0.053  0.00  0.00    +0.042 A 
ATOM      9  C   UNL     1      -8.979  -5.463  -1.318  0.00  0.00    +0.023 A 
ATOM     10  C   UNL     1      -7.913  -4.770  -1.843  0.00  0.00    +0.048 A 
ATOM     11  C   UNL     1      -6.932  -4.247  -1.001  0.00  0.00    +0.140 A 
ATOM     12  O   UNL     1      -5.899  -3.561  -1.543  0.00  0.00    -0.450 OA
ATOM     13  C   UNL     1      -4.833  -3.249  -0.781  0.00  0.00    +0.199 A 
ATOM     14  C   UNL     1      -3.520  -2.722  -1.192  0.00  0.00    +0.283 C 
ATOM     15  O   UNL     1      -3.193  -2.486  -2.338  0.00  0.00    -0.267 OA
ATOM     16 CL   UNL     1     -10.454  -6.529   0.692  0.00  0.00    -0.084 Cl
ENDROOT
BRANCH   2  17
ATOM     17  C   UNL     1      -2.805  -4.075   1.791  0.00  0.00    -0.018 A 
ATOM     18  C   UNL     1      -2.761  -4.100   3.173  0.00  0.00    +0.055 A 
ATOM     19  C   UNL     1      -2.123  -5.141   3.827  0.00  0.00    +0.163 A 
ATOM     20  C   UNL     1      -1.528  -6.162   3.091  0.00  0.00    +0.173 A 
ATOM     21  C   UNL     1      -1.576  -6.131   1.706  0.00  0.00    +0.063 A 
ATOM     22  C   UNL     1      -2.219  -5.091   1.059  0.00  0.00    +0.025 A 
ATOM     23 BR   UNL     1      -0.769  -7.515   0.701  0.00  0.00    -0.046 Br
BRANCH  20  24
ATOM     24  O   UNL     1      -0.901  -7.186   3.729  0.00  0.00    -0.503 OA
ATOM     25  H   UNL     1      -1.477  -7.936   3.930  0.00  0.00    +0.292 HD
ENDBRANCH  20  24
BRANCH  19  26
ATOM     26  O   UNL     1      -2.079  -5.167   5.186  0.00  0.00    -0.491 OA
ATOM     27  C   UNL     1      -2.710  -4.086   5.876  0.00  0.00    +0.277 C 
ENDBRANCH  19  26
ENDBRANCH   2  17
BRANCH   1  28
ATOM     28  C   UNL     1      -1.358  -2.037  -0.122  0.00  0.00    +0.090 C 
BRANCH  28  29
ATOM     29  C   UNL     1      -1.376  -0.512   0.012  0.00  0.00    -0.060 C 
BRANCH  29  31
ATOM     30  C   UNL     1      -0.018   1.465   0.010  0.00  0.00    -0.097 C 
ATOM     31  N   UNL     1       0.002  -0.004   0.002  0.00  0.00    +0.377 N 
ATOM     32  C   UNL     1       0.713  -0.491   1.192  0.00  0.00    -0.097 C 
ATOM     33  H   UNL     1       0.474  -0.330  -0.828  0.00  0.00    -0.083 HD
ENDBRANCH  29  31
ENDBRANCH  28  29
ENDBRANCH   1  28
TORSDOF 6
