REMARK  Name = ZINC32931810
REMARK  8 active torsions:
REMARK  status: ('A' for Active; 'I' for Inactive)
REMARK    1  A    between atoms: C_1  and  C_2
REMARK    2  A    between atoms: C_2  and  O_3
REMARK    3  A    between atoms: O_3  and  C_4
REMARK    4  A    between atoms: C_7  and  C_10
REMARK    5  A    between atoms: C_12  and  C_15
REMARK    6  A    between atoms: C_16  and  N_26
REMARK    7  A    between atoms: C_18  and  C_25
REMARK    8  A    between atoms: C_20  and  C_24
REMARK                            x       y       z     vdW  Elec       q    Type
REMARK                         _______ _______ _______ _____ _____    ______ ____
ROOT
ATOM      1  C   UNL     1       2.989   9.447  -0.471  0.00  0.00    +0.202 A 
ATOM      2  N   UNL     1       3.094   8.104  -0.452  0.00  0.00    -0.187 NA
ATOM      3  C   UNL     1       1.847   7.652  -0.479  0.00  0.00    +0.267 A 
ATOM      4  O   UNL     1       1.045   8.730  -0.518  0.00  0.00    -0.332 OA
ATOM      5  N   UNL     1       1.714   9.742  -0.507  0.00  0.00    -0.056 NA
ENDROOT
BRANCH   3   6
ATOM      6  C   UNL     1       1.426   6.250  -0.473  0.00  0.00    +0.100 A 
ATOM      7  C   UNL     1       0.147   5.745  -0.500  0.00  0.00    +0.055 A 
ATOM      8  C   UNL     1      -0.026   4.301  -0.487  0.00  0.00    +0.050 A 
ATOM      9  C   UNL     1      -1.215   3.538  -0.509  0.00  0.00    +0.052 A 
ATOM     10  N   UNL     1      -1.138   2.224  -0.496  0.00  0.00    -0.237 NA
ATOM     11  C   UNL     1       0.018   1.585  -0.454  0.00  0.00    +0.128 A 
ATOM     12  N   UNL     1       1.164   2.237  -0.432  0.00  0.00    -0.225 NA
ATOM     13  C   UNL     1       1.177   3.554  -0.448  0.00  0.00    +0.114 A 
ATOM     14  S   UNL     1       2.448   4.790  -0.430  0.00  0.00    -0.062 S 
ATOM     15  C   UNL     1       0.027   0.078  -0.436  0.00  0.00    +0.088 C 
ATOM     16  C   UNL     1      -2.558   4.221  -0.552  0.00  0.00    +0.066 C 
BRANCH   7  17
ATOM     17  N   UNL     1      -0.955   6.594  -0.539  0.00  0.00    -0.356 N 
ATOM     18  H   UNL     1      -1.972   6.176  -0.560  0.00  0.00    +0.142 HD
ATOM     19  H   UNL     1      -0.809   7.684  -0.548  0.00  0.00    +0.142 HD
ENDBRANCH   7  17
ENDBRANCH   3   6
BRANCH   1  23
ATOM     20  C   UNL     1       6.213  12.223  -0.420  0.00  0.00    +0.121 A 
ATOM     21  C   UNL     1       4.903  12.682  -0.460  0.00  0.00    +0.046 A 
ATOM     22  C   UNL     1       3.856  11.785  -0.476  0.00  0.00    +0.015 A 
ATOM     23  C   UNL     1       4.114  10.416  -0.454  0.00  0.00    +0.023 A 
ATOM     24  C   UNL     1       5.429   9.957  -0.408  0.00  0.00    +0.015 A 
ATOM     25  C   UNL     1       6.472  10.859  -0.397  0.00  0.00    +0.046 A 
BRANCH  20  26
ATOM     26  O   UNL     1       7.242  13.109  -0.403  0.00  0.00    -0.492 OA
BRANCH  26  28
ATOM     27  C   UNL     1       9.582  13.709  -0.348  0.00  0.00    +0.048 C 
ATOM     28  C   UNL     1       8.563  12.567  -0.362  0.00  0.00    +0.225 C 
ENDBRANCH  26  28
ENDBRANCH  20  26
ENDBRANCH   1  23
TORSDOF 5
