REMARK  Name = ZINC13067775
REMARK  10 active torsions:
REMARK  status: ('A' for Active; 'I' for Inactive)
REMARK    1  A    between atoms: C_1  and  C_2
REMARK    2  A    between atoms: C_5  and  C_32
REMARK    3  A    between atoms: C_6  and  S_8
REMARK    4  A    between atoms: S_8  and  N_11
REMARK    5  A    between atoms: N_11  and  C_12
REMARK    6  A    between atoms: N_11  and  C_13
REMARK    7  A    between atoms: C_16  and  O_19
REMARK    8  A    between atoms: O_19  and  S_20
REMARK    9  A    between atoms: S_20  and  C_23
REMARK   10  A    between atoms: C_27  and  C_29
REMARK                            x       y       z     vdW  Elec       q    Type
REMARK                         _______ _______ _______ _____ _____    ______ ____
ROOT
ATOM      1  C   UNL     1      -1.060   2.365  -2.510  0.00  0.00    +0.051 A 
ATOM      2  C   UNL     1      -0.114   2.708  -1.553  0.00  0.00    +0.028 A 
ATOM      3  C   UNL     1       0.042   4.028  -1.178  0.00  0.00    +0.050 A 
ATOM      4  C   UNL     1      -0.755   5.009  -1.747  0.00  0.00    +0.157 A 
ATOM      5  C   UNL     1      -1.706   4.667  -2.698  0.00  0.00    +0.050 A 
ATOM      6  C   UNL     1      -1.858   3.349  -3.079  0.00  0.00    +0.028 A 
ENDROOT
BRANCH   1   7
ATOM      7  N   UNL     1      -1.214   1.029  -2.895  0.00  0.00    -0.206 N 
ATOM      8  C   UNL     1      -2.498   0.563  -3.426  0.00  0.00    +0.157 C 
BRANCH   7   9
ATOM      9  S   UNL     1       0.054  -0.026  -2.751  0.00  0.00    +0.075 S 
ATOM     10  O   UNL     1       1.238   0.733  -2.954  0.00  0.00    -0.150 OA
ATOM     11  O   UNL     1      -0.269  -1.160  -3.544  0.00  0.00    -0.150 OA
BRANCH   9  17
ATOM     12  C   UNL     1       2.359  -0.338   1.929  0.00  0.00    +0.044 C 
ATOM     13  C   UNL     1       1.189  -0.686   1.046  0.00  0.00    -0.049 A 
ATOM     14  C   UNL     1       0.145  -1.441   1.548  0.00  0.00    +0.004 A 
ATOM     15  C   UNL     1      -0.929  -1.760   0.738  0.00  0.00    +0.005 A 
ATOM     16  C   UNL     1      -0.958  -1.325  -0.574  0.00  0.00    -0.024 A 
ATOM     17  C   UNL     1       0.088  -0.575  -1.077  0.00  0.00    +0.112 A 
ATOM     18  C   UNL     1       1.159  -0.250  -0.265  0.00  0.00    +0.032 A 
ATOM     19  C   UNL     1      -2.128  -1.673  -1.458  0.00  0.00    +0.046 C 
ENDBRANCH   9  17
ENDBRANCH   7   9
ENDBRANCH   1   7
BRANCH   4  20
ATOM     20  O   UNL     1      -0.606   6.308  -1.373  0.00  0.00    -0.342 OA
BRANCH  20  21
ATOM     21  S   UNL     1      -1.479   6.718  -0.196  0.00  0.00    +0.151 S 
ATOM     22  O   UNL     1      -1.359   8.129  -0.072  0.00  0.00    -0.131 OA
ATOM     23  O   UNL     1      -2.733   6.074  -0.377  0.00  0.00    -0.131 OA
BRANCH  21  24
ATOM     24  C   UNL     1      -0.760   6.022   1.254  0.00  0.00    +0.129 A 
ATOM     25  C   UNL     1      -1.145   4.761   1.679  0.00  0.00    +0.033 A 
ATOM     26  C   UNL     1      -0.582   4.204   2.812  0.00  0.00    +0.041 A 
ATOM     27  C   UNL     1       0.362   4.909   3.536  0.00  0.00    +0.138 A 
ATOM     28  C   UNL     1       0.750   6.185   3.115  0.00  0.00    +0.100 A 
ATOM     29  C   UNL     1       0.180   6.737   1.966  0.00  0.00    +0.048 A 
ATOM     30  F   UNL     1       0.908   4.366   4.646  0.00  0.00    -0.205 F 
BRANCH  28  31
ATOM     31  C   UNL     1       1.757   6.944   3.882  0.00  0.00    +0.389 C 
ATOM     32  O   UNL     1       2.251   6.461   4.881  0.00  0.00    -0.240 OA
ATOM     33  O   UNL     1       2.129   8.173   3.473  0.00  0.00    -0.240 OA
ENDBRANCH  28  31
ENDBRANCH  21  24
ENDBRANCH  20  21
ENDBRANCH   4  20
TORSDOF 7
