REMARK  Name = ZINC16336636
REMARK  9 active torsions:
REMARK  status: ('A' for Active; 'I' for Inactive)
REMARK    1  A    between atoms: C_1  and  C_2
REMARK    2  A    between atoms: C_5  and  C_29
REMARK    3  A    between atoms: C_6  and  N_8
REMARK    4  A    between atoms: C_9  and  C_11
REMARK    5  A    between atoms: C_11  and  C_13
REMARK    6  A    between atoms: C_11  and  S_14
REMARK    7  A    between atoms: S_14  and  C_15
REMARK    8  A    between atoms: N_20  and  C_21
REMARK    9  A    between atoms: C_21  and  C_22
REMARK                            x       y       z     vdW  Elec       q    Type
REMARK                         _______ _______ _______ _____ _____    ______ ____
ROOT
ATOM      1  S   UNL     1       0.841  -0.961  -6.167  0.00  0.00    -0.084 S 
ENDROOT
BRANCH   1   2
ATOM      2  C   UNL     1       1.012   0.104  -7.560  0.00  0.00    +0.161 A 
ATOM      3  N   UNL     1       0.710   1.383  -7.676  0.00  0.00    -0.133 NA
ATOM      4  N   UNL     1       0.931   2.033  -8.869  0.00  0.00    -0.125 NA
ATOM      5  C   UNL     1       1.434   1.371  -9.893  0.00  0.00    +0.183 A 
ATOM      6  S   UNL     1       1.634  -0.261  -9.194  0.00  0.00    -0.025 S 
ATOM      7  N   UNL     1       1.728   1.823 -11.174  0.00  0.00    -0.318 N 
ATOM      8  H   UNL     1       2.099   1.212 -11.830  0.00  0.00    +0.148 HD
BRANCH   7   9
ATOM      9  C   UNL     1       1.480   3.221 -11.533  0.00  0.00    +0.138 C 
BRANCH   9  10
ATOM     10  C   UNL     1       1.882   3.451 -12.967  0.00  0.00    -0.030 A 
ATOM     11  C   UNL     1       3.171   3.850 -13.268  0.00  0.00    +0.008 A 
ATOM     12  C   UNL     1       3.542   4.056 -14.583  0.00  0.00    +0.038 A 
ATOM     13  C   UNL     1       2.619   3.873 -15.599  0.00  0.00    +0.123 A 
ATOM     14  C   UNL     1       1.327   3.478 -15.296  0.00  0.00    +0.038 A 
ATOM     15  C   UNL     1       0.959   3.267 -13.981  0.00  0.00    +0.008 A 
ATOM     16  F   UNL     1       2.979   4.078 -16.885  0.00  0.00    -0.205 F 
ENDBRANCH   9  10
ENDBRANCH   7   9
ENDBRANCH   1   2
BRANCH   1  17
ATOM     17  C   UNL     1       0.146   0.110  -4.878  0.00  0.00    +0.136 C 
ATOM     18  C   UNL     1      -1.254   0.566  -5.294  0.00  0.00    +0.029 C 
BRANCH  17  20
ATOM     19  N   UNL     1      -0.033   0.011  -2.413  0.00  0.00    -0.284 N 
ATOM     20  C   UNL     1       0.061  -0.653  -3.582  0.00  0.00    +0.230 C 
ATOM     21  O   UNL     1       0.078  -1.866  -3.590  0.00  0.00    -0.274 OA
ATOM     22  H   UNL     1      -0.127   0.977  -2.410  0.00  0.00    +0.155 HD
BRANCH  19  28
ATOM     23  C   UNL     1       1.335  -3.970   0.128  0.00  0.00    +0.044 C 
ATOM     24  C   UNL     1       0.661  -2.624   0.056  0.00  0.00    -0.049 A 
ATOM     25  C   UNL     1       0.074  -2.084   1.187  0.00  0.00    +0.004 A 
ATOM     26  C   UNL     1      -0.545  -0.849   1.125  0.00  0.00    +0.005 A 
ATOM     27  C   UNL     1      -0.579  -0.151  -0.066  0.00  0.00    -0.029 A 
ATOM     28  C   UNL     1       0.005  -0.692  -1.203  0.00  0.00    +0.037 A 
ATOM     29  C   UNL     1       0.631  -1.930  -1.137  0.00  0.00    +0.027 A 
ATOM     30  C   UNL     1      -1.255   1.195  -0.132  0.00  0.00    +0.045 C 
ENDBRANCH  19  28
ENDBRANCH  17  20
ENDBRANCH   1  17
TORSDOF 6
