REMARK  Name = ZINC21883776
REMARK  7 active torsions:
REMARK  status: ('A' for Active; 'I' for Inactive)
REMARK    1  A    between atoms: C_1  and  O_2
REMARK    2  A    between atoms: O_2  and  C_3
REMARK    3  A    between atoms: C_3  and  C_5
REMARK    4  A    between atoms: C_5  and  C_6
REMARK    5  A    between atoms: N_10  and  C_18
REMARK    6  A    between atoms: C_18  and  C_19
REMARK    7  A    between atoms: N_21  and  C_22
REMARK                            x       y       z     vdW  Elec       q    Type
REMARK                         _______ _______ _______ _____ _____    ______ ____
ROOT
ATOM      1  C   UNL     1       5.266   5.240   0.800  0.00  0.00    +0.024 C 
ATOM      2  C   UNL     1       4.345   4.699   1.621  0.00  0.00    +0.087 C 
ATOM      3  C   UNL     1       3.045   4.226   1.323  0.00  0.00    +0.246 C 
ATOM      4  O   UNL     1       2.416   3.787   2.268  0.00  0.00    -0.270 OA
ATOM      5  N   UNL     1       2.411   4.191   0.133  0.00  0.00    -0.257 N 
ATOM      6  C   UNL     1       2.884   4.631  -1.115  0.00  0.00    +0.058 A 
ATOM      7  C   UNL     1       1.948   4.440  -2.116  0.00  0.00    +0.025 A 
ATOM      8  C   UNL     1       2.241   4.816  -3.416  0.00  0.00    +0.002 A 
ATOM      9  C   UNL     1       3.467   5.380  -3.716  0.00  0.00    +0.002 A 
ATOM     10  C   UNL     1       4.407   5.574  -2.720  0.00  0.00    +0.025 A 
ATOM     11  C   UNL     1       4.120   5.200  -1.418  0.00  0.00    +0.053 A 
ATOM     12  N   UNL     1       5.189   5.472  -0.548  0.00  0.00    -0.316 N 
ATOM     13  H   UNL     1       6.039   5.926  -1.078  0.00  0.00    +0.152 HD
ENDROOT
BRANCH   1  14
ATOM     14  C   UNL     1       6.561   5.646   1.455  0.00  0.00    +0.171 C 
BRANCH  14  15
ATOM     15  C   UNL     1       7.567   4.533   1.313  0.00  0.00    +0.312 C 
ATOM     16  O   UNL     1       7.263   3.515   0.739  0.00  0.00    -0.250 OA
BRANCH  15  18
ATOM     17  C   UNL     1       9.716   3.561   1.650  0.00  0.00    +0.280 C 
ATOM     18  O   UNL     1       8.800   4.674   1.825  0.00  0.00    -0.468 OA
ENDBRANCH  15  18
ENDBRANCH  14  15
ENDBRANCH   1  14
BRANCH   5  19
ATOM     19  C   UNL     1       1.058   3.630   0.145  0.00  0.00    +0.210 C 
BRANCH  19  20
ATOM     20  C   UNL     1       1.109   2.186  -0.283  0.00  0.00    +0.235 C 
ATOM     21  O   UNL     1       2.171   1.676  -0.570  0.00  0.00    -0.274 OA
ATOM     22  N   UNL     1      -0.026   1.462  -0.347  0.00  0.00    -0.283 N 
ATOM     23  H   UNL     1      -0.998   1.946  -0.176  0.00  0.00    +0.155 HD
BRANCH  22  24
ATOM     24  C   UNL     1       0.033   0.093  -0.633  0.00  0.00    +0.052 A 
ATOM     25  C   UNL     1       1.188  -0.627  -0.356  0.00  0.00    +0.025 A 
ATOM     26  C   UNL     1       1.241  -1.978  -0.634  0.00  0.00    +0.002 A 
ATOM     27  C   UNL     1       0.150  -2.614  -1.198  0.00  0.00    +0.002 A 
ATOM     28  C   UNL     1      -1.000  -1.901  -1.480  0.00  0.00    +0.022 A 
ATOM     29  C   UNL     1      -1.062  -0.548  -1.199  0.00  0.00    +0.062 A 
ATOM     30 CL   UNL     1      -2.506   0.348  -1.554  0.00  0.00    -0.082 Cl
ENDBRANCH  22  24
ENDBRANCH  19  20
ENDBRANCH   5  19
TORSDOF 6
