REMARK  Name = ZINC13507215
REMARK  8 active torsions:
REMARK  status: ('A' for Active; 'I' for Inactive)
REMARK    1  A    between atoms: C_3  and  C_6
REMARK    2  A    between atoms: N_8  and  C_9
REMARK    3  A    between atoms: C_9  and  C_10
REMARK    4  A    between atoms: N_12  and  C_13
REMARK    5  A    between atoms: N_12  and  C_20
REMARK    6  A    between atoms: C_20  and  C_22
REMARK    7  A    between atoms: C_20  and  C_28
REMARK    8  A    between atoms: N_30  and  C_31
REMARK                            x       y       z     vdW  Elec       q    Type
REMARK                         _______ _______ _______ _____ _____    ______ ____
ROOT
ATOM      1  C   UNL     1       6.046  -2.552  -0.477  0.00  0.00    +0.238 C 
ATOM      2  O   UNL     1       5.823  -3.311  -1.396  0.00  0.00    -0.274 OA
ATOM      3  N   UNL     1       7.246  -2.570   0.136  0.00  0.00    -0.254 N 
ENDROOT
BRANCH   3   4
ATOM      4  C   UNL     1       7.458  -1.797   1.284  0.00  0.00    +0.038 A 
ATOM      5  C   UNL     1       7.550  -0.415   1.185  0.00  0.00    +0.025 A 
ATOM      6  C   UNL     1       7.759   0.345   2.319  0.00  0.00    +0.022 A 
ATOM      7  C   UNL     1       7.876  -0.270   3.554  0.00  0.00    +0.041 A 
ATOM      8  C   UNL     1       7.784  -1.647   3.655  0.00  0.00    +0.022 A 
ATOM      9  C   UNL     1       7.569  -2.411   2.525  0.00  0.00    +0.025 A 
ATOM     10 CL   UNL     1       8.139   0.688   4.977  0.00  0.00    -0.084 Cl
ENDBRANCH   3   4
BRANCH   1  11
ATOM     11  C   UNL     1       4.981  -1.589  -0.019  0.00  0.00    +0.201 C 
BRANCH  11  14
ATOM     12  C   UNL     1       2.713  -0.958  -0.651  0.00  0.00    +0.280 C 
ATOM     13  O   UNL     1       2.715  -0.153   0.261  0.00  0.00    -0.267 OA
ATOM     14  N   UNL     1       3.799  -1.725  -0.875  0.00  0.00    -0.300 N 
ATOM     15  H   UNL     1       3.798  -2.367  -1.602  0.00  0.00    +0.150 HD
BRANCH  12  18
ATOM     16  C   UNL     1      -0.482  -0.837  -2.411  0.00  0.00    +0.042 A 
ATOM     17  C   UNL     1       0.370  -0.384  -1.392  0.00  0.00    +0.054 A 
ATOM     18  C   UNL     1       1.531  -1.095  -1.508  0.00  0.00    +0.189 A 
ATOM     19  O   UNL     1       1.399  -1.944  -2.548  0.00  0.00    -0.458 OA
ATOM     20  C   UNL     1       0.186  -1.791  -3.095  0.00  0.00    +0.196 A 
ENDBRANCH  12  18
ENDBRANCH  11  14
ENDBRANCH   1  11
BRANCH   3  21
ATOM     21  C   UNL     1       8.330  -3.397  -0.400  0.00  0.00    +0.197 C 
BRANCH  21  22
ATOM     22  C   UNL     1       9.505  -3.358   0.543  0.00  0.00    -0.015 A 
ATOM     23  C   UNL     1      10.075  -2.151   0.916  0.00  0.00    +0.025 A 
ATOM     24  C   UNL     1      11.152  -2.154   1.782  0.00  0.00    +0.111 A 
ATOM     25  N   UNL     1      11.637  -3.286   2.252  0.00  0.00    -0.263 NA
ATOM     26  C   UNL     1      11.120  -4.453   1.919  0.00  0.00    +0.111 A 
ATOM     27  C   UNL     1      10.038  -4.528   1.062  0.00  0.00    +0.025 A 
ENDBRANCH  21  22
BRANCH  21  28
ATOM     28  C   UNL     1       8.748  -2.867  -1.747  0.00  0.00    +0.239 C 
ATOM     29  O   UNL     1       8.196  -1.894  -2.213  0.00  0.00    -0.273 OA
ATOM     30  N   UNL     1       9.736  -3.475  -2.433  0.00  0.00    -0.311 N 
ATOM     31  H   UNL     1      10.178  -4.253  -2.060  0.00  0.00    +0.149 HD
BRANCH  30  32
ATOM     32  C   UNL     1      10.143  -2.959  -3.743  0.00  0.00    +0.073 C 
ATOM     33  C   UNL     1       9.278  -3.594  -4.852  0.00  0.00    +0.022 C 
ATOM     34  C   UNL     1      10.262  -3.797  -6.030  0.00  0.00    +0.002 C 
ATOM     35  C   UNL     1      11.569  -4.223  -5.316  0.00  0.00    +0.002 C 
ATOM     36  C   UNL     1      11.599  -3.360  -4.037  0.00  0.00    +0.022 C 
ENDBRANCH  30  32
ENDBRANCH  21  28
ENDBRANCH   3  21
TORSDOF 8
