REMARK  Name = ZINC38751603
REMARK  7 active torsions:
REMARK  status: ('A' for Active; 'I' for Inactive)
REMARK    1  A    between atoms: C_4  and  C_7
REMARK    2  A    between atoms: C_7  and  C_9
REMARK    3  A    between atoms: C_7  and  S_20
REMARK    4  A    between atoms: C_9  and  C_11
REMARK    5  A    between atoms: S_20  and  C_21
REMARK    6  A    between atoms: C_25  and  C_33
REMARK    7  A    between atoms: N_26  and  C_27
REMARK                            x       y       z     vdW  Elec       q    Type
REMARK                         _______ _______ _______ _____ _____    ______ ____
ROOT
ATOM      1  S   UNL     1       3.617  -1.844   2.123  0.00  0.00    -0.102 S 
ENDROOT
BRANCH   1   2
ATOM      2  C   UNL     1       3.819  -0.301   3.055  0.00  0.00    +0.242 C 
ATOM      3  N   UNL     1       4.772   0.592   2.375  0.00  0.00    -0.237 N 
ATOM      4  N   UNL     1       4.061   1.753   2.049  0.00  0.00    -0.168 NA
ATOM      5  C   UNL     1       2.829   1.679   2.436  0.00  0.00    +0.153 C 
ATOM      6  N   UNL     1       2.560   0.463   3.070  0.00  0.00    -0.254 N 
ATOM      7  H   UNL     1       5.707   0.412   2.190  0.00  0.00    +0.171 HD
BRANCH   5   8
ATOM      8  C   UNL     1       1.830   2.748   2.234  0.00  0.00    +0.020 A 
ATOM      9  C   UNL     1       0.459   2.475   2.308  0.00  0.00    +0.029 A 
ATOM     10  C   UNL     1      -0.439   3.503   2.113  0.00  0.00    +0.083 A 
ATOM     11  N   UNL     1      -0.021   4.729   1.860  0.00  0.00    -0.367 N 
ATOM     12  C   UNL     1       1.262   5.030   1.781  0.00  0.00    +0.083 A 
ATOM     13  C   UNL     1       2.228   4.064   1.969  0.00  0.00    +0.029 A 
ATOM     14  H   UNL     1      -0.677   5.431   1.727  0.00  0.00    +0.165 HD
ENDBRANCH   5   8
BRANCH   6  15
ATOM     15  C   UNL     1       1.339   0.050   3.608  0.00  0.00    +0.038 A 
ATOM     16  C   UNL     1       0.719  -1.098   3.131  0.00  0.00    +0.023 A 
ATOM     17  C   UNL     1      -0.487  -1.503   3.667  0.00  0.00    +0.002 A 
ATOM     18  C   UNL     1      -1.079  -0.767   4.677  0.00  0.00    +0.000 A 
ATOM     19  C   UNL     1      -0.466   0.377   5.154  0.00  0.00    +0.002 A 
ATOM     20  C   UNL     1       0.744   0.785   4.627  0.00  0.00    +0.023 A 
ENDBRANCH   6  15
ENDBRANCH   1   2
BRANCH   1  21
ATOM     21  C   UNL     1       3.448  -1.298   0.402  0.00  0.00    +0.150 C 
BRANCH  21  25
ATOM     22  C   UNL     1      -0.630  -0.298  -0.383  0.00  0.00    +0.000 A 
ATOM     23  C   UNL     1       0.334   0.692  -0.374  0.00  0.00    +0.000 A 
ATOM     24  C   UNL     1       1.654   0.368  -0.120  0.00  0.00    +0.005 A 
ATOM     25  C   UNL     1       2.009  -0.945   0.126  0.00  0.00    -0.027 A 
ATOM     26  C   UNL     1       1.044  -1.935   0.118  0.00  0.00    +0.005 A 
ATOM     27  C   UNL     1      -0.276  -1.611  -0.138  0.00  0.00    +0.000 A 
ENDBRANCH  21  25
BRANCH  21  28
ATOM     28  C   UNL     1       3.879  -2.408  -0.522  0.00  0.00    +0.179 C 
ATOM     29  O   UNL     1       3.827  -3.562  -0.149  0.00  0.00    -0.291 OA
BRANCH  28  30
ATOM     30  C   UNL     1       4.343  -2.105  -1.820  0.00  0.00    +0.024 C 
ATOM     31  C   UNL     1       4.768  -2.999  -2.786  0.00  0.00    +0.006 A 
ATOM     32  C   UNL     1       4.878  -4.410  -2.810  0.00  0.00    +0.010 A 
ATOM     33  C   UNL     1       5.336  -5.039  -3.915  0.00  0.00    +0.001 A 
ATOM     34  C   UNL     1       5.720  -4.344  -5.073  0.00  0.00    +0.002 A 
ATOM     35  C   UNL     1       5.654  -2.997  -5.154  0.00  0.00    +0.026 A 
ATOM     36  C   UNL     1       5.165  -2.234  -3.993  0.00  0.00    +0.043 A 
ATOM     37  N   UNL     1       5.002  -0.957  -3.799  0.00  0.00    -0.380 N 
ATOM     38  C   UNL     1       4.474  -0.735  -2.448  0.00  0.00    +0.152 C 
ATOM     39  H   UNL     1       5.194  -0.262  -4.447  0.00  0.00    +0.160 HD
ENDBRANCH  28  30
ENDBRANCH  21  28
ENDBRANCH   1  21
TORSDOF 7
