REMARK  Name = ZINC40168886
REMARK  15 active torsions:
REMARK  status: ('A' for Active; 'I' for Inactive)
REMARK    1  A    between atoms: C_1  and  C_2
REMARK    2  A    between atoms: C_2  and  N_9
REMARK    3  A    between atoms: N_9  and  C_10
REMARK    4  A    between atoms: C_10  and  O_12
REMARK    5  A    between atoms: O_12  and  C_13
REMARK    6  A    between atoms: C_13  and  C_14
REMARK    7  A    between atoms: C_14  and  N_15
REMARK    8  A    between atoms: N_15  and  C_16
REMARK    9  A    between atoms: N_15  and  C_17
REMARK   10  A    between atoms: C_17  and  C_18
REMARK   11  A    between atoms: C_18  and  O_19
REMARK   12  A    between atoms: O_19  and  C_20
REMARK   13  A    between atoms: C_20  and  N_22
REMARK   14  A    between atoms: N_22  and  C_23
REMARK   15  A    between atoms: C_23  and  C_30
REMARK                            x       y       z     vdW  Elec       q    Type
REMARK                         _______ _______ _______ _____ _____    ______ ____
ROOT
ATOM      1  N   UNL     1      -5.888   0.580  -0.631  0.00  0.00    +0.382 N 
ATOM      2  C   UNL     1      -5.894   2.008  -0.973  0.00  0.00    -0.096 C 
ATOM      3  H   UNL     1      -5.466   0.453   0.277  0.00  0.00    -0.082 HD
ENDROOT
BRANCH   1   4
ATOM      4  C   UNL     1      -5.116  -0.162  -1.637  0.00  0.00    -0.037 C 
BRANCH   4   5
ATOM      5  C   UNL     1      -3.651   0.275  -1.578  0.00  0.00    +0.212 C 
BRANCH   5   6
ATOM      6  O   UNL     1      -3.091  -0.102  -0.319  0.00  0.00    -0.476 OA
BRANCH   6   7
ATOM      7  C   UNL     1      -1.798   0.212  -0.105  0.00  0.00    +0.228 C 
ATOM      8  S   UNL     1      -0.904   1.026  -1.316  0.00  0.00    +0.006 S 
BRANCH   7   9
ATOM      9  N   UNL     1      -1.209  -0.116   1.062  0.00  0.00    -0.302 N 
ATOM     10  H   UNL     1      -1.696  -0.633   1.723  0.00  0.00    +0.150 HD
BRANCH   9  12
ATOM     11  C   UNL     1       1.100  -0.407   0.355  0.00  0.00    +0.033 C 
ATOM     12  C   UNL     1       0.167   0.309   1.333  0.00  0.00    +0.053 C 
ATOM     13  C   UNL     1       0.533  -0.110   2.756  0.00  0.00    +0.049 C 
ATOM     14  C   UNL     1       1.599   0.857   3.345  0.00  0.00    +0.168 C 
ATOM     15  S   UNL     1       0.962   2.457   2.680  0.00  0.00    -0.029 S 
ATOM     16  O   UNL     1      -0.102   2.915   3.504  0.00  0.00    -0.174 OA
ATOM     17  O   UNL     1       2.058   3.318   2.404  0.00  0.00    -0.174 OA
ATOM     18  C   UNL     1       0.271   1.827   1.094  0.00  0.00    +0.191 C 
ENDBRANCH   9  12
ENDBRANCH   7   9
ENDBRANCH   6   7
ENDBRANCH   5   6
ENDBRANCH   4   5
ENDBRANCH   1   4
BRANCH   1  19
ATOM     19  C   UNL     1      -7.268   0.076  -0.604  0.00  0.00    -0.037 C 
BRANCH  19  20
ATOM     20  C   UNL     1      -7.275  -1.367  -0.098  0.00  0.00    +0.212 C 
BRANCH  20  21
ATOM     21  O   UNL     1      -6.833  -1.398   1.260  0.00  0.00    -0.476 OA
BRANCH  21  22
ATOM     22  C   UNL     1      -6.781  -2.604   1.860  0.00  0.00    +0.228 C 
ATOM     23  S   UNL     1      -7.233  -4.010   0.994  0.00  0.00    +0.006 S 
BRANCH  22  24
ATOM     24  N   UNL     1      -6.373  -2.703   3.140  0.00  0.00    -0.302 N 
ATOM     25  H   UNL     1      -6.189  -1.901   3.654  0.00  0.00    +0.150 HD
BRANCH  24  26
ATOM     26  C   UNL     1      -6.208  -4.021   3.757  0.00  0.00    +0.053 C 
ATOM     27  C   UNL     1      -7.532  -4.777   3.657  0.00  0.00    +0.049 C 
ATOM     28  C   UNL     1      -7.664  -5.791   4.828  0.00  0.00    +0.168 C 
ATOM     29  S   UNL     1      -6.949  -4.776   6.195  0.00  0.00    -0.029 S 
ATOM     30  O   UNL     1      -6.265  -5.630   7.102  0.00  0.00    -0.174 OA
ATOM     31  O   UNL     1      -7.942  -3.884   6.683  0.00  0.00    -0.174 OA
ATOM     32  C   UNL     1      -5.718  -3.831   5.206  0.00  0.00    +0.191 C 
ATOM     33  C   UNL     1      -5.145  -4.796   2.977  0.00  0.00    +0.033 C 
ENDBRANCH  24  26
ENDBRANCH  22  24
ENDBRANCH  21  22
ENDBRANCH  20  21
ENDBRANCH  19  20
ENDBRANCH   1  19
TORSDOF 12
