REMARK  Name = ZINC39673752
REMARK  9 active torsions:
REMARK  status: ('A' for Active; 'I' for Inactive)
REMARK    1  A    between atoms: C_1  and  C_2
REMARK    2  A    between atoms: C_2  and  C_3
REMARK    3  A    between atoms: C_3  and  C_4
REMARK    4  A    between atoms: C_4  and  C_6
REMARK    5  A    between atoms: C_4  and  N_7
REMARK    6  A    between atoms: C_8  and  C_10
REMARK    7  A    between atoms: C_21  and  C_23
REMARK    8  A    between atoms: C_26  and  C_30
REMARK    9  A    between atoms: C_27  and  C_29
REMARK                            x       y       z     vdW  Elec       q    Type
REMARK                         _______ _______ _______ _____ _____    ______ ____
ROOT
ATOM      1  C   UNL     1      -2.992  -4.302   1.219  0.00  0.00    +0.100 C 
ATOM      2  C   UNL     1      -3.692  -3.229   0.355  0.00  0.00    +0.121 C 
ATOM      3  N   UNL     1      -3.792  -3.840  -0.991  0.00  0.00    -0.296 N 
ATOM      4  C   UNL     1      -4.126  -5.260  -0.729  0.00  0.00    +0.115 C 
ATOM      5  C   UNL     1      -3.282  -5.634   0.506  0.00  0.00    -0.004 C 
ATOM      6  C   UNL     1      -1.978  -6.296   0.072  0.00  0.00    -0.010 C 
ATOM      7  C   UNL     1      -2.289  -7.644  -0.583  0.00  0.00    -0.082 C 
ATOM      8  N   UNL     1      -3.002  -8.502   0.371  0.00  0.00    +0.379 N 
ATOM      9  C   UNL     1      -4.297  -7.902   0.713  0.00  0.00    -0.082 C 
ATOM     10  C   UNL     1      -4.071  -6.564   1.423  0.00  0.00    -0.010 C 
ATOM     11  C   UNL     1      -3.619  -3.239  -2.185  0.00  0.00    +0.247 C 
ATOM     12  O   UNL     1      -3.224  -2.091  -2.237  0.00  0.00    -0.270 OA
ATOM     13  H   UNL     1      -3.151  -9.410  -0.041  0.00  0.00    -0.086 HD
ATOM     14  H   UNL     1      -2.448  -8.603   1.209  0.00  0.00    -0.086 HD
ENDROOT
BRANCH  11  15
ATOM     15  C   UNL     1      -3.911  -3.977  -3.433  0.00  0.00    +0.037 A 
ATOM     16  C   UNL     1      -4.751  -5.092  -3.408  0.00  0.00    +0.013 A 
ATOM     17  C   UNL     1      -5.019  -5.775  -4.576  0.00  0.00    +0.004 A 
ATOM     18  C   UNL     1      -4.458  -5.358  -5.770  0.00  0.00    -0.047 A 
ATOM     19  C   UNL     1      -3.625  -4.254  -5.802  0.00  0.00    -0.047 A 
ATOM     20  C   UNL     1      -3.353  -3.558  -4.642  0.00  0.00    +0.016 A 
ATOM     21  C   UNL     1      -3.018  -3.807  -7.106  0.00  0.00    +0.044 C 
ATOM     22  C   UNL     1      -4.755  -6.110  -7.042  0.00  0.00    +0.044 C 
ENDBRANCH  11  15
BRANCH   1  24
ATOM     23  N   UNL     1      -0.778  -4.524   2.300  0.00  0.00    -0.312 N 
ATOM     24  C   UNL     1      -1.508  -4.048   1.272  0.00  0.00    +0.218 C 
ATOM     25  O   UNL     1      -0.970  -3.413   0.389  0.00  0.00    -0.275 OA
ATOM     26  H   UNL     1      -1.208  -5.031   3.006  0.00  0.00    +0.149 HD
BRANCH  23  27
ATOM     27  C   UNL     1       0.665  -4.277   2.350  0.00  0.00    +0.070 C 
ATOM     28  C   UNL     1       1.395  -5.342   1.530  0.00  0.00    +0.028 C 
BRANCH  27  29
ATOM     29  C   UNL     1       1.142  -4.336   3.803  0.00  0.00    +0.022 C 
BRANCH  29  31
ATOM     30  C   UNL     1       0.983  -3.252   6.048  0.00  0.00    +0.004 C 
ATOM     31  C   UNL     1       0.506  -3.192   4.596  0.00  0.00    -0.002 C 
ENDBRANCH  29  31
ENDBRANCH  27  29
ENDBRANCH  23  27
ENDBRANCH   1  24
TORSDOF 5
