REMARK  Name = ZINC12710320
REMARK  10 active torsions:
REMARK  status: ('A' for Active; 'I' for Inactive)
REMARK    1  A    between atoms: C_1  and  C_2
REMARK    2  A    between atoms: C_2  and  C_4
REMARK    3  A    between atoms: C_2  and  N_13
REMARK    4  A    between atoms: N_6  and  C_7
REMARK    5  A    between atoms: N_13  and  C_14
REMARK    6  A    between atoms: C_20  and  C_22
REMARK    7  A    between atoms: C_22  and  S_23
REMARK    8  A    between atoms: S_23  and  C_25
REMARK    9  A    between atoms: C_25  and  C_26
REMARK   10  A    between atoms: N_28  and  C_29
REMARK                            x       y       z     vdW  Elec       q    Type
REMARK                         _______ _______ _______ _____ _____    ______ ____
ROOT
ATOM      1  N   UNL     1       1.396   3.521   0.011  0.00  0.00    -0.286 N 
ATOM      2  C   UNL     1       0.886   4.194  -1.040  0.00  0.00    +0.229 C 
ATOM      3  O   UNL     1       0.367   3.589  -1.954  0.00  0.00    -0.275 OA
ENDROOT
BRANCH   1   4
ATOM      4  C   UNL     1       1.418   2.057   0.002  0.00  0.00    +0.077 C 
ATOM      5  C   UNL     1      -0.010   1.527  -0.144  0.00  0.00    +0.022 C 
ATOM      6  C   UNL     1       0.012  -0.003  -0.153  0.00  0.00    +0.002 C 
ATOM      7  C   UNL     1       0.861  -0.494  -1.328  0.00  0.00    +0.000 C 
ATOM      8  C   UNL     1       2.289   0.036  -1.182  0.00  0.00    +0.002 C 
ATOM      9  C   UNL     1       2.267   1.566  -1.173  0.00  0.00    +0.022 C 
ENDBRANCH   1   4
BRANCH   1  11
ATOM     10  C   UNL     1       3.408   3.906   1.347  0.00  0.00    +0.038 C 
ATOM     11  C   UNL     1       1.931   4.255   1.161  0.00  0.00    +0.159 C 
BRANCH  11  12
ATOM     12  C   UNL     1       1.164   3.872   2.401  0.00  0.00    +0.234 C 
ATOM     13  O   UNL     1       0.260   3.066   2.330  0.00  0.00    -0.274 OA
ATOM     14  N   UNL     1       1.482   4.426   3.587  0.00  0.00    -0.311 N 
ATOM     15  H   UNL     1       2.205   5.071   3.644  0.00  0.00    +0.149 HD
BRANCH  14  16
ATOM     16  C   UNL     1       0.737   4.054   4.793  0.00  0.00    +0.073 C 
ATOM     17  C   UNL     1      -0.525   4.912   4.897  0.00  0.00    +0.022 C 
ATOM     18  C   UNL     1      -1.304   4.524   6.155  0.00  0.00    +0.002 C 
ATOM     19  C   UNL     1      -0.427   4.754   7.388  0.00  0.00    +0.000 C 
ATOM     20  C   UNL     1       0.835   3.896   7.284  0.00  0.00    +0.002 C 
ATOM     21  C   UNL     1       1.613   4.284   6.025  0.00  0.00    +0.022 C 
ENDBRANCH  14  16
ENDBRANCH  11  12
ENDBRANCH   1  11
BRANCH   2  22
ATOM     22  C   UNL     1       0.959   5.699  -1.078  0.00  0.00    +0.200 C 
BRANCH  22  23
ATOM     23  S   UNL     1       0.073   6.310  -2.538  0.00  0.00    +0.040 S 
ATOM     24  O   UNL     1       0.713   5.835  -3.715  0.00  0.00    -0.256 OA
BRANCH  23  25
ATOM     25  C   UNL     1       0.253   8.112  -2.439  0.00  0.00    +0.200 C 
BRANCH  25  26
ATOM     26  C   UNL     1      -0.447   8.753  -3.609  0.00  0.00    +0.230 C 
ATOM     27  O   UNL     1      -1.012   8.062  -4.430  0.00  0.00    -0.274 OA
ATOM     28  N   UNL     1      -0.446  10.094  -3.744  0.00  0.00    -0.285 N 
ATOM     29  H   UNL     1      -0.050  10.650  -3.055  0.00  0.00    +0.155 HD
BRANCH  28  30
ATOM     30  C   UNL     1      -1.015  10.684  -4.879  0.00  0.00    +0.034 A 
ATOM     31  C   UNL     1      -0.456  11.835  -5.419  0.00  0.00    +0.026 A 
ATOM     32  C   UNL     1      -1.016  12.412  -6.542  0.00  0.00    +0.040 A 
ATOM     33  C   UNL     1      -2.140  11.851  -7.122  0.00  0.00    +0.124 A 
ATOM     34  C   UNL     1      -2.703  10.706  -6.582  0.00  0.00    +0.040 A 
ATOM     35  C   UNL     1      -2.143  10.123  -5.463  0.00  0.00    +0.026 A 
ATOM     36  F   UNL     1      -2.690  12.420  -8.218  0.00  0.00    -0.205 F 
ENDBRANCH  28  30
ENDBRANCH  25  26
ENDBRANCH  23  25
ENDBRANCH  22  23
ENDBRANCH   2  22
TORSDOF 9
