REMARK  Name = ZINC05709918
REMARK  8 active torsions:
REMARK  status: ('A' for Active; 'I' for Inactive)
REMARK    1  A    between atoms: C_1  and  C_2
REMARK    2  A    between atoms: C_2  and  C_4
REMARK    3  A    between atoms: C_2  and  O_15
REMARK    4  A    between atoms: N_6  and  C_7
REMARK    5  A    between atoms: O_15  and  C_16
REMARK    6  A    between atoms: C_16  and  C_18
REMARK    7  A    between atoms: C_21  and  N_27
REMARK    8  A    between atoms: C_22  and  N_24
REMARK                            x       y       z     vdW  Elec       q    Type
REMARK                         _______ _______ _______ _____ _____    ______ ____
ROOT
ATOM      1  O   UNL     1       3.369   7.427  -0.271  0.00  0.00    -0.449 OA
ENDROOT
BRANCH   1   3
ATOM      2  C   UNL     1       4.529   5.758   1.070  0.00  0.00    +0.062 C 
ATOM      3  C   UNL     1       3.666   6.010  -0.168  0.00  0.00    +0.259 C 
BRANCH   3   4
ATOM      4  C   UNL     1       2.380   5.233  -0.050  0.00  0.00    +0.258 C 
ATOM      5  O   UNL     1       1.317   5.817  -0.052  0.00  0.00    -0.271 OA
ATOM      6  N   UNL     1       2.411   3.890   0.058  0.00  0.00    -0.281 N 
ATOM      7  H   UNL     1       3.261   3.428   0.122  0.00  0.00    +0.155 HD
BRANCH   6   8
ATOM      8  C   UNL     1       1.215   3.162   0.078  0.00  0.00    +0.053 A 
ATOM      9  C   UNL     1       0.086   3.696   0.683  0.00  0.00    +0.044 A 
ATOM     10  C   UNL     1      -1.093   2.974   0.701  0.00  0.00    +0.043 A 
ATOM     11  C   UNL     1      -1.150   1.724   0.111  0.00  0.00    +0.021 A 
ATOM     12  C   UNL     1      -0.025   1.187  -0.488  0.00  0.00    +0.023 A 
ATOM     13  C   UNL     1       1.157   1.904  -0.509  0.00  0.00    +0.062 A 
ATOM     14 CL   UNL     1       2.567   1.232  -1.267  0.00  0.00    -0.082 Cl
ATOM     15 CL   UNL     1      -2.506   3.641   1.458  0.00  0.00    -0.083 Cl
ENDBRANCH   6   8
ENDBRANCH   3   4
ENDBRANCH   1   3
BRANCH   1  16
ATOM     16  C   UNL     1       4.234   8.185  -0.972  0.00  0.00    +0.340 C 
ATOM     17  O   UNL     1       5.212   7.675  -1.484  0.00  0.00    -0.245 OA
BRANCH  16  18
ATOM     18  C   UNL     1       3.997   9.632  -1.119  0.00  0.00    +0.061 A 
ATOM     19  C   UNL     1       2.869  10.219  -0.535  0.00  0.00    +0.017 A 
ATOM     20  C   UNL     1       2.652  11.561  -0.666  0.00  0.00    +0.026 A 
ATOM     21  C   UNL     1       3.545  12.348  -1.390  0.00  0.00    +0.055 A 
ATOM     22  C   UNL     1       4.666  11.771  -1.979  0.00  0.00    +0.147 A 
ATOM     23  C   UNL     1       4.894  10.420  -1.846  0.00  0.00    +0.049 A 
BRANCH  22  24
ATOM     24  N   UNL     1       5.614  12.609  -2.748  0.00  0.00    +0.058 N 
ATOM     25  O   UNL     1       6.534  12.090  -3.353  0.00  0.00    -0.126 OA
ATOM     26  O   UNL     1       5.472  13.819  -2.775  0.00  0.00    -0.126 OA
ENDBRANCH  22  24
BRANCH  21  27
ATOM     27  N   UNL     1       3.315  13.712  -1.524  0.00  0.00    -0.356 N 
ATOM     28  H   UNL     1       3.684  14.194  -2.282  0.00  0.00    +0.142 HD
ATOM     29  H   UNL     1       2.786  14.183  -0.861  0.00  0.00    +0.142 HD
ENDBRANCH  21  27
ENDBRANCH  16  18
ENDBRANCH   1  16
TORSDOF 7
