REMARK  Name = ZINC66240938
REMARK  8 active torsions:
REMARK  status: ('A' for Active; 'I' for Inactive)
REMARK    1  A    between atoms: C_1  and  N_2
REMARK    2  A    between atoms: N_2  and  C_3
REMARK    3  A    between atoms: N_2  and  C_4
REMARK    4  A    between atoms: C_7  and  N_11
REMARK    5  A    between atoms: C_12  and  C_14
REMARK    6  A    between atoms: C_17  and  N_20
REMARK    7  A    between atoms: C_21  and  N_27
REMARK    8  A    between atoms: C_22  and  C_25
REMARK                            x       y       z     vdW  Elec       q    Type
REMARK                         _______ _______ _______ _____ _____    ______ ____
ROOT
ATOM      1  C   UNL     1      -1.160  -4.022  -6.588  0.00  0.00    +0.037 A 
ATOM      2  C   UNL     1       0.051  -4.359  -7.199  0.00  0.00    +0.015 A 
ATOM      3  C   UNL     1       0.054  -5.129  -8.340  0.00  0.00    +0.028 A 
ATOM      4  C   UNL     1      -1.146  -5.571  -8.886  0.00  0.00    +0.067 A 
ATOM      5  C   UNL     1      -2.354  -5.238  -8.281  0.00  0.00    +0.028 A 
ATOM      6  C   UNL     1      -2.364  -4.473  -7.136  0.00  0.00    +0.015 A 
ENDROOT
BRANCH   4   7
ATOM      7  N   UNL     1      -1.139  -6.352 -10.045  0.00  0.00    -0.218 N 
ATOM      8  C   UNL     1      -2.008  -7.357 -10.332  0.00  0.00    +0.137 A 
ATOM      9  C   UNL     1      -1.645  -7.864 -11.577  0.00  0.00    +0.111 A 
ATOM     10  C   UNL     1      -0.526  -7.119 -12.018  0.00  0.00    +0.155 A 
ATOM     11  N   UNL     1      -0.241  -6.229 -11.111  0.00  0.00    -0.172 NA
BRANCH   8  12
ATOM     12  N   UNL     1      -3.051  -7.793  -9.540  0.00  0.00    -0.342 N 
ATOM     13  H   UNL     1      -3.220  -7.369  -8.684  0.00  0.00    +0.144 HD
ATOM     14  H   UNL     1      -3.616  -8.522  -9.839  0.00  0.00    +0.144 HD
ENDBRANCH   8  12
BRANCH   9  15
ATOM     15  C   UNL     1      -2.284  -8.936 -12.278  0.00  0.00    +0.104 C 
ATOM     16  N   UNL     1      -2.791  -9.787 -12.835  0.00  0.00    -0.191 NA
ENDBRANCH   9  15
ENDBRANCH   4   7
BRANCH   1  18
ATOM     17  N   UNL     1      -0.005  -2.763  -4.837  0.00  0.00    -0.281 N 
ATOM     18  C   UNL     1      -1.167  -3.197  -5.364  0.00  0.00    +0.248 C 
ATOM     19  O   UNL     1      -2.222  -2.909  -4.832  0.00  0.00    -0.270 OA
ATOM     20  H   UNL     1       0.830  -2.928  -5.303  0.00  0.00    +0.155 HD
BRANCH  17  24
ATOM     21  C   UNL     1       0.001  -0.713  -1.205  0.00  0.00    +0.048 A 
ATOM     22  C   UNL     1       0.932  -0.394  -2.185  0.00  0.00    +0.026 A 
ATOM     23  C   UNL     1       0.930  -1.073  -3.387  0.00  0.00    +0.025 A 
ATOM     24  C   UNL     1      -0.003  -2.075  -3.617  0.00  0.00    +0.035 A 
ATOM     25  C   UNL     1      -0.935  -2.395  -2.638  0.00  0.00    +0.045 A 
ATOM     26  C   UNL     1      -0.930  -1.719  -1.433  0.00  0.00    +0.064 A 
ATOM     27 CL   UNL     1      -2.090  -2.123  -0.207  0.00  0.00    -0.082 Cl
BRANCH  21  29
ATOM     28  C   UNL     1      -0.802   1.190   0.171  0.00  0.00    +0.129 C 
ATOM     29  N   UNL     1       0.003  -0.024   0.013  0.00  0.00    -0.335 N 
ATOM     30  C   UNL     1       0.810  -0.518   1.132  0.00  0.00    +0.129 C 
ENDBRANCH  21  29
ENDBRANCH  17  24
ENDBRANCH   1  18
TORSDOF 6
