REMARK  Name = ZINC52635062
REMARK  12 active torsions:
REMARK  status: ('A' for Active; 'I' for Inactive)
REMARK    1  A    between atoms: C_1  and  C_2
REMARK    2  A    between atoms: C_4  and  C_41
REMARK    3  A    between atoms: C_6  and  C_8
REMARK    4  A    between atoms: C_9  and  C_28
REMARK    5  A    between atoms: C_18  and  C_20
REMARK    6  A    between atoms: C_20  and  C_21
REMARK    7  A    between atoms: C_28  and  C_30
REMARK    8  A    between atoms: C_28  and  C_31
REMARK    9  A    between atoms: C_31  and  N_32
REMARK   10  A    between atoms: N_32  and  C_33
REMARK   11  A    between atoms: C_33  and  C_34
REMARK   12  A    between atoms: C_34  and  C_35
REMARK                            x       y       z     vdW  Elec       q    Type
REMARK                         _______ _______ _______ _____ _____    ______ ____
ROOT
ATOM      1  C   UNL     1      -0.155  -2.843   2.495  0.00  0.00    +0.071 C 
ATOM      2  C   UNL     1       0.141  -2.270   3.675  0.00  0.00    -0.033 C 
ATOM      3  C   UNL     1       0.393  -3.421   4.619  0.00  0.00    +0.079 C 
ATOM      4  C   UNL     1      -0.608  -3.435   5.779  0.00  0.00    +0.121 C 
ATOM      5  N   UNL     1      -0.597  -4.786   6.362  0.00  0.00    -0.300 N 
ATOM      6  C   UNL     1      -0.940  -5.957   5.550  0.00  0.00    +0.113 C 
ATOM      7  C   UNL     1      -0.003  -6.030   4.330  0.00  0.00    +0.070 C 
ATOM      8  C   UNL     1       0.092  -4.636   3.750  0.00  0.00    +0.030 C 
ATOM      9  N   UNL     1      -0.164  -4.205   2.579  0.00  0.00    -0.255 NA
ATOM     10  C   UNL     1      -0.267  -4.949   7.659  0.00  0.00    +0.220 C 
ATOM     11  O   UNL     1       0.019  -3.985   8.338  0.00  0.00    -0.275 OA
ENDROOT
BRANCH   1  17
ATOM     12  C   UNL     1       1.059   0.745  -0.758  0.00  0.00    +0.044 C 
ATOM     13  C   UNL     1       0.137  -0.361  -0.314  0.00  0.00    -0.050 A 
ATOM     14  C   UNL     1      -0.981  -0.672  -1.066  0.00  0.00    +0.006 A 
ATOM     15  C   UNL     1      -1.832  -1.686  -0.664  0.00  0.00    -0.050 A 
ATOM     16  C   UNL     1      -1.569  -2.394   0.491  0.00  0.00    +0.013 A 
ATOM     17  C   UNL     1      -0.443  -2.086   1.253  0.00  0.00    +0.001 A 
ATOM     18  C   UNL     1       0.414  -1.067   0.840  0.00  0.00    +0.013 A 
ATOM     19  C   UNL     1      -3.048  -2.018  -1.489  0.00  0.00    +0.044 C 
ENDBRANCH   1  17
BRANCH   2  20
ATOM     20  C   UNL     1       0.207  -0.797   3.987  0.00  0.00    -0.002 C 
ATOM     21  C   UNL     1       1.564  -0.468   4.611  0.00  0.00    +0.010 C 
BRANCH  20  22
ATOM     22  C   UNL     1      -0.908  -0.434   4.970  0.00  0.00    -0.075 C 
BRANCH  22  23
ATOM     23  N   UNL     1      -0.919   1.020   5.182  0.00  0.00    +0.380 N 
ATOM     24  H   UNL     1      -0.030   1.312   5.559  0.00  0.00    -0.086 HD
ATOM     25  H   UNL     1      -1.082   1.487   4.302  0.00  0.00    -0.086 HD
BRANCH  23  26
ATOM     26  C   UNL     1      -1.990   1.369   6.126  0.00  0.00    -0.078 C 
BRANCH  26  27
ATOM     27  C   UNL     1      -2.002   2.882   6.346  0.00  0.00    +0.016 C 
BRANCH  27  28
ATOM     28  C   UNL     1      -3.099   3.240   7.315  0.00  0.00    -0.046 A 
ATOM     29  C   UNL     1      -4.378   3.530   6.863  0.00  0.00    +0.023 A 
ATOM     30  C   UNL     1      -5.359   3.853   7.781  0.00  0.00    +0.111 A 
ATOM     31  N   UNL     1      -5.090   3.890   9.072  0.00  0.00    -0.263 NA
ATOM     32  C   UNL     1      -3.886   3.620   9.537  0.00  0.00    +0.111 A 
ATOM     33  C   UNL     1      -2.856   3.283   8.679  0.00  0.00    +0.023 A 
ENDBRANCH  27  28
ENDBRANCH  26  27
ENDBRANCH  23  26
ENDBRANCH  22  23
ENDBRANCH  20  22
ENDBRANCH   2  20
BRANCH  10  34
ATOM     34  C   UNL     1      -0.252  -6.328   8.265  0.00  0.00    +0.134 C 
BRANCH  34  35
ATOM     35  C   UNL     1       0.147  -6.235   9.716  0.00  0.00    -0.003 A 
ATOM     36  C   UNL     1       1.468  -6.413  10.082  0.00  0.00    +0.007 A 
ATOM     37  C   UNL     1       1.834  -6.328  11.412  0.00  0.00    +0.000 A 
ATOM     38  C   UNL     1       0.880  -6.064  12.378  0.00  0.00    +0.003 A 
ATOM     39  C   UNL     1      -0.441  -5.885  12.014  0.00  0.00    +0.038 A 
ATOM     40  C   UNL     1      -0.808  -5.965  10.681  0.00  0.00    +0.127 A 
ATOM     41  F   UNL     1      -2.099  -5.786  10.323  0.00  0.00    -0.205 F 
ENDBRANCH  34  35
ENDBRANCH  10  34
TORSDOF 9
