REMARK  Name = ZINC20568525
REMARK  8 active torsions:
REMARK  status: ('A' for Active; 'I' for Inactive)
REMARK    1  A    between atoms: C_1  and  C_2
REMARK    2  A    between atoms: C_2  and  C_3
REMARK    3  A    between atoms: C_10  and  N_23
REMARK    4  A    between atoms: C_11  and  C_12
REMARK    5  A    between atoms: N_14  and  C_15
REMARK    6  A    between atoms: C_24  and  C_26
REMARK    7  A    between atoms: N_29  and  C_31
REMARK    8  A    between atoms: C_31  and  C_32
REMARK                            x       y       z     vdW  Elec       q    Type
REMARK                         _______ _______ _______ _____ _____    ______ ____
ROOT
ATOM      1  C   UNL     1      -2.479   1.356  -0.352  0.00  0.00    -0.006 C 
ATOM      2  C   UNL     1      -2.452   0.069   0.477  0.00  0.00    +0.008 C 
ATOM      3  C   UNL     1      -1.306  -0.829   0.007  0.00  0.00    +0.037 C 
ATOM      4  C   UNL     1      -0.018  -0.016   0.001  0.00  0.00    -0.023 A 
ATOM      5  C   UNL     1      -0.047   1.334   0.009  0.00  0.00    -0.004 A 
ATOM      6  S   UNL     1       1.655   1.824  -0.002  0.00  0.00    -0.077 S 
ATOM      7  C   UNL     1       2.396   0.258  -0.017  0.00  0.00    +0.085 A 
ATOM      8  C   UNL     1       1.310  -0.607  -0.014  0.00  0.00    +0.069 A 
ATOM      9  C   UNL     1      -1.260   2.212   0.018  0.00  0.00    +0.046 C 
ENDROOT
BRANCH   8  10
ATOM     10  C   UNL     1       1.495  -2.061  -0.025  0.00  0.00    +0.251 C 
ATOM     11  O   UNL     1       1.564  -2.657  -1.083  0.00  0.00    -0.270 OA
ATOM     12  N   UNL     1       1.590  -2.737   1.137  0.00  0.00    -0.280 N 
ATOM     13  H   UNL     1       1.619  -2.189   2.091  0.00  0.00    +0.155 HD
BRANCH  12  14
ATOM     14  C   UNL     1       1.651  -4.135   1.131  0.00  0.00    +0.052 A 
ATOM     15  C   UNL     1       1.116  -4.849   0.067  0.00  0.00    +0.026 A 
ATOM     16  C   UNL     1       1.178  -6.229   0.062  0.00  0.00    +0.022 A 
ATOM     17  C   UNL     1       1.771  -6.900   1.117  0.00  0.00    +0.042 A 
ATOM     18  C   UNL     1       2.305  -6.192   2.179  0.00  0.00    +0.041 A 
ATOM     19  C   UNL     1       2.251  -4.811   2.186  0.00  0.00    +0.064 A 
ATOM     20 CL   UNL     1       2.927  -3.922   3.515  0.00  0.00    -0.082 Cl
ATOM     21 CL   UNL     1       1.847  -8.635   1.107  0.00  0.00    -0.083 Cl
ENDBRANCH  12  14
ENDBRANCH   8  10
BRANCH   7  22
ATOM     22  N   UNL     1       3.746  -0.056  -0.031  0.00  0.00    -0.274 N 
ATOM     23  C   UNL     1       4.666   0.929  -0.032  0.00  0.00    +0.269 C 
ATOM     24  O   UNL     1       4.312   2.092  -0.022  0.00  0.00    -0.268 OA
ATOM     25  H   UNL     1       4.066  -1.108  -0.040  0.00  0.00    +0.156 HD
BRANCH  23  26
ATOM     26  C   UNL     1       6.104   0.595  -0.046  0.00  0.00    +0.147 A 
ATOM     27  C   UNL     1       7.182   1.512  -0.049  0.00  0.00    +0.054 A 
ATOM     28  C   UNL     1       8.303   0.754  -0.064  0.00  0.00    +0.109 A 
ATOM     29  N   UNL     1       7.911  -0.539  -0.069  0.00  0.00    -0.271 N 
ATOM     30  N   UNL     1       6.629  -0.615  -0.053  0.00  0.00    -0.167 NA
BRANCH  29  31
ATOM     31  C   UNL     1       8.819  -1.689  -0.083  0.00  0.00    +0.140 C 
ATOM     32  C   UNL     1       8.494  -2.609   1.095  0.00  0.00    +0.029 C 
ENDBRANCH  29  31
ENDBRANCH  23  26
ENDBRANCH   7  22
BRANCH   1  34
ATOM     33  C   UNL     1      -3.848   3.353  -0.970  0.00  0.00    +0.004 C 
ATOM     34  C   UNL     1      -3.763   2.133  -0.051  0.00  0.00    +0.000 C 
ENDBRANCH   1  34
TORSDOF 6
