REMARK  Name = ZINC59094892
REMARK  12 active torsions:
REMARK  status: ('A' for Active; 'I' for Inactive)
REMARK    1  A    between atoms: C_1  and  C_2
REMARK    2  A    between atoms: C_2  and  C_31
REMARK    3  A    between atoms: C_4  and  N_10
REMARK    4  A    between atoms: C_6  and  C_8
REMARK    5  A    between atoms: C_6  and  C_9
REMARK    6  A    between atoms: N_10  and  C_11
REMARK    7  A    between atoms: N_10  and  C_20
REMARK    8  A    between atoms: C_11  and  C_12
REMARK    9  A    between atoms: C_15  and  O_18
REMARK   10  A    between atoms: O_18  and  C_19
REMARK   11  A    between atoms: C_20  and  N_22
REMARK   12  A    between atoms: N_22  and  C_23
REMARK                            x       y       z     vdW  Elec       q    Type
REMARK                         _______ _______ _______ _____ _____    ______ ____
ROOT
ATOM      1  N   UNL     1      -2.860  -2.430   0.166  0.00  0.00    -0.305 N 
ENDROOT
BRANCH   1   5
ATOM      2  C   UNL     1       1.816  -3.926   0.206  0.00  0.00    -0.010 C 
ATOM      3  C   UNL     1       0.927  -2.660   0.200  0.00  0.00    -0.072 C 
ATOM      4  C   UNL     1      -0.521  -3.120   0.327  0.00  0.00    +0.009 C 
ATOM      5  C   UNL     1      -1.475  -1.953   0.069  0.00  0.00    +0.073 C 
ATOM      6  C   UNL     1      -1.219  -1.432  -1.346  0.00  0.00    +0.009 C 
ATOM      7  C   UNL     1       0.224  -0.959  -1.484  0.00  0.00    -0.072 C 
ATOM      8  N   UNL     1       1.196  -1.938  -1.031  0.00  0.00    +0.386 N 
ATOM      9  C   UNL     1       0.403   0.380  -0.760  0.00  0.00    -0.010 C 
ATOM     10  C   UNL     1       0.483  -0.700  -2.987  0.00  0.00    -0.010 C 
ATOM     11  C   UNL     1       1.317  -1.831   1.428  0.00  0.00    -0.010 C 
ATOM     12  H   UNL     1       2.103  -1.470  -0.938  0.00  0.00    -0.084 HD
ATOM     13  H   UNL     1       1.333  -2.624  -1.781  0.00  0.00    -0.084 HD
ENDBRANCH   1   5
BRANCH   1  14
ATOM     14  C   UNL     1      -3.655  -1.993   1.163  0.00  0.00    +0.138 C 
ATOM     15  S   UNL     1      -5.239  -2.621   1.333  0.00  0.00    -0.018 S 
BRANCH  14  16
ATOM     16  N   UNL     1      -3.204  -1.061   2.025  0.00  0.00    -0.294 N 
ATOM     17  H   UNL     1      -2.889  -1.325   2.904  0.00  0.00    +0.154 HD
BRANCH  16  18
ATOM     18  C   UNL     1      -3.189   0.290   1.653  0.00  0.00    +0.068 A 
ATOM     19  C   UNL     1      -3.744   0.684   0.443  0.00  0.00    +0.029 A 
ATOM     20  C   UNL     1      -3.729   2.016   0.078  0.00  0.00    +0.040 A 
ATOM     21  C   UNL     1      -3.161   2.960   0.918  0.00  0.00    +0.126 A 
ATOM     22  C   UNL     1      -2.607   2.571   2.126  0.00  0.00    +0.078 A 
ATOM     23  C   UNL     1      -2.624   1.239   2.498  0.00  0.00    +0.147 A 
ATOM     24  F   UNL     1      -2.088   0.860   3.679  0.00  0.00    -0.203 F 
ATOM     25  F   UNL     1      -3.148   4.262   0.558  0.00  0.00    -0.205 F 
ENDBRANCH  16  18
ENDBRANCH  14  16
ENDBRANCH   1  14
BRANCH   1  26
ATOM     26  C   UNL     1      -3.379  -3.381  -0.821  0.00  0.00    +0.142 C 
BRANCH  26  27
ATOM     27  C   UNL     1      -3.184  -4.786  -0.315  0.00  0.00    -0.030 A 
ATOM     28  C   UNL     1      -2.087  -5.522  -0.723  0.00  0.00    +0.009 A 
ATOM     29  C   UNL     1      -1.907  -6.811  -0.261  0.00  0.00    +0.046 A 
ATOM     30  C   UNL     1      -2.828  -7.367   0.615  0.00  0.00    +0.120 A 
ATOM     31  C   UNL     1      -3.928  -6.627   1.024  0.00  0.00    +0.046 A 
ATOM     32  C   UNL     1      -4.101  -5.337   0.563  0.00  0.00    +0.009 A 
BRANCH  30  33
ATOM     33  O   UNL     1      -2.653  -8.636   1.071  0.00  0.00    -0.495 OA
ATOM     34  C   UNL     1      -3.641  -9.143   1.971  0.00  0.00    +0.277 C 
ENDBRANCH  30  33
ENDBRANCH  26  27
ENDBRANCH   1  26
TORSDOF 7
