REMARK  Name = ZINC06938499
REMARK  4 active torsions:
REMARK  status: ('A' for Active; 'I' for Inactive)
REMARK    1  A    between atoms: C_1  and  C_2
REMARK    2  A    between atoms: C_7  and  S_8
REMARK    3  A    between atoms: S_8  and  N_11
REMARK    4  A    between atoms: N_11  and  C_12
REMARK                            x       y       z     vdW  Elec       q    Type
REMARK                         _______ _______ _______ _____ _____    ______ ____
ROOT
ATOM      1  C   UNL     1       1.055  -1.851   1.558  0.00  0.00    +0.046 C 
ATOM      2  C   UNL     1      -0.217  -1.277   0.989  0.00  0.00    -0.022 A 
ATOM      3  C   UNL     1      -0.703  -1.742  -0.216  0.00  0.00    +0.033 A 
ATOM      4  C   UNL     1      -1.876  -1.214  -0.744  0.00  0.00    +0.066 A 
ATOM      5  C   UNL     1      -2.558  -0.213  -0.050  0.00  0.00    +0.068 A 
ATOM      6  C   UNL     1      -2.058   0.248   1.163  0.00  0.00    +0.056 A 
ATOM      7  C   UNL     1      -0.896  -0.288   1.680  0.00  0.00    +0.110 A 
ATOM      8  N   UNL     1      -3.734   0.328  -0.562  0.00  0.00    -0.316 N 
ATOM      9  H   UNL     1      -4.200   1.024  -0.072  0.00  0.00    +0.169 HD
ATOM     10  C   UNL     1      -4.225  -0.113  -1.738  0.00  0.00    +0.314 A 
ATOM     11  O   UNL     1      -5.250   0.357  -2.189  0.00  0.00    -0.262 OA
ATOM     12  C   UNL     1      -3.497  -1.183  -2.479  0.00  0.00    +0.314 A 
ATOM     13  O   UNL     1      -3.923  -1.593  -3.539  0.00  0.00    -0.262 OA
ATOM     14  N   UNL     1      -2.360  -1.689  -1.960  0.00  0.00    -0.316 N 
ATOM     15  H   UNL     1      -1.879  -2.385  -2.434  0.00  0.00    +0.169 HD
ENDROOT
BRANCH   7  16
ATOM     16  S   UNL     1      -0.271   0.295   3.220  0.00  0.00    +0.059 S 
ATOM     17  O   UNL     1      -1.162   1.308   3.664  0.00  0.00    -0.153 OA
ATOM     18  O   UNL     1       0.022  -0.856   4.001  0.00  0.00    -0.153 OA
BRANCH  16  19
ATOM     19  N   UNL     1       1.176   1.038   2.912  0.00  0.00    -0.187 NA
ATOM     20  H   UNL     1       1.997   0.672   3.276  0.00  0.00    +0.148 HD
BRANCH  19  21
ATOM     21  C   UNL     1       1.216   2.249   2.089  0.00  0.00    +0.077 C 
ATOM     22  C   UNL     1       2.057   1.967   0.826  0.00  0.00    +0.020 C 
ATOM     23  C   UNL     1       1.690   2.978  -0.227  0.00  0.00    +0.002 C 
ATOM     24  C   UNL     1       2.629   4.199  -0.224  0.00  0.00    +0.000 C 
ATOM     25  C   UNL     1       2.970   4.687   1.197  0.00  0.00    +0.000 C 
ATOM     26  C   UNL     1       1.775   4.677   2.112  0.00  0.00    +0.002 C 
ATOM     27  C   UNL     1       1.758   3.342   2.883  0.00  0.00    +0.020 C 
ENDBRANCH  19  21
ENDBRANCH  16  19
ENDBRANCH   7  16
TORSDOF 3
