REMARK  Name = ZINC11343255
REMARK  9 active torsions:
REMARK  status: ('A' for Active; 'I' for Inactive)
REMARK    1  A    between atoms: C_1  and  C_2
REMARK    2  A    between atoms: C_2  and  C_4
REMARK    3  A    between atoms: C_2  and  O_14
REMARK    4  A    between atoms: N_6  and  C_7
REMARK    5  A    between atoms: O_14  and  C_15
REMARK    6  A    between atoms: C_15  and  C_17
REMARK    7  A    between atoms: C_21  and  S_23
REMARK    8  A    between atoms: S_23  and  N_26
REMARK    9  A    between atoms: N_26  and  C_27
REMARK                            x       y       z     vdW  Elec       q    Type
REMARK                         _______ _______ _______ _____ _____    ______ ____
ROOT
ATOM      1  O   UNL     1       3.784  -4.690  -0.490  0.00  0.00    -0.449 OA
ENDROOT
BRANCH   1   3
ATOM      2  C   UNL     1       1.891  -4.859   1.032  0.00  0.00    +0.062 C 
ATOM      3  C   UNL     1       2.424  -4.237  -0.260  0.00  0.00    +0.259 C 
BRANCH   3   4
ATOM      4  C   UNL     1       2.409  -2.735  -0.138  0.00  0.00    +0.258 C 
ATOM      5  O   UNL     1       3.451  -2.116  -0.144  0.00  0.00    -0.271 OA
ATOM      6  N   UNL     1       1.237  -2.080  -0.021  0.00  0.00    -0.282 N 
ATOM      7  H   UNL     1       0.409  -2.579   0.061  0.00  0.00    +0.155 HD
BRANCH   6   8
ATOM      8  C   UNL     1       1.214  -0.681  -0.019  0.00  0.00    +0.034 A 
ATOM      9  C   UNL     1       2.138   0.031  -0.773  0.00  0.00    +0.024 A 
ATOM     10  C   UNL     1       2.113   1.412  -0.768  0.00  0.00    +0.017 A 
ATOM     11  C   UNL     1       1.170   2.086  -0.013  0.00  0.00    +0.018 A 
ATOM     12  C   UNL     1       0.249   1.379   0.739  0.00  0.00    +0.017 A 
ATOM     13  C   UNL     1       0.269  -0.002   0.738  0.00  0.00    +0.024 A 
ATOM     14 BR   UNL     1       1.140   3.977  -0.009  0.00  0.00    -0.050 Br
ENDBRANCH   6   8
ENDBRANCH   3   4
ENDBRANCH   1   3
BRANCH   1  15
ATOM     15  C   UNL     1       3.939  -5.818  -1.211  0.00  0.00    +0.340 C 
ATOM     16  O   UNL     1       2.965  -6.406  -1.635  0.00  0.00    -0.245 OA
BRANCH  15  17
ATOM     17  C   UNL     1       5.294  -6.339  -1.485  0.00  0.00    +0.061 A 
ATOM     18  C   UNL     1       6.416  -5.665  -0.998  0.00  0.00    +0.015 A 
ATOM     19  C   UNL     1       7.678  -6.157  -1.258  0.00  0.00    +0.003 A 
ATOM     20  C   UNL     1       7.834  -7.316  -1.998  0.00  0.00    +0.028 A 
ATOM     21  C   UNL     1       6.727  -7.989  -2.482  0.00  0.00    +0.106 A 
ATOM     22  C   UNL     1       5.458  -7.510  -2.226  0.00  0.00    +0.043 A 
BRANCH  21  23
ATOM     23  S   UNL     1       6.937  -9.464  -3.422  0.00  0.00    +0.058 S 
ATOM     24  O   UNL     1       5.771  -9.605  -4.222  0.00  0.00    -0.153 OA
ATOM     25  O   UNL     1       8.242  -9.407  -3.982  0.00  0.00    -0.153 OA
BRANCH  23  26
ATOM     26  N   UNL     1       6.934 -10.730  -2.355  0.00  0.00    -0.193 NA
ATOM     27  C   UNL     1       5.725 -11.038  -1.587  0.00  0.00    +0.127 C 
ATOM     28  H   UNL     1       7.733 -11.267  -2.238  0.00  0.00    +0.148 HD
ENDBRANCH  23  26
ENDBRANCH  21  23
ENDBRANCH  15  17
ENDBRANCH   1  15
TORSDOF 7
