REMARK  Name = ZINC39965708
REMARK  8 active torsions:
REMARK  status: ('A' for Active; 'I' for Inactive)
REMARK    1  A    between atoms: C_2  and  C_3
REMARK    2  A    between atoms: C_3  and  N_4
REMARK    3  A    between atoms: C_5  and  C_27
REMARK    4  A    between atoms: C_8  and  S_9
REMARK    5  A    between atoms: S_9  and  C_10
REMARK    6  A    between atoms: C_10  and  C_11
REMARK    7  A    between atoms: N_13  and  C_14
REMARK    8  A    between atoms: C_15  and  C_25
REMARK                            x       y       z     vdW  Elec       q    Type
REMARK                         _______ _______ _______ _____ _____    ______ ____
ROOT
ATOM      1  S   UNL     1       1.061  -4.088  -0.678  0.00  0.00    -0.077 S 
ENDROOT
BRANCH   1   6
ATOM      2  N   UNL     1       1.841  -1.896   0.875  0.00  0.00    -0.298 N 
ATOM      3  C   UNL     1       1.843  -1.580   2.214  0.00  0.00    +0.165 A 
ATOM      4  N   UNL     1       1.351  -2.614   2.854  0.00  0.00    -0.128 NA
ATOM      5  N   UNL     1       1.045  -3.542   2.020  0.00  0.00    -0.122 NA
ATOM      6  C   UNL     1       1.318  -3.155   0.794  0.00  0.00    +0.193 A 
BRANCH   3   7
ATOM      7  C   UNL     1       2.312  -0.315   2.817  0.00  0.00    +0.023 A 
ATOM      8  C   UNL     1       2.927  -0.323   4.071  0.00  0.00    +0.015 A 
ATOM      9  C   UNL     1       3.364   0.859   4.632  0.00  0.00    +0.050 A 
ATOM     10  C   UNL     1       3.196   2.058   3.955  0.00  0.00    +0.166 A 
ATOM     11  C   UNL     1       2.583   2.073   2.702  0.00  0.00    +0.167 A 
ATOM     12  C   UNL     1       2.147   0.890   2.133  0.00  0.00    +0.061 A 
ATOM     13  O   UNL     1       2.539   3.361   2.254  0.00  0.00    -0.453 OA
ATOM     14  C   UNL     1       2.759   4.181   3.417  0.00  0.00    +0.466 C 
ATOM     15  O   UNL     1       3.535   3.337   4.288  0.00  0.00    -0.453 OA
ENDBRANCH   3   7
BRANCH   2  16
ATOM     16  C   UNL     1       2.299  -1.055  -0.234  0.00  0.00    +0.152 C 
BRANCH  16  18
ATOM     17  C   UNL     1       1.150   0.968  -0.977  0.00  0.00    +0.005 C 
ATOM     18  C   UNL     1       1.120  -0.334  -0.838  0.00  0.00    -0.013 C 
ENDBRANCH  16  18
ENDBRANCH   2  16
ENDBRANCH   1   6
BRANCH   1  19
ATOM     19  C   UNL     1       0.348  -5.649  -0.090  0.00  0.00    +0.173 C 
BRANCH  19  20
ATOM     20  C   UNL     1       0.077  -6.552  -1.266  0.00  0.00    +0.228 C 
ATOM     21  O   UNL     1       0.338  -6.179  -2.390  0.00  0.00    -0.275 OA
ATOM     22  N   UNL     1      -0.456  -7.774  -1.068  0.00  0.00    -0.278 N 
ATOM     23  H   UNL     1      -0.666  -8.072  -0.169  0.00  0.00    +0.155 HD
BRANCH  22  24
ATOM     24  C   UNL     1      -0.707  -8.605  -2.151  0.00  0.00    +0.090 A 
ATOM     25  C   UNL     1      -1.248  -9.873  -2.141  0.00  0.00    +0.084 A 
ATOM     26  C   UNL     1      -1.413 -10.563  -3.425  0.00  0.00    -0.018 A 
ATOM     27  C   UNL     1      -0.970  -9.838  -4.468  0.00  0.00    -0.004 A 
ATOM     28  S   UNL     1      -0.427  -8.298  -3.776  0.00  0.00    -0.077 S 
ATOM     29  C   UNL     1      -0.883 -10.240  -5.913  0.00  0.00    +0.043 C 
ATOM     30  C   UNL     1       0.362 -11.133  -6.063  0.00  0.00    +0.005 C 
ATOM     31  C   UNL     1       0.257 -12.275  -5.047  0.00  0.00    +0.000 C 
ATOM     32  C   UNL     1      -0.988 -13.049  -5.428  0.00  0.00    +0.000 C 
ATOM     33  C   UNL     1      -2.272 -12.455  -4.876  0.00  0.00    +0.005 C 
ATOM     34  C   UNL     1      -2.095 -11.928  -3.457  0.00  0.00    +0.037 C 
BRANCH  25  35
ATOM     35  C   UNL     1      -1.637 -10.499  -0.913  0.00  0.00    +0.102 C 
ATOM     36  N   UNL     1      -1.946 -10.995   0.061  0.00  0.00    -0.191 NA
ENDBRANCH  25  35
ENDBRANCH  22  24
ENDBRANCH  19  20
ENDBRANCH   1  19
TORSDOF 8
