REMARK  Name = ZINC12822336
REMARK  8 active torsions:
REMARK  status: ('A' for Active; 'I' for Inactive)
REMARK    1  A    between atoms: C_1  and  C_2
REMARK    2  A    between atoms: N_4  and  C_5
REMARK    3  A    between atoms: C_8  and  S_11
REMARK    4  A    between atoms: S_11  and  N_14
REMARK    5  A    between atoms: C_17  and  N_20
REMARK    6  A    between atoms: C_21  and  C_23
REMARK    7  A    between atoms: C_26  and  N_28
REMARK    8  A    between atoms: C_29  and  C_31
REMARK                            x       y       z     vdW  Elec       q    Type
REMARK                         _______ _______ _______ _____ _____    ______ ____
ROOT
ATOM      1  N   UNL     1      -5.734   3.587   2.024  0.00  0.00    -0.176 NA
ATOM      2  C   UNL     1      -6.365   2.554   2.857  0.00  0.00    +0.111 C 
ATOM      3  C   UNL     1      -5.477   2.305   4.085  0.00  0.00    +0.039 C 
ATOM      4  C   UNL     1      -5.232   3.631   4.808  0.00  0.00    +0.076 C 
ATOM      5  C   UNL     1      -4.501   4.597   3.872  0.00  0.00    +0.039 C 
ATOM      6  C   UNL     1      -5.374   4.870   2.643  0.00  0.00    +0.111 C 
ENDROOT
BRANCH   4   7
ATOM      7  N   UNL     1      -4.415   3.394   6.000  0.00  0.00    -0.308 N 
ATOM      8  C   UNL     1      -5.000   3.019   7.155  0.00  0.00    +0.251 C 
ATOM      9  O   UNL     1      -6.209   2.878   7.207  0.00  0.00    -0.270 OA
ATOM     10  H   UNL     1      -3.453   3.507   5.958  0.00  0.00    +0.149 HD
BRANCH   8  11
ATOM     11  C   UNL     1      -4.185   2.783   8.344  0.00  0.00    +0.076 A 
ATOM     12  C   UNL     1      -4.588   2.401   9.616  0.00  0.00    +0.022 A 
ATOM     13  C   UNL     1      -3.611   2.241  10.562  0.00  0.00    +0.032 A 
ATOM     14  C   UNL     1      -2.300   2.475  10.209  0.00  0.00    +0.072 A 
ATOM     15  S   UNL     1      -2.417   2.917   8.536  0.00  0.00    -0.069 S 
BRANCH  14  16
ATOM     16  N   UNL     1      -1.162   2.380  11.000  0.00  0.00    -0.280 N 
ATOM     17  C   UNL     1       0.049   2.651  10.473  0.00  0.00    +0.221 C 
ATOM     18  O   UNL     1       0.145   2.977   9.309  0.00  0.00    -0.275 OA
ATOM     19  H   UNL     1      -1.238   2.119  11.931  0.00  0.00    +0.155 HD
BRANCH  17  20
ATOM     20  C   UNL     1       1.284   2.547  11.331  0.00  0.00    +0.075 C 
ATOM     21  C   UNL     1       2.014   3.847  11.677  0.00  0.00    +0.013 C 
ATOM     22  C   UNL     1       2.629   2.867  10.675  0.00  0.00    +0.013 C 
ENDBRANCH  17  20
ENDBRANCH  14  16
ENDBRANCH   8  11
ENDBRANCH   4   7
BRANCH   1  23
ATOM     23  S   UNL     1      -5.439   3.312   0.418  0.00  0.00    +0.061 S 
ATOM     24  O   UNL     1      -5.379   4.587  -0.207  0.00  0.00    -0.153 OA
ATOM     25  O   UNL     1      -6.351   2.304   0.005  0.00  0.00    -0.153 OA
BRANCH  23  29
ATOM     26  C   UNL     1      -1.292   1.520   0.104  0.00  0.00    +0.033 A 
ATOM     27  C   UNL     1      -1.460   2.897   0.056  0.00  0.00    +0.025 A 
ATOM     28  C   UNL     1      -2.727   3.441   0.145  0.00  0.00    +0.030 A 
ATOM     29  C   UNL     1      -3.826   2.615   0.296  0.00  0.00    +0.106 A 
ATOM     30  C   UNL     1      -3.662   1.243   0.350  0.00  0.00    +0.030 A 
ATOM     31  C   UNL     1      -2.398   0.693   0.255  0.00  0.00    +0.025 A 
BRANCH  26  35
ATOM     32  C   UNL     1       2.335   1.032  -0.773  0.00  0.00    +0.109 C 
ATOM     33  C   UNL     1       0.924   1.561  -0.759  0.00  0.00    +0.214 C 
ATOM     34  O   UNL     1       0.631   2.523  -1.436  0.00  0.00    -0.276 OA
ATOM     35  N   UNL     1      -0.011   0.966   0.007  0.00  0.00    -0.286 N 
ATOM     36  H   UNL     1       0.203   0.151   0.488  0.00  0.00    +0.155 HD
ENDBRANCH  26  35
ENDBRANCH  23  29
ENDBRANCH   1  23
TORSDOF 7
