REMARK  Name = ZINC12794989
REMARK  6 active torsions:
REMARK  status: ('A' for Active; 'I' for Inactive)
REMARK    1  A    between atoms: C_1  and  O_2
REMARK    2  A    between atoms: O_2  and  C_3
REMARK    3  A    between atoms: C_3  and  C_5
REMARK    4  A    between atoms: C_7  and  C_11
REMARK    5  A    between atoms: C_17  and  C_19
REMARK    6  A    between atoms: C_20  and  C_21
REMARK                            x       y       z     vdW  Elec       q    Type
REMARK                         _______ _______ _______ _____ _____    ______ ____
ROOT
ATOM      1  C   UNL     1     -10.750  -1.253   0.058  0.00  0.00    +0.082 A 
ATOM      2  C   UNL     1     -10.510  -2.598   0.047  0.00  0.00    +0.077 A 
ATOM      3  S   UNL     1      -8.723  -2.617   0.030  0.00  0.00    -0.060 S 
ATOM      4  C   UNL     1      -8.475  -0.899   0.047  0.00  0.00    +0.165 A 
ATOM      5  N   UNL     1      -9.708  -0.434   0.058  0.00  0.00    -0.225 NA
ATOM      6  N   UNL     1      -7.280  -0.193   0.045  0.00  0.00    -0.261 N 
ATOM      7  C   UNL     1      -6.106  -0.855   0.033  0.00  0.00    +0.243 C 
ATOM      8  O   UNL     1      -6.094  -2.072   0.025  0.00  0.00    -0.270 OA
ATOM      9  H   UNL     1      -7.290   0.777   0.051  0.00  0.00    +0.157 HD
ENDROOT
BRANCH   1  12
ATOM     10  C   UNL     1     -13.890   0.667   0.032  0.00  0.00    +0.125 A 
ATOM     11  C   UNL     1     -12.513   0.629  -0.011  0.00  0.00    +0.044 A 
ATOM     12  C   UNL     1     -12.138  -0.725   0.071  0.00  0.00    +0.019 A 
ATOM     13  C   UNL     1     -13.282  -1.463   0.169  0.00  0.00    +0.093 A 
ATOM     14  N   UNL     1     -14.342  -0.629   0.146  0.00  0.00    -0.355 N 
ATOM     15  H   UNL     1     -15.273  -0.898   0.202  0.00  0.00    +0.166 HD
BRANCH  10  16
ATOM     16  C   UNL     1     -14.724   1.870  -0.028  0.00  0.00    +0.355 C 
ATOM     17  O   UNL     1     -14.204   2.965  -0.130  0.00  0.00    -0.243 OA
BRANCH  16  19
ATOM     18  C   UNL     1     -16.829   2.998  -0.034  0.00  0.00    +0.280 C 
ATOM     19  O   UNL     1     -16.067   1.764   0.030  0.00  0.00    -0.463 OA
ENDBRANCH  16  19
ENDBRANCH  10  16
ENDBRANCH   1  12
BRANCH   7  20
ATOM     20  C   UNL     1      -4.847  -0.111   0.031  0.00  0.00    +0.068 C 
ATOM     21  C   UNL     1      -3.671  -0.774   0.019  0.00  0.00    +0.013 C 
BRANCH  21  22
ATOM     22  C   UNL     1      -2.406  -0.027   0.016  0.00  0.00    -0.021 A 
ATOM     23  C   UNL     1      -2.417   1.373   0.026  0.00  0.00    +0.012 A 
ATOM     24  C   UNL     1      -1.229   2.069   0.019  0.00  0.00    +0.050 A 
ATOM     25  C   UNL     1      -0.017   1.389   0.010  0.00  0.00    +0.162 A 
ATOM     26  C   UNL     1       0.002  -0.004   0.002  0.00  0.00    +0.163 A 
ATOM     27  C   UNL     1      -1.186  -0.711   0.004  0.00  0.00    +0.057 A 
ATOM     28  O   UNL     1       1.181  -0.684  -0.007  0.00  0.00    -0.485 OA
ATOM     29  C   UNL     1       2.347   0.055  -0.387  0.00  0.00    +0.270 C 
ATOM     30  C   UNL     1       2.334   1.392   0.366  0.00  0.00    +0.270 C 
ATOM     31  O   UNL     1       1.143   2.099   0.002  0.00  0.00    -0.485 OA
ENDBRANCH  21  22
ENDBRANCH   7  20
TORSDOF 5
