REMARK  Name = ZINC06445097
REMARK  10 active torsions:
REMARK  status: ('A' for Active; 'I' for Inactive)
REMARK    1  A    between atoms: C_12  and  C_13
REMARK    2  A    between atoms: C_13  and  N_14
REMARK    3  A    between atoms: N_14  and  C_15
REMARK    4  A    between atoms: N_14  and  C_23
REMARK    5  A    between atoms: C_15  and  C_16
REMARK    6  A    between atoms: C_16  and  C_17
REMARK    7  A    between atoms: C_17  and  N_69
REMARK    8  A    between atoms: C_23  and  N_25
REMARK    9  A    between atoms: N_25  and  C_26
REMARK   10  A    between atoms: C_26  and  C_27
REMARK                            x       y       z     vdW  Elec       q    Type
REMARK                         _______ _______ _______ _____ _____    ______ ____
ROOT
ATOM      1  N   UNL     1      -5.542   3.831  -1.316  0.00  0.00    -0.308 N 
ENDROOT
BRANCH   1   2
ATOM      2  C   UNL     1      -6.349   2.835  -1.731  0.00  0.00    +0.133 C 
ATOM      3  S   UNL     1      -6.887   2.789  -3.356  0.00  0.00    -0.019 S 
BRANCH   2   4
ATOM      4  N   UNL     1      -6.734   1.874  -0.867  0.00  0.00    -0.324 N 
ATOM      5  H   UNL     1      -6.374   1.860   0.034  0.00  0.00    +0.148 HD
BRANCH   4   6
ATOM      6  C   UNL     1      -7.694   0.852  -1.288  0.00  0.00    +0.134 C 
BRANCH   6   7
ATOM      7  C   UNL     1      -7.957  -0.110  -0.128  0.00  0.00    +0.135 C 
ATOM      8  C   UNL     1      -8.967  -1.190  -0.561  0.00  0.00    +0.035 C 
ATOM      9  C   UNL     1      -8.209  -2.524  -0.353  0.00  0.00    +0.031 C 
ATOM     10  C   UNL     1      -7.104  -2.116   0.655  0.00  0.00    +0.160 C 
ATOM     11  O   UNL     1      -6.740  -0.784   0.234  0.00  0.00    -0.375 OA
ENDBRANCH   6   7
ENDBRANCH   4   6
ENDBRANCH   2   4
ENDBRANCH   1   2
BRANCH   1  12
ATOM     12  C   UNL     1      -4.995   3.812   0.043  0.00  0.00    +0.147 C 
BRANCH  12  24
ATOM     13  C   UNL     1      -6.840   3.681   1.695  0.00  0.00    +0.020 A 
ATOM     14  C   UNL     1      -7.784   4.334   2.600  0.00  0.00    +0.003 A 
ATOM     15  C   UNL     1      -8.711   3.589   3.339  0.00  0.00    +0.059 A 
ATOM     16  C   UNL     1      -9.591   4.233   4.183  0.00  0.00    +0.163 A 
ATOM     17  C   UNL     1      -9.558   5.625   4.305  0.00  0.00    +0.164 A 
ATOM     18  C   UNL     1      -8.645   6.370   3.578  0.00  0.00    +0.075 A 
ATOM     19  C   UNL     1      -7.757   5.737   2.718  0.00  0.00    +0.053 A 
ATOM     20  N   UNL     1      -6.845   6.465   1.981  0.00  0.00    -0.322 N 
ATOM     21  H   UNL     1      -6.823   7.431   2.067  0.00  0.00    +0.169 HD
ATOM     22  C   UNL     1      -5.985   5.855   1.147  0.00  0.00    +0.254 A 
ATOM     23  O   UNL     1      -5.194   6.530   0.511  0.00  0.00    -0.268 OA
ATOM     24  C   UNL     1      -5.976   4.454   0.989  0.00  0.00    +0.035 A 
ATOM     25  O   UNL     1     -10.419   6.268   5.139  0.00  0.00    -0.485 OA
ATOM     26  C   UNL     1     -11.569   5.532   5.569  0.00  0.00    +0.270 C 
ATOM     27  C   UNL     1     -11.110   4.136   6.011  0.00  0.00    +0.270 C 
ATOM     28  O   UNL     1     -10.489   3.494   4.892  0.00  0.00    -0.485 OA
ENDBRANCH  12  24
ENDBRANCH   1  12
BRANCH   1  29
ATOM     29  C   UNL     1      -5.213   4.933  -2.224  0.00  0.00    +0.105 C 
BRANCH  29  30
ATOM     30  C   UNL     1      -3.950   4.583  -3.013  0.00  0.00    +0.000 C 
BRANCH  30  31
ATOM     31  C   UNL     1      -3.605   5.734  -3.960  0.00  0.00    -0.077 C 
BRANCH  31  37
ATOM     32  C   UNL     1      -1.222   5.322  -3.832  0.00  0.00    -0.050 C 
ATOM     33  C   UNL     1       0.005   4.912  -4.650  0.00  0.00    +0.141 C 
ATOM     34  O   UNL     1       0.194   5.846  -5.717  0.00  0.00    -0.383 OA
ATOM     35  C   UNL     1      -0.927   5.945  -6.600  0.00  0.00    +0.141 C 
ATOM     36  C   UNL     1      -2.163   6.365  -5.801  0.00  0.00    -0.050 C 
ATOM     37  N   UNL     1      -2.395   5.374  -4.730  0.00  0.00    +0.383 N 
ATOM     38  H   UNL     1      -2.532   4.449  -5.154  0.00  0.00    -0.082 HD
ENDBRANCH  31  37
ENDBRANCH  30  31
ENDBRANCH  29  30
ENDBRANCH   1  29
TORSDOF 10
