REMARK  Name = ZINC14668059
REMARK  11 active torsions:
REMARK  status: ('A' for Active; 'I' for Inactive)
REMARK    1  A    between atoms: C_1  and  C_2
REMARK    2  A    between atoms: C_2  and  C_3
REMARK    3  A    between atoms: C_6  and  O_10
REMARK    4  A    between atoms: O_10  and  C_11
REMARK    5  A    between atoms: C_11  and  C_12
REMARK    6  A    between atoms: N_14  and  N_15
REMARK    7  A    between atoms: C_16  and  C_18
REMARK    8  A    between atoms: C_23  and  O_24
REMARK    9  A    between atoms: O_24  and  C_25
REMARK   10  A    between atoms: C_25  and  C_26
REMARK   11  A    between atoms: C_25  and  C_27
REMARK                            x       y       z     vdW  Elec       q    Type
REMARK                         _______ _______ _______ _____ _____    ______ ____
ROOT
ATOM      1  C   UNL     1      -5.807  -1.208   0.607  0.00  0.00    +0.267 C 
ATOM      2  O   UNL     1      -5.685  -2.414   0.607  0.00  0.00    -0.271 OA
ATOM      3  N   UNL     1      -4.719  -0.420   0.491  0.00  0.00    -0.231 N 
ATOM      4  H   UNL     1      -4.817   0.545   0.491  0.00  0.00    +0.173 HD
ENDROOT
BRANCH   3   5
ATOM      5  N   UNL     1      -3.447  -0.995   0.372  0.00  0.00    -0.230 N 
ATOM      6  C   UNL     1      -2.360  -0.208   0.257  0.00  0.00    +0.264 C 
ATOM      7  O   UNL     1      -2.483   1.002   0.257  0.00  0.00    -0.269 OA
ATOM      8  H   UNL     1      -3.350  -1.960   0.372  0.00  0.00    +0.173 HD
BRANCH   6   9
ATOM      9  C   UNL     1      -1.020  -0.813   0.131  0.00  0.00    +0.081 A 
ATOM     10  C   UNL     1      -0.876  -2.203   0.124  0.00  0.00    +0.032 A 
ATOM     11  C   UNL     1       0.380  -2.762   0.013  0.00  0.00    +0.019 A 
ATOM     12  C   UNL     1       1.499  -1.952  -0.099  0.00  0.00    +0.019 A 
ATOM     13  C   UNL     1       1.368  -0.578  -0.101  0.00  0.00    +0.047 A 
ATOM     14  C   UNL     1       0.113   0.002   0.011  0.00  0.00    +0.133 A 
ATOM     15 BR   UNL     1       0.575  -4.643   0.014  0.00  0.00    -0.050 Br
BRANCH  14  16
ATOM     16  O   UNL     1      -0.016   1.353   0.009  0.00  0.00    -0.489 OA
BRANCH  16  17
ATOM     17  C   UNL     1       1.167   2.117  -0.231  0.00  0.00    +0.167 C 
ATOM     18  C   UNL     1       0.783   3.483  -0.805  0.00  0.00    +0.051 C 
ATOM     19  C   UNL     1       1.925   2.311   1.083  0.00  0.00    +0.051 C 
ENDBRANCH  16  17
ENDBRANCH  14  16
ENDBRANCH   6   9
ENDBRANCH   3   5
BRANCH   1  20
ATOM     20  C   UNL     1      -7.175  -0.589   0.735  0.00  0.00    +0.326 C 
BRANCH  20  21
ATOM     21  O   UNL     1      -8.157  -1.622   0.843  0.00  0.00    -0.482 OA
BRANCH  21  25
ATOM     22  C   UNL     1     -12.091  -0.436   1.217  0.00  0.00    -0.046 A 
ATOM     23  C   UNL     1     -11.091   0.513   1.110  0.00  0.00    +0.007 A 
ATOM     24  C   UNL     1      -9.773   0.118   0.985  0.00  0.00    +0.047 A 
ATOM     25  C   UNL     1      -9.453  -1.231   0.966  0.00  0.00    +0.135 A 
ATOM     26  C   UNL     1     -10.459  -2.182   1.069  0.00  0.00    +0.060 A 
ATOM     27  C   UNL     1     -11.775  -1.781   1.200  0.00  0.00    +0.022 A 
ATOM     28 BR   UNL     1     -10.028  -4.023   1.038  0.00  0.00    -0.047 Br
BRANCH  22  30
ATOM     29  C   UNL     1     -14.154   0.131  -0.036  0.00  0.00    +0.009 C 
ATOM     30  C   UNL     1     -13.528  -0.002   1.354  0.00  0.00    +0.032 C 
ENDBRANCH  22  30
ENDBRANCH  21  25
ENDBRANCH  20  21
ENDBRANCH   1  20
TORSDOF 8
