REMARK  Name = ZINC12566807
REMARK  16 active torsions:
REMARK  status: ('A' for Active; 'I' for Inactive)
REMARK    1  A    between atoms: C_1  and  C_2
REMARK    2  A    between atoms: C_2  and  O_3
REMARK    3  A    between atoms: O_3  and  C_4
REMARK    4  A    between atoms: C_11  and  C_16
REMARK    5  A    between atoms: C_16  and  N_17
REMARK    6  A    between atoms: N_17  and  C_18
REMARK    7  A    between atoms: N_17  and  C_22
REMARK    8  A    between atoms: C_18  and  C_19
REMARK    9  A    between atoms: C_19  and  N_64
REMARK   10  A    between atoms: C_20  and  N_64
REMARK   11  A    between atoms: C_21  and  N_64
REMARK   12  A    between atoms: C_22  and  N_24
REMARK   13  A    between atoms: N_24  and  C_25
REMARK   14  A    between atoms: C_30  and  C_31
REMARK   15  A    between atoms: C_31  and  O_33
REMARK   16  A    between atoms: O_33  and  C_34
REMARK                            x       y       z     vdW  Elec       q    Type
REMARK                         _______ _______ _______ _____ _____    ______ ____
ROOT
ATOM      1  N   UNL     1       1.222  -2.923   1.330  0.00  0.00    -0.310 N 
ENDROOT
BRANCH   1   2
ATOM      2  C   UNL     1       0.066  -3.237   1.948  0.00  0.00    +0.137 C 
ATOM      3  S   UNL     1      -1.359  -3.473   1.030  0.00  0.00    -0.018 S 
BRANCH   2   4
ATOM      4  N   UNL     1       0.032  -3.364   3.290  0.00  0.00    -0.296 N 
ATOM      5  H   UNL     1       0.852  -3.297   3.804  0.00  0.00    +0.154 HD
BRANCH   4   6
ATOM      6  C   UNL     1      -1.179  -3.592   3.937  0.00  0.00    +0.047 A 
ATOM      7  C   UNL     1      -2.337  -2.970   3.489  0.00  0.00    +0.024 A 
ATOM      8  C   UNL     1      -3.538  -3.201   4.130  0.00  0.00    +0.002 A 
ATOM      9  C   UNL     1      -3.596  -4.045   5.228  0.00  0.00    +0.001 A 
ATOM     10  C   UNL     1      -2.457  -4.666   5.690  0.00  0.00    +0.017 A 
ATOM     11  C   UNL     1      -1.234  -4.446   5.049  0.00  0.00    +0.080 A 
BRANCH  11  12
ATOM     12  C   UNL     1      -0.011  -5.107   5.538  0.00  0.00    +0.341 C 
ATOM     13  O   UNL     1       1.061  -4.856   5.025  0.00  0.00    -0.245 OA
BRANCH  12  14
ATOM     14  O   UNL     1      -0.083  -5.990   6.554  0.00  0.00    -0.464 OA
ATOM     15  C   UNL     1       1.161  -6.603   6.983  0.00  0.00    +0.280 C 
ENDBRANCH  12  14
ENDBRANCH  11  12
ENDBRANCH   4   6
ENDBRANCH   2   4
ENDBRANCH   1   2
BRANCH   1  16
ATOM     16  C   UNL     1       1.238  -2.687  -0.116  0.00  0.00    +0.147 C 
BRANCH  16  24
ATOM     17  C   UNL     1      -1.796   2.563  -1.403  0.00  0.00    +0.121 A 
ATOM     18  C   UNL     1      -0.677   3.391  -1.384  0.00  0.00    +0.047 A 
ATOM     19  C   UNL     1       0.574   2.876  -1.125  0.00  0.00    +0.030 A 
ATOM     20  C   UNL     1       0.727   1.515  -0.880  0.00  0.00    +0.049 A 
ATOM     21  C   UNL     1      -0.402   0.674  -0.898  0.00  0.00    +0.002 A 
ATOM     22  C   UNL     1      -1.667   1.210  -1.162  0.00  0.00    +0.055 A 
ATOM     23  C   UNL     1      -0.226  -0.756  -0.638  0.00  0.00    +0.020 A 
ATOM     24  C   UNL     1       1.023  -1.221  -0.388  0.00  0.00    +0.035 A 
ATOM     25  C   UNL     1       2.123  -0.336  -0.381  0.00  0.00    +0.254 A 
ATOM     26  O   UNL     1       3.237  -0.774  -0.153  0.00  0.00    -0.268 OA
ATOM     27  N   UNL     1       1.972   0.979  -0.618  0.00  0.00    -0.322 N 
ATOM     28  H   UNL     1       2.748   1.560  -0.601  0.00  0.00    +0.169 HD
BRANCH  17  29
ATOM     29  O   UNL     1      -3.023   3.089  -1.661  0.00  0.00    -0.492 OA
BRANCH  29  31
ATOM     30  C   UNL     1      -4.539   4.901  -2.170  0.00  0.00    +0.048 C 
ATOM     31  C   UNL     1      -3.088   4.496  -1.901  0.00  0.00    +0.225 C 
ENDBRANCH  29  31
ENDBRANCH  17  29
ENDBRANCH  16  24
ENDBRANCH   1  16
BRANCH   1  32
ATOM     32  C   UNL     1       2.461  -2.819   2.104  0.00  0.00    +0.088 C 
BRANCH  32  33
ATOM     33  C   UNL     1       2.634  -1.381   2.599  0.00  0.00    -0.060 C 
BRANCH  33  36
ATOM     34  C   UNL     1       4.199   0.127   3.665  0.00  0.00    -0.097 C 
ATOM     35  C   UNL     1       3.793  -2.064   4.611  0.00  0.00    -0.097 C 
ATOM     36  N   UNL     1       3.898  -1.287   3.358  0.00  0.00    +0.377 N 
ATOM     37  H   UNL     1       4.659  -1.674   2.788  0.00  0.00    -0.083 HD
ENDBRANCH  33  36
ENDBRANCH  32  33
ENDBRANCH   1  32
TORSDOF 12
