REMARK  Name = ZINC17837101
REMARK  9 active torsions:
REMARK  status: ('A' for Active; 'I' for Inactive)
REMARK    1  A    between atoms: C_1  and  C_2
REMARK    2  A    between atoms: C_3  and  C_24
REMARK    3  A    between atoms: C_4  and  C_23
REMARK    4  A    between atoms: C_7  and  C_8
REMARK    5  A    between atoms: C_8  and  C_11
REMARK    6  A    between atoms: N_9  and  N_10
REMARK    7  A    between atoms: N_19  and  C_22
REMARK    8  A    between atoms: C_24  and  O_26
REMARK    9  A    between atoms: O_26  and  C_27
REMARK                            x       y       z     vdW  Elec       q    Type
REMARK                         _______ _______ _______ _____ _____    ______ ____
ROOT
ATOM      1  C   UNL     1       0.224  -0.567   2.513  0.00  0.00    +0.105 C 
ATOM      2  N   UNL     1       0.458   0.688   2.837  0.00  0.00    -0.188 NA
ENDROOT
BRANCH   1   3
ATOM      3  C   UNL     1       0.111  -1.550   3.527  0.00  0.00    +0.045 C 
ATOM      4  C   UNL     1       0.197  -1.186   4.854  0.00  0.00    +0.048 C 
ATOM      5  C   UNL     1       0.475  -2.064   6.013  0.00  0.00    +0.009 A 
ATOM      6  C   UNL     1       0.718  -3.428   6.139  0.00  0.00    +0.010 A 
ATOM      7  C   UNL     1       0.949  -3.969   7.387  0.00  0.00    +0.001 A 
ATOM      8  C   UNL     1       0.938  -3.156   8.509  0.00  0.00    +0.002 A 
ATOM      9  C   UNL     1       0.697  -1.802   8.395  0.00  0.00    +0.024 A 
ATOM     10  C   UNL     1       0.463  -1.238   7.145  0.00  0.00    +0.044 A 
ATOM     11  N   UNL     1       0.199   0.069   6.755  0.00  0.00    -0.270 N 
ATOM     12  C   UNL     1       0.041   0.160   5.424  0.00  0.00    +0.251 C 
ATOM     13  O   UNL     1      -0.194   1.179   4.799  0.00  0.00    -0.270 OA
ATOM     14  C   UNL     1       0.111   1.204   7.677  0.00  0.00    +0.138 C 
ENDBRANCH   1   3
BRANCH   1  21
ATOM     15  C   UNL     1       2.138  -2.459   0.940  0.00  0.00    +0.047 C 
ATOM     16  C   UNL     1       0.908  -1.773   0.403  0.00  0.00    -0.009 A 
ATOM     17  C   UNL     1       0.397  -1.870  -0.918  0.00  0.00    +0.083 A 
ATOM     18  C   UNL     1      -0.735  -1.084  -0.969  0.00  0.00    +0.028 A 
ATOM     19  N   UNL     1      -0.919  -0.529   0.246  0.00  0.00    -0.356 N 
ATOM     20  H   UNL     1      -1.644   0.069   0.486  0.00  0.00    +0.166 HD
ATOM     21  C   UNL     1       0.078  -0.949   1.093  0.00  0.00    +0.070 A 
ATOM     22  C   UNL     1      -1.615  -0.879  -2.175  0.00  0.00    +0.064 C 
BRANCH  17  23
ATOM     23  C   UNL     1       0.965  -2.659  -2.022  0.00  0.00    +0.341 C 
ATOM     24  O   UNL     1       0.614  -3.810  -2.190  0.00  0.00    -0.245 OA
BRANCH  23  25
ATOM     25  O   UNL     1       1.876  -2.105  -2.847  0.00  0.00    -0.464 OA
ATOM     26  C   UNL     1       2.386  -2.929  -3.897  0.00  0.00    +0.280 C 
ENDBRANCH  23  25
ENDBRANCH  17  23
ENDBRANCH   1  21
BRANCH   2  27
ATOM     27  N   UNL     1       0.483   1.674   1.842  0.00  0.00    -0.282 N 
ATOM     28  H   UNL     1       0.729   2.585   2.069  0.00  0.00    +0.164 HD
ATOM     29  H   UNL     1       0.255   1.447   0.927  0.00  0.00    +0.164 HD
ENDBRANCH   2  27
TORSDOF 5
