REMARK  Name = ZINC13512266
REMARK  8 active torsions:
REMARK  status: ('A' for Active; 'I' for Inactive)
REMARK    1  A    between atoms: C_1  and  N_2
REMARK    2  A    between atoms: N_7  and  C_10
REMARK    3  A    between atoms: N_11  and  C_19
REMARK    4  A    between atoms: N_14  and  C_15
REMARK    5  A    between atoms: C_15  and  C_16
REMARK    6  A    between atoms: C_16  and  C_17
REMARK    7  A    between atoms: C_17  and  O_18
REMARK    8  A    between atoms: C_19  and  C_20
REMARK                            x       y       z     vdW  Elec       q    Type
REMARK                         _______ _______ _______ _____ _____    ______ ____
ROOT
ATOM      1  C   UNL     1      -1.501   4.386  -4.937  0.00  0.00    +0.155 C 
ATOM      2  N   UNL     1      -0.913   4.275  -3.600  0.00  0.00    -0.280 N 
ATOM      3  C   UNL     1      -1.069   3.108  -2.870  0.00  0.00    +0.170 A 
ATOM      4  C   UNL     1      -0.500   3.029  -1.603  0.00  0.00    +0.153 A 
ATOM      5  C   UNL     1       0.212   4.133  -1.101  0.00  0.00    +0.282 A 
ATOM      6  O   UNL     1       0.718   4.086   0.007  0.00  0.00    -0.265 OA
ATOM      7  N   UNL     1       0.331   5.242  -1.858  0.00  0.00    -0.262 N 
ATOM      8  C   UNL     1      -0.223   5.308  -3.082  0.00  0.00    +0.333 A 
ATOM      9  O   UNL     1      -0.096   6.325  -3.736  0.00  0.00    -0.246 OA
ATOM     10  C   UNL     1       1.073   6.394  -1.340  0.00  0.00    +0.157 C 
ATOM     11  N   UNL     1      -0.811   1.768  -1.113  0.00  0.00    -0.302 N 
ATOM     12  C   UNL     1      -1.533   1.140  -2.078  0.00  0.00    +0.198 A 
ATOM     13  N   UNL     1      -1.681   1.947  -3.109  0.00  0.00    -0.196 NA
ATOM     14  N   UNL     1      -2.034  -0.139  -1.991  0.00  0.00    -0.315 N 
ATOM     15  H   UNL     1      -1.812  -0.696  -1.229  0.00  0.00    +0.149 HD
ENDROOT
BRANCH  14  16
ATOM     16  C   UNL     1      -2.903  -0.658  -3.050  0.00  0.00    +0.106 C 
BRANCH  16  17
ATOM     17  C   UNL     1      -3.319  -2.091  -2.711  0.00  0.00    +0.046 C 
BRANCH  17  18
ATOM     18  C   UNL     1      -4.226  -2.634  -3.817  0.00  0.00    +0.157 C 
BRANCH  18  19
ATOM     19  O   UNL     1      -4.614  -3.973  -3.500  0.00  0.00    -0.395 OA
ATOM     20  H   UNL     1      -5.192  -4.381  -4.159  0.00  0.00    +0.209 HD
ENDBRANCH  18  19
ENDBRANCH  17  18
ENDBRANCH  16  17
ENDBRANCH  14  16
BRANCH  11  21
ATOM     21  C   UNL     1      -0.428   1.218   0.190  0.00  0.00    +0.162 C 
BRANCH  21  22
ATOM     22  C   UNL     1      -1.444   1.625   1.225  0.00  0.00    -0.009 A 
ATOM     23  C   UNL     1      -1.348   2.861   1.838  0.00  0.00    +0.008 A 
ATOM     24  C   UNL     1      -2.283   3.238   2.784  0.00  0.00    +0.020 A 
ATOM     25  C   UNL     1      -3.308   2.374   3.126  0.00  0.00    +0.042 A 
ATOM     26  C   UNL     1      -3.401   1.135   2.518  0.00  0.00    +0.040 A 
ATOM     27  C   UNL     1      -2.468   0.761   1.567  0.00  0.00    +0.047 A 
ATOM     28 CL   UNL     1      -2.584  -0.793   0.802  0.00  0.00    -0.083 Cl
ATOM     29 CL   UNL     1      -4.478   2.844   4.320  0.00  0.00    -0.083 Cl
ENDBRANCH  21  22
ENDBRANCH  11  21
TORSDOF 6
