REMARK  Name = ZINC02275038
REMARK  3 active torsions:
REMARK  status: ('A' for Active; 'I' for Inactive)
REMARK    1  A    between atoms: N_14  and  N_17
REMARK    2  A    between atoms: C_18  and  C_19
REMARK    3  A    between atoms: C_24  and  O_25
REMARK                            x       y       z     vdW  Elec       q    Type
REMARK                         _______ _______ _______ _____ _____    ______ ____
ROOT
ATOM      1  C   UNL     1      -0.017   1.385   0.022  0.00  0.00    +0.017 A 
ATOM      2  C   UNL     1       1.159   2.102   0.018  0.00  0.00    +0.027 A 
ATOM      3  C   UNL     1       2.382   1.436  -0.001  0.00  0.00    +0.049 A 
ATOM      4  C   UNL     1       2.400   0.030  -0.016  0.00  0.00    +0.027 A 
ATOM      5  C   UNL     1       1.201  -0.682  -0.013  0.00  0.00    +0.027 A 
ATOM      6  C   UNL     1       0.002  -0.004   0.006  0.00  0.00    +0.019 A 
ATOM      7 BR   UNL     1      -1.625  -0.967   0.012  0.00  0.00    -0.050 Br
ATOM      8  C   UNL     1       3.814  -0.368  -0.035  0.00  0.00    +0.103 A 
ATOM      9  C   UNL     1       4.557   0.811  -0.029  0.00  0.00    +0.133 A 
ATOM     10  N   UNL     1       3.686   1.884  -0.009  0.00  0.00    -0.349 N 
ATOM     11  H   UNL     1       3.953   2.817  -0.002  0.00  0.00    +0.166 HD
ATOM     12  C   UNL     1       5.967   0.715  -0.044  0.00  0.00    +0.298 A 
ATOM     13  O   UNL     1       6.661   1.718  -0.040  0.00  0.00    -0.263 OA
ATOM     14  N   UNL     1       6.528  -0.513  -0.064  0.00  0.00    -0.184 N 
ATOM     15  C   UNL     1       5.747  -1.626  -0.069  0.00  0.00    +0.227 A 
ATOM     16  N   UNL     1       4.446  -1.554  -0.055  0.00  0.00    -0.233 NA
ENDROOT
BRANCH  14  17
ATOM     17  N   UNL     1       7.923  -0.641  -0.079  0.00  0.00    -0.170 NA
ATOM     18  C   UNL     1       8.468  -1.817   0.007  0.00  0.00    +0.145 C 
BRANCH  18  19
ATOM     19  C   UNL     1       9.932  -1.945   0.103  0.00  0.00    +0.037 A 
ATOM     20  C   UNL     1      10.523  -3.208   0.190  0.00  0.00    +0.028 A 
ATOM     21  C   UNL     1      11.895  -3.320   0.280  0.00  0.00    +0.019 A 
ATOM     22  C   UNL     1      12.690  -2.185   0.283  0.00  0.00    +0.019 A 
ATOM     23  C   UNL     1      12.117  -0.930   0.198  0.00  0.00    +0.047 A 
ATOM     24  C   UNL     1      10.741  -0.800   0.101  0.00  0.00    +0.126 A 
ATOM     25 BR   UNL     1      12.695  -5.030   0.398  0.00  0.00    -0.050 Br
BRANCH  24  26
ATOM     26  O   UNL     1      10.178   0.433   0.011  0.00  0.00    -0.506 OA
ATOM     27  H   UNL     1       9.961   0.829   0.866  0.00  0.00    +0.292 HD
ENDBRANCH  24  26
ENDBRANCH  18  19
ENDBRANCH  14  17
TORSDOF 3
