REMARK  Name = ZINC00782378
REMARK  10 active torsions:
REMARK  status: ('A' for Active; 'I' for Inactive)
REMARK    1  A    between atoms: C_1  and  C_2
REMARK    2  A    between atoms: C_4  and  C_31
REMARK    3  A    between atoms: C_9  and  C_14
REMARK    4  A    between atoms: C_14  and  C_16
REMARK    5  A    between atoms: C_14  and  N_60
REMARK    6  A    between atoms: N_20  and  C_21
REMARK    7  A    between atoms: C_21  and  C_22
REMARK    8  A    between atoms: C_21  and  C_23
REMARK    9  A    between atoms: C_21  and  C_24
REMARK   10  A    between atoms: C_27  and  O_30
REMARK                            x       y       z     vdW  Elec       q    Type
REMARK                         _______ _______ _______ _____ _____    ______ ____
ROOT
ATOM      1  C   UNL     1      -0.120   0.978  -2.329  0.00  0.00    +0.039 C 
ENDROOT
BRANCH   1  10
ATOM      2  C   UNL     1      -1.375   4.365  -8.854  0.00  0.00    +0.044 C 
ATOM      3  C   UNL     1      -1.879   3.662  -7.620  0.00  0.00    -0.050 A 
ATOM      4  C   UNL     1      -3.242   3.457  -7.453  0.00  0.00    +0.008 A 
ATOM      5  C   UNL     1      -3.725   2.816  -6.332  0.00  0.00    -0.026 A 
ATOM      6  C   UNL     1      -2.839   2.369  -5.357  0.00  0.00    +0.052 A 
ATOM      7  C   UNL     1      -1.458   2.579  -5.530  0.00  0.00    -0.001 A 
ATOM      8  C   UNL     1      -0.990   3.232  -6.675  0.00  0.00    +0.013 A 
ATOM      9  C   UNL     1      -0.533   2.105  -4.498  0.00  0.00    +0.017 A 
ATOM     10  C   UNL     1      -1.044   1.478  -3.410  0.00  0.00    +0.011 A 
ATOM     11  C   UNL     1      -2.437   1.288  -3.287  0.00  0.00    +0.251 A 
ATOM     12  O   UNL     1      -2.875   0.718  -2.303  0.00  0.00    -0.268 OA
ATOM     13  N   UNL     1      -3.294   1.725  -4.227  0.00  0.00    -0.322 N 
ATOM     14  H   UNL     1      -4.276   1.581  -4.103  0.00  0.00    +0.169 HD
ATOM     15  C   UNL     1      -5.207   2.600  -6.165  0.00  0.00    +0.046 C 
ENDBRANCH   1  10
BRANCH   1  21
ATOM     16  C   UNL     1       0.474   1.220   0.005  0.00  0.00    -0.075 C 
ATOM     17  C   UNL     1       0.026   1.829   1.336  0.00  0.00    +0.013 C 
ATOM     18  C   UNL     1       0.033   3.356   1.221  0.00  0.00    +0.111 C 
ATOM     19  C   UNL     1      -0.886   3.777   0.070  0.00  0.00    +0.013 C 
ATOM     20  C   UNL     1      -0.412   3.112  -1.224  0.00  0.00    -0.075 C 
ATOM     21  N   UNL     1      -0.464   1.644  -1.056  0.00  0.00    +0.389 N 
ATOM     22  H   UNL     1      -1.417   1.374  -0.785  0.00  0.00    -0.080 HD
BRANCH  18  23
ATOM     23  O   UNL     1      -0.439   3.929   2.442  0.00  0.00    -0.392 OA
ATOM     24  H   UNL     1       0.097   3.704   3.215  0.00  0.00    +0.210 HD
ENDBRANCH  18  23
ENDBRANCH   1  21
BRANCH   1  25
ATOM     25  C   UNL     1       1.307   1.272  -2.713  0.00  0.00    +0.143 A 
ATOM     26  N   UNL     1       1.897   2.443  -2.693  0.00  0.00    -0.115 NA
ATOM     27  N   UNL     1       3.113   2.282  -3.089  0.00  0.00    -0.023 NA
ATOM     28  N   UNL     1       3.313   1.040  -3.361  0.00  0.00    -0.043 NA
ATOM     29  N   UNL     1       2.225   0.384  -3.136  0.00  0.00    -0.225 N 
BRANCH  29  30
ATOM     30  C   UNL     1       2.025  -1.056  -3.313  0.00  0.00    +0.059 C 
ATOM     31  C   UNL     1       0.859  -1.295  -4.274  0.00  0.00    +0.036 C 
ATOM     32  C   UNL     1       3.297  -1.681  -3.890  0.00  0.00    +0.036 C 
ATOM     33  C   UNL     1       1.710  -1.698  -1.960  0.00  0.00    +0.036 C 
ENDBRANCH  29  30
ENDBRANCH   1  25
TORSDOF 5
