REMARK  Name = ZINC10659040
REMARK  9 active torsions:
REMARK  status: ('A' for Active; 'I' for Inactive)
REMARK    1  A    between atoms: C_1  and  C_2
REMARK    2  A    between atoms: C_3  and  C_30
REMARK    3  A    between atoms: C_7  and  N_29
REMARK    4  A    between atoms: C_9  and  C_11
REMARK    5  A    between atoms: C_11  and  C_13
REMARK    6  A    between atoms: C_11  and  S_14
REMARK    7  A    between atoms: S_14  and  C_15
REMARK    8  A    between atoms: N_20  and  C_21
REMARK    9  A    between atoms: C_21  and  C_22
REMARK                            x       y       z     vdW  Elec       q    Type
REMARK                         _______ _______ _______ _____ _____    ______ ____
ROOT
ATOM      1  C   UNL     1       1.873  -3.273   3.958  0.00  0.00    +0.118 C 
ATOM      2  C   UNL     1       1.216  -3.436   5.330  0.00  0.00    +0.027 C 
ENDROOT
BRANCH   1  11
ATOM      3  C   UNL     1      -1.596   1.384   0.669  0.00  0.00    +0.045 C 
ATOM      4  C   UNL     1      -1.424  -0.111   0.597  0.00  0.00    -0.028 A 
ATOM      5  C   UNL     1      -2.079  -0.826  -0.330  0.00  0.00    -0.008 A 
ATOM      6  S   UNL     1      -1.557  -2.500  -0.011  0.00  0.00    -0.074 S 
ATOM      7  C   UNL     1      -0.472  -2.195   1.358  0.00  0.00    +0.114 A 
ATOM      8  C   UNL     1      -0.541  -0.794   1.526  0.00  0.00    +0.050 A 
ATOM      9  C   UNL     1       0.255  -0.267   2.579  0.00  0.00    +0.128 A 
ATOM     10  N   UNL     1       0.991  -1.091   3.307  0.00  0.00    -0.216 NA
ATOM     11  C   UNL     1       1.012  -2.394   3.089  0.00  0.00    +0.145 A 
ATOM     12  N   UNL     1       0.286  -2.944   2.134  0.00  0.00    -0.224 NA
ATOM     13  C   UNL     1      -3.032  -0.331  -1.388  0.00  0.00    +0.052 C 
BRANCH   9  14
ATOM     14  N   UNL     1       0.262   1.092   2.839  0.00  0.00    -0.343 N 
ATOM     15  H   UNL     1       0.110   1.724   2.119  0.00  0.00    +0.144 HD
ATOM     16  H   UNL     1       0.418   1.412   3.741  0.00  0.00    +0.144 HD
ENDBRANCH   9  14
ENDBRANCH   1  11
BRANCH   1  17
ATOM     17  S   UNL     1       3.507  -2.511   4.157  0.00  0.00    -0.086 S 
BRANCH  17  18
ATOM     18  C   UNL     1       4.431  -3.711   5.059  0.00  0.00    +0.161 A 
ATOM     19  N   UNL     1       4.056  -4.898   5.496  0.00  0.00    -0.133 NA
ATOM     20  N   UNL     1       4.948  -5.684   6.188  0.00  0.00    -0.125 NA
ATOM     21  C   UNL     1       6.173  -5.249   6.410  0.00  0.00    +0.183 A 
ATOM     22  S   UNL     1       6.126  -3.649   5.618  0.00  0.00    -0.025 S 
ATOM     23  N   UNL     1       7.221  -5.871   7.078  0.00  0.00    -0.318 N 
ATOM     24  H   UNL     1       8.076  -5.421   7.164  0.00  0.00    +0.148 HD
BRANCH  23  25
ATOM     25  C   UNL     1       7.035  -7.206   7.652  0.00  0.00    +0.138 C 
BRANCH  25  26
ATOM     26  C   UNL     1       8.312  -7.650   8.316  0.00  0.00    -0.030 A 
ATOM     27  C   UNL     1       9.264  -8.342   7.589  0.00  0.00    +0.008 A 
ATOM     28  C   UNL     1      10.436  -8.750   8.197  0.00  0.00    +0.038 A 
ATOM     29  C   UNL     1      10.658  -8.465   9.533  0.00  0.00    +0.123 A 
ATOM     30  C   UNL     1       9.705  -7.771  10.260  0.00  0.00    +0.038 A 
ATOM     31  C   UNL     1       8.535  -7.360   9.649  0.00  0.00    +0.008 A 
ATOM     32  F   UNL     1      11.804  -8.863  10.128  0.00  0.00    -0.205 F 
ENDBRANCH  25  26
ENDBRANCH  23  25
ENDBRANCH  17  18
ENDBRANCH   1  17
TORSDOF 6
