REMARK  Name = ZINC33388868
REMARK  7 active torsions:
REMARK  status: ('A' for Active; 'I' for Inactive)
REMARK    1  A    between atoms: C_1  and  C_2
REMARK    2  A    between atoms: C_3  and  C_35
REMARK    3  A    between atoms: C_8  and  C_26
REMARK    4  A    between atoms: C_10  and  C_15
REMARK    5  A    between atoms: C_15  and  C_17
REMARK    6  A    between atoms: C_29  and  N_32
REMARK    7  A    between atoms: C_35  and  C_37
REMARK                            x       y       z     vdW  Elec       q    Type
REMARK                         _______ _______ _______ _____ _____    ______ ____
ROOT
ATOM      1  C   UNL     1       1.860  -1.633  -0.083  0.00  0.00    +0.067 C 
ATOM      2  C   UNL     1       1.327  -0.223  -0.100  0.00  0.00    +0.058 A 
ATOM      3  C   UNL     1      -0.043   0.029  -0.152  0.00  0.00    +0.078 A 
ATOM      4  S   UNL     1      -0.047   1.817  -0.148  0.00  0.00    -0.049 S 
ATOM      5  C   UNL     1       1.673   2.047  -0.081  0.00  0.00    +0.169 A 
ATOM      6  N   UNL     1       2.131   0.803  -0.066  0.00  0.00    -0.229 NA
ATOM      7  N   UNL     1       2.385   3.230  -0.051  0.00  0.00    -0.232 N 
ATOM      8  C   UNL     1       3.846   3.357   0.006  0.00  0.00    +0.152 C 
ATOM      9  C   UNL     1       4.138   4.840   0.021  0.00  0.00    +0.080 C 
ATOM     10  C   UNL     1       2.943   5.473  -0.023  0.00  0.00    +0.250 C 
ATOM     11  C   UNL     1       1.863   4.469  -0.074  0.00  0.00    +0.293 C 
ATOM     12  O   UNL     1       0.676   4.725  -0.125  0.00  0.00    -0.266 OA
ATOM     13  O   UNL     1       2.767   6.816  -0.027  0.00  0.00    -0.282 OA
ENDROOT
BRANCH   8  14
ATOM     14  C   UNL     1       4.374   2.712   1.262  0.00  0.00    -0.022 A 
ATOM     15  C   UNL     1       3.759   2.956   2.475  0.00  0.00    +0.008 A 
ATOM     16  C   UNL     1       4.240   2.360   3.626  0.00  0.00    +0.033 A 
ATOM     17  C   UNL     1       5.343   1.529   3.565  0.00  0.00    +0.126 A 
ATOM     18  C   UNL     1       5.962   1.290   2.352  0.00  0.00    +0.033 A 
ATOM     19  C   UNL     1       5.477   1.881   1.201  0.00  0.00    +0.008 A 
BRANCH  17  20
ATOM     20  N   UNL     1       5.862   0.895   4.798  0.00  0.00    +0.056 N 
ATOM     21  O   UNL     1       6.833   0.162   4.744  0.00  0.00    -0.126 OA
ATOM     22  O   UNL     1       5.316   1.105   5.867  0.00  0.00    -0.126 OA
ENDBRANCH  17  20
ENDBRANCH   8  14
BRANCH   3  23
ATOM     23  C   UNL     1      -1.124  -0.873  -0.196  0.00  0.00    +0.168 C 
ATOM     24  O   UNL     1      -0.917  -2.070  -0.190  0.00  0.00    -0.292 OA
ATOM     25  C   UNL     1      -2.538  -0.353  -0.249  0.00  0.00    +0.092 C 
ENDBRANCH   3  23
BRANCH   9  26
ATOM     26  C   UNL     1       5.462   5.470   0.075  0.00  0.00    +0.230 C 
ATOM     27  O   UNL     1       5.787   6.122   1.051  0.00  0.00    -0.283 OA
BRANCH  26  28
ATOM     28  C   UNL     1       6.395   5.315  -1.049  0.00  0.00    +0.176 A 
ATOM     29  C   UNL     1       7.677   5.771  -1.072  0.00  0.00    +0.061 A 
ATOM     30  C   UNL     1       8.218   5.391  -2.375  0.00  0.00    +0.021 A 
ATOM     31  C   UNL     1       9.456   5.561  -3.003  0.00  0.00    +0.011 A 
ATOM     32  C   UNL     1       9.645   5.079  -4.267  0.00  0.00    +0.001 A 
ATOM     33  C   UNL     1       8.617   4.423  -4.931  0.00  0.00    +0.004 A 
ATOM     34  C   UNL     1       7.390   4.245  -4.330  0.00  0.00    +0.047 A 
ATOM     35  C   UNL     1       7.173   4.726  -3.044  0.00  0.00    +0.136 A 
ATOM     36  O   UNL     1       6.109   4.704  -2.218  0.00  0.00    -0.452 OA
ENDBRANCH  26  28
ENDBRANCH   9  26
TORSDOF 5
