REMARK  Name = ZINC16678424
REMARK  10 active torsions:
REMARK  status: ('A' for Active; 'I' for Inactive)
REMARK    1  A    between atoms: C_1  and  C_2
REMARK    2  A    between atoms: C_2  and  N_3
REMARK    3  A    between atoms: N_3  and  C_4
REMARK    4  A    between atoms: N_3  and  C_6
REMARK    5  A    between atoms: C_4  and  C_5
REMARK    6  A    between atoms: C_9  and  C_13
REMARK    7  A    between atoms: C_10  and  O_12
REMARK    8  A    between atoms: N_20  and  C_23
REMARK    9  A    between atoms: C_23  and  C_25
REMARK   10  A    between atoms: C_23  and  C_26
REMARK                            x       y       z     vdW  Elec       q    Type
REMARK                         _______ _______ _______ _____ _____    ______ ____
ROOT
ATOM      1  C   UNL     1      -2.795   6.476   1.634  0.00  0.00    +0.029 C 
ATOM      2  C   UNL     1      -1.723   5.691   2.028  0.00  0.00    +0.100 C 
ATOM      3  C   UNL     1      -0.511   6.284   2.622  0.00  0.00    +0.257 C 
ATOM      4  O   UNL     1      -0.419   7.487   2.784  0.00  0.00    -0.270 OA
ATOM      5  N   UNL     1       0.492   5.458   2.982  0.00  0.00    -0.236 N 
ATOM      6  C   UNL     1       0.402   4.131   2.814  0.00  0.00    +0.316 C 
ATOM      7  O   UNL     1       1.340   3.442   3.165  0.00  0.00    -0.252 OA
ATOM      8  N   UNL     1      -0.665   3.524   2.276  0.00  0.00    -0.218 N 
ATOM      9  C   UNL     1      -1.744   4.224   1.870  0.00  0.00    +0.259 C 
ATOM     10  O   UNL     1      -2.709   3.662   1.387  0.00  0.00    -0.269 OA
ATOM     11  H   UNL     1       1.297   5.832   3.375  0.00  0.00    +0.159 HD
ENDROOT
BRANCH   1  15
ATOM     12  C   UNL     1      -2.395  10.642   1.500  0.00  0.00    +0.033 A 
ATOM     13  C   UNL     1      -1.444   9.825   0.886  0.00  0.00    +0.024 A 
ATOM     14  C   UNL     1      -1.567   8.469   0.931  0.00  0.00    +0.013 A 
ATOM     15  C   UNL     1      -2.662   7.883   1.590  0.00  0.00    +0.017 A 
ATOM     16  C   UNL     1      -3.624   8.706   2.212  0.00  0.00    +0.126 A 
ATOM     17  C   UNL     1      -3.481  10.080   2.161  0.00  0.00    +0.069 A 
BRANCH  16  18
ATOM     18  O   UNL     1      -4.682   8.153   2.854  0.00  0.00    -0.506 OA
ATOM     19  H   UNL     1      -4.522   7.971   3.791  0.00  0.00    +0.292 HD
ENDBRANCH  16  18
BRANCH  12  20
ATOM     20  N   UNL     1      -2.254  12.022   1.452  0.00  0.00    -0.330 N 
BRANCH  20  22
ATOM     21  C   UNL     1      -1.474  12.859  -0.710  0.00  0.00    +0.024 C 
ATOM     22  C   UNL     1      -1.110  12.617   0.756  0.00  0.00    +0.102 C 
ENDBRANCH  20  22
BRANCH  20  23
ATOM     23  C   UNL     1      -3.249  12.883   2.096  0.00  0.00    +0.102 C 
ATOM     24  C   UNL     1      -2.833  13.148   3.544  0.00  0.00    +0.024 C 
ENDBRANCH  20  23
ENDBRANCH  12  20
ENDBRANCH   1  15
BRANCH   8  25
ATOM     25  C   UNL     1      -0.661   2.067   2.131  0.00  0.00    +0.089 C 
ATOM     26  C   UNL     1      -0.063   1.430   3.386  0.00  0.00    +0.029 C 
BRANCH  25  27
ATOM     27  C   UNL     1       0.178   1.678   0.912  0.00  0.00    -0.010 C 
ATOM     28  C   UNL     1      -0.507   2.180  -0.360  0.00  0.00    +0.012 C 
ATOM     29  C   UNL     1       0.332   1.791  -1.579  0.00  0.00    -0.010 C 
ATOM     30  C   UNL     1       0.468   0.268  -1.640  0.00  0.00    +0.007 C 
ATOM     31  C   UNL     1       1.153  -0.234  -0.367  0.00  0.00    -0.010 C 
ATOM     32  C   UNL     1       0.314   0.155   0.851  0.00  0.00    +0.012 C 
ATOM     33  C   UNL     1       2.542   0.398  -0.253  0.00  0.00    +0.007 C 
ATOM     34  C   UNL     1       2.406   1.921  -0.192  0.00  0.00    -0.010 C 
ATOM     35  C   UNL     1       1.720   2.423  -1.465  0.00  0.00    +0.007 C 
ATOM     36  C   UNL     1       1.567   2.310   1.026  0.00  0.00    +0.012 C 
ENDBRANCH  25  27
ENDBRANCH   8  25
TORSDOF 7
