REMARK  Name = ZINC59188004
REMARK  13 active torsions:
REMARK  status: ('A' for Active; 'I' for Inactive)
REMARK    1  A    between atoms: C_1  and  C_2
REMARK    2  A    between atoms: C_2  and  C_31
REMARK    3  A    between atoms: C_4  and  N_10
REMARK    4  A    between atoms: C_6  and  C_8
REMARK    5  A    between atoms: C_6  and  C_9
REMARK    6  A    between atoms: N_10  and  C_11
REMARK    7  A    between atoms: N_10  and  C_21
REMARK    8  A    between atoms: C_11  and  C_12
REMARK    9  A    between atoms: C_15  and  N_18
REMARK   10  A    between atoms: N_18  and  C_19
REMARK   11  A    between atoms: N_18  and  C_20
REMARK   12  A    between atoms: C_21  and  N_23
REMARK   13  A    between atoms: N_23  and  C_24
REMARK                            x       y       z     vdW  Elec       q    Type
REMARK                         _______ _______ _______ _____ _____    ______ ____
ROOT
ATOM      1  N   UNL     1      -2.894  -0.919   0.956  0.00  0.00    -0.305 N 
ENDROOT
BRANCH   1   5
ATOM      2  C   UNL     1       0.850  -1.484   3.205  0.00  0.00    -0.010 C 
ATOM      3  C   UNL     1       0.122  -0.139   3.123  0.00  0.00    -0.072 C 
ATOM      4  C   UNL     1      -1.342  -0.366   2.761  0.00  0.00    +0.009 C 
ATOM      5  C   UNL     1      -1.475  -0.737   1.284  0.00  0.00    +0.073 C 
ATOM      6  C   UNL     1      -0.909   0.414   0.451  0.00  0.00    +0.009 C 
ATOM      7  C   UNL     1       0.558   0.648   0.795  0.00  0.00    -0.072 C 
ATOM      8  N   UNL     1       0.802   0.775   2.221  0.00  0.00    +0.386 N 
ATOM      9  C   UNL     1       0.984   1.975   0.125  0.00  0.00    -0.010 C 
ATOM     10  C   UNL     1       1.418  -0.462   0.181  0.00  0.00    -0.010 C 
ATOM     11  C   UNL     1       0.157   0.484   4.538  0.00  0.00    -0.010 C 
ATOM     12  H   UNL     1       0.569   1.733   2.502  0.00  0.00    -0.084 HD
ATOM     13  H   UNL     1       1.810   0.695   2.384  0.00  0.00    -0.084 HD
ENDBRANCH   1   5
BRANCH   1  14
ATOM     14  C   UNL     1      -3.324  -2.094   0.453  0.00  0.00    +0.138 C 
ATOM     15  S   UNL     1      -4.961  -2.278  -0.012  0.00  0.00    -0.018 S 
BRANCH  14  16
ATOM     16  N   UNL     1      -2.464  -3.123   0.316  0.00  0.00    -0.297 N 
ATOM     17  H   UNL     1      -2.532  -3.892   0.903  0.00  0.00    +0.154 HD
BRANCH  16  18
ATOM     18  C   UNL     1      -1.475  -3.082  -0.672  0.00  0.00    +0.033 A 
ATOM     19  C   UNL     1      -1.394  -1.993  -1.531  0.00  0.00    +0.024 A 
ATOM     20  C   UNL     1      -0.416  -1.955  -2.505  0.00  0.00    +0.017 A 
ATOM     21  C   UNL     1       0.482  -3.000  -2.627  0.00  0.00    +0.018 A 
ATOM     22  C   UNL     1       0.405  -4.085  -1.773  0.00  0.00    +0.017 A 
ATOM     23  C   UNL     1      -0.568  -4.126  -0.793  0.00  0.00    +0.024 A 
ATOM     24 BR   UNL     1       1.819  -2.944  -3.963  0.00  0.00    -0.050 Br
ENDBRANCH  16  18
ENDBRANCH  14  16
ENDBRANCH   1  14
BRANCH   1  25
ATOM     25  C   UNL     1      -3.843   0.175   1.175  0.00  0.00    +0.142 C 
BRANCH  25  26
ATOM     26  C   UNL     1      -3.966   0.994  -0.084  0.00  0.00    -0.030 A 
ATOM     27  C   UNL     1      -3.230   2.156  -0.225  0.00  0.00    +0.007 A 
ATOM     28  C   UNL     1      -3.340   2.909  -1.378  0.00  0.00    +0.023 A 
ATOM     29  C   UNL     1      -4.190   2.497  -2.397  0.00  0.00    +0.029 A 
ATOM     30  C   UNL     1      -4.927   1.328  -2.252  0.00  0.00    +0.023 A 
ATOM     31  C   UNL     1      -4.808   0.578  -1.099  0.00  0.00    +0.007 A 
BRANCH  29  32
ATOM     32  N   UNL     1      -4.304   3.256  -3.563  0.00  0.00    -0.336 N 
ATOM     33  C   UNL     1      -3.433   4.416  -3.771  0.00  0.00    +0.129 C 
ATOM     34  C   UNL     1      -5.294   2.892  -4.580  0.00  0.00    +0.129 C 
ENDBRANCH  29  32
ENDBRANCH  25  26
ENDBRANCH   1  25
TORSDOF 7
