REMARK  Name = ZINC39609056
REMARK  7 active torsions:
REMARK  status: ('A' for Active; 'I' for Inactive)
REMARK    1  A    between atoms: C_1  and  C_2
REMARK    2  A    between atoms: C_5  and  C_10
REMARK    3  A    between atoms: C_14  and  C_23
REMARK    4  A    between atoms: N_25  and  C_26
REMARK    5  A    between atoms: C_31  and  O_33
REMARK    6  A    between atoms: O_33  and  C_34
REMARK    7  A    between atoms: C_34  and  C_35
REMARK                            x       y       z     vdW  Elec       q    Type
REMARK                         _______ _______ _______ _____ _____    ______ ____
ROOT
ATOM      1  C   UNL     1       0.160  -4.530   0.065  0.00  0.00    +0.250 C 
ATOM      2  O   UNL     1       0.288  -5.229   1.052  0.00  0.00    -0.270 OA
ATOM      3  N   UNL     1       0.024  -5.097  -1.150  0.00  0.00    -0.296 N 
ATOM      4  C   UNL     1      -0.036  -4.420  -2.467  0.00  0.00    +0.121 C 
ATOM      5  C   UNL     1       0.779  -5.332  -3.411  0.00  0.00    +0.100 C 
ATOM      6  C   UNL     1       0.732  -6.721  -2.754  0.00  0.00    -0.004 C 
ATOM      7  C   UNL     1      -0.094  -6.540  -1.471  0.00  0.00    +0.115 C 
ATOM      8  C   UNL     1       0.053  -7.723  -3.683  0.00  0.00    -0.010 C 
ATOM      9  C   UNL     1       0.070  -9.108  -3.031  0.00  0.00    -0.082 C 
ATOM     10  N   UNL     1       1.457  -9.513  -2.773  0.00  0.00    +0.379 N 
ATOM     11  C   UNL     1       2.073  -8.596  -1.806  0.00  0.00    -0.082 C 
ATOM     12  C   UNL     1       2.141  -7.189  -2.405  0.00  0.00    -0.010 C 
ATOM     13  H   UNL     1       1.468 -10.450  -2.400  0.00  0.00    -0.086 HD
ATOM     14  H   UNL     1       1.979  -9.490  -3.636  0.00  0.00    -0.086 HD
ENDROOT
BRANCH   1  19
ATOM     15  C   UNL     1       0.125   1.204   0.580  0.00  0.00    +0.047 C 
ATOM     16  C   UNL     1       0.136  -0.297   0.447  0.00  0.00    -0.012 A 
ATOM     17  C   UNL     1      -0.641  -0.909  -0.522  0.00  0.00    +0.007 A 
ATOM     18  C   UNL     1      -0.638  -2.281  -0.650  0.00  0.00    +0.016 A 
ATOM     19  C   UNL     1       0.153  -3.059   0.199  0.00  0.00    +0.075 A 
ATOM     20  C   UNL     1       0.937  -2.439   1.175  0.00  0.00    +0.171 A 
ATOM     21  C   UNL     1       0.928  -1.058   1.290  0.00  0.00    +0.162 A 
ATOM     22  F   UNL     1       1.688  -0.454   2.229  0.00  0.00    -0.202 F 
ATOM     23  F   UNL     1       1.705  -3.183   2.001  0.00  0.00    -0.202 F 
ENDBRANCH   1  19
BRANCH   5  24
ATOM     24  C   UNL     1       2.201  -4.845  -3.513  0.00  0.00    +0.218 C 
ATOM     25  O   UNL     1       2.714  -4.271  -2.575  0.00  0.00    -0.275 OA
ATOM     26  N   UNL     1       2.904  -5.046  -4.645  0.00  0.00    -0.310 N 
ATOM     27  H   UNL     1       2.494  -5.505  -5.395  0.00  0.00    +0.149 HD
BRANCH  26  28
ATOM     28  C   UNL     1       4.287  -4.573  -4.743  0.00  0.00    +0.102 C 
ATOM     29  C   UNL     1       4.311  -3.112  -5.227  0.00  0.00    +0.025 C 
ATOM     30  C   UNL     1       5.092  -3.101  -6.557  0.00  0.00    +0.004 C 
ATOM     31  C   UNL     1       5.982  -4.367  -6.485  0.00  0.00    +0.033 C 
ATOM     32  C   UNL     1       5.055  -5.399  -5.795  0.00  0.00    +0.139 C 
BRANCH  32  33
ATOM     33  O   UNL     1       5.827  -6.422  -5.163  0.00  0.00    -0.370 OA
BRANCH  33  34
ATOM     34  C   UNL     1       6.008  -7.593  -5.962  0.00  0.00    +0.195 C 
BRANCH  34  35
ATOM     35  C   UNL     1       6.831  -8.599  -5.200  0.00  0.00    -0.022 A 
ATOM     36  C   UNL     1       8.209  -8.587  -5.308  0.00  0.00    +0.006 A 
ATOM     37  C   UNL     1       8.964  -9.510  -4.609  0.00  0.00    +0.000 A 
ATOM     38  C   UNL     1       8.342 -10.445  -3.803  0.00  0.00    +0.000 A 
ATOM     39  C   UNL     1       6.964 -10.456  -3.695  0.00  0.00    +0.000 A 
ATOM     40  C   UNL     1       6.208  -9.530  -4.390  0.00  0.00    +0.006 A 
ENDBRANCH  34  35
ENDBRANCH  33  34
ENDBRANCH  32  33
ENDBRANCH  26  28
ENDBRANCH   5  24
TORSDOF 6
