REMARK  Name = ZINC60221931
REMARK  10 active torsions:
REMARK  status: ('A' for Active; 'I' for Inactive)
REMARK    1  A    between atoms: C_1  and  C_2
REMARK    2  A    between atoms: C_3  and  C_27
REMARK    3  A    between atoms: C_7  and  N_8
REMARK    4  A    between atoms: C_9  and  C_11
REMARK    5  A    between atoms: C_11  and  C_13
REMARK    6  A    between atoms: C_11  and  N_16
REMARK    7  A    between atoms: C_13  and  C_14
REMARK    8  A    between atoms: C_13  and  C_15
REMARK    9  A    between atoms: C_17  and  C_19
REMARK   10  A    between atoms: C_27  and  N_28
REMARK                            x       y       z     vdW  Elec       q    Type
REMARK                         _______ _______ _______ _____ _____    ______ ____
ROOT
ATOM      1  N   UNL     1       0.812   0.552   2.597  0.00  0.00    -0.284 N 
ATOM      2  C   UNL     1       1.470  -0.199   3.501  0.00  0.00    +0.238 C 
ATOM      3  O   UNL     1       1.454  -1.409   3.411  0.00  0.00    -0.273 OA
ATOM      4  H   UNL     1       0.809   1.519   2.679  0.00  0.00    +0.155 HD
ENDROOT
BRANCH   1  11
ATOM      5  C   UNL     1       0.377   2.061   0.224  0.00  0.00    +0.046 C 
ATOM      6  C   UNL     1      -0.101   0.638   0.362  0.00  0.00    -0.028 A 
ATOM      7  C   UNL     1      -0.767   0.028  -0.682  0.00  0.00    -0.059 A 
ATOM      8  C   UNL     1      -1.206  -1.277  -0.556  0.00  0.00    +0.002 A 
ATOM      9  C   UNL     1      -0.980  -1.975   0.617  0.00  0.00    +0.002 A 
ATOM     10  C   UNL     1      -0.314  -1.371   1.665  0.00  0.00    +0.023 A 
ATOM     11  C   UNL     1       0.132  -0.061   1.539  0.00  0.00    +0.037 A 
BRANCH   7  12
ATOM     12  C   UNL     1      -1.016   0.785  -1.961  0.00  0.00    -0.043 C 
BRANCH  12  13
ATOM     13  N   UNL     1      -2.167   1.680  -1.784  0.00  0.00    +0.383 N 
ATOM     14  C   UNL     1      -3.369   0.876  -1.555  0.00  0.00    -0.068 C 
ATOM     15  C   UNL     1      -4.492   1.764  -1.005  0.00  0.00    +0.050 C 
ATOM     16  S   UNL     1      -4.886   3.027  -2.255  0.00  0.00    -0.164 S 
ATOM     17  C   UNL     1      -3.246   3.696  -2.675  0.00  0.00    +0.050 C 
ATOM     18  C   UNL     1      -2.310   2.520  -2.976  0.00  0.00    -0.068 C 
ATOM     19  H   UNL     1      -2.007   2.270  -0.982  0.00  0.00    -0.081 HD
ENDBRANCH  12  13
ENDBRANCH   7  12
ENDBRANCH   1  11
BRANCH   2  20
ATOM     20  C   UNL     1       2.227   0.463   4.624  0.00  0.00    +0.162 C 
BRANCH  20  21
ATOM     21  N   UNL     1       2.674  -0.554   5.578  0.00  0.00    -0.300 N 
ATOM     22  C   UNL     1       2.908  -0.217   6.862  0.00  0.00    +0.250 C 
ATOM     23  O   UNL     1       2.748   0.931   7.228  0.00  0.00    -0.270 OA
ATOM     24  H   UNL     1       2.802  -1.470   5.286  0.00  0.00    +0.150 HD
BRANCH  22  25
ATOM     25  C   UNL     1       3.359  -1.242   7.823  0.00  0.00    +0.107 A 
ATOM     26  C   UNL     1       4.725  -1.479   8.011  0.00  0.00    +0.138 A 
ATOM     27  C   UNL     1       5.138  -2.440   8.913  0.00  0.00    +0.039 A 
ATOM     28  C   UNL     1       4.206  -3.168   9.630  0.00  0.00    +0.006 A 
ATOM     29  C   UNL     1       2.853  -2.941   9.451  0.00  0.00    +0.039 A 
ATOM     30  C   UNL     1       2.422  -1.979   8.556  0.00  0.00    +0.138 A 
ATOM     31  F   UNL     1       1.101  -1.755   8.387  0.00  0.00    -0.205 F 
ATOM     32  F   UNL     1       5.637  -0.769   7.311  0.00  0.00    -0.205 F 
ENDBRANCH  22  25
ENDBRANCH  20  21
BRANCH  20  33
ATOM     33  C   UNL     1       3.442   1.199   4.056  0.00  0.00    +0.012 C 
ATOM     34  C   UNL     1       2.975   2.256   3.053  0.00  0.00    +0.009 C 
ATOM     35  C   UNL     1       4.205   1.878   5.194  0.00  0.00    +0.009 C 
ENDBRANCH  20  33
ENDBRANCH   2  20
TORSDOF 7
