REMARK  Name = ZINC62314179
REMARK  4 active torsions:
REMARK  status: ('A' for Active; 'I' for Inactive)
REMARK    1  A    between atoms: C_1  and  C_2
REMARK    2  A    between atoms: C_4  and  C_28
REMARK    3  A    between atoms: C_9  and  C_14
REMARK    4  A    between atoms: N_16  and  C_17
REMARK                            x       y       z     vdW  Elec       q    Type
REMARK                         _______ _______ _______ _____ _____    ______ ____
ROOT
ATOM      1  C   UNL     1       0.636  -5.118   3.565  0.00  0.00    +0.254 C 
ATOM      2  O   UNL     1       1.209  -4.721   4.561  0.00  0.00    -0.270 OA
ATOM      3  N   UNL     1       0.007  -6.310   3.579  0.00  0.00    -0.281 N 
ATOM      4  H   UNL     1      -0.384  -6.662   2.764  0.00  0.00    +0.155 HD
ENDROOT
BRANCH   1  13
ATOM      5  C   UNL     1       2.239   1.160  -0.024  0.00  0.00    +0.044 C 
ATOM      6  C   UNL     1       1.659  -0.231  -0.008  0.00  0.00    -0.050 A 
ATOM      7  C   UNL     1       1.104  -0.758  -1.167  0.00  0.00    +0.008 A 
ATOM      8  C   UNL     1       0.569  -2.028  -1.174  0.00  0.00    -0.026 A 
ATOM      9  C   UNL     1       0.581  -2.794  -0.011  0.00  0.00    +0.052 A 
ATOM     10  C   UNL     1       1.145  -2.257   1.163  0.00  0.00    -0.000 A 
ATOM     11  C   UNL     1       1.688  -0.963   1.143  0.00  0.00    +0.013 A 
ATOM     12  C   UNL     1       1.166  -3.022   2.353  0.00  0.00    +0.028 A 
ATOM     13  C   UNL     1       0.628  -4.296   2.343  0.00  0.00    +0.102 A 
ATOM     14  C   UNL     1       0.051  -4.820   1.100  0.00  0.00    +0.261 A 
ATOM     15  O   UNL     1      -0.426  -5.940   1.077  0.00  0.00    -0.267 OA
ATOM     16  N   UNL     1       0.047  -4.065  -0.014  0.00  0.00    -0.321 N 
ATOM     17  H   UNL     1      -0.337  -4.420  -0.831  0.00  0.00    +0.169 HD
ATOM     18  C   UNL     1      -0.031  -2.586  -2.438  0.00  0.00    +0.046 C 
ENDBRANCH   1  13
BRANCH   3  19
ATOM     19  C   UNL     1      -0.082  -7.040   4.770  0.00  0.00    +0.037 A 
ATOM     20  C   UNL     1      -0.194  -6.375   5.985  0.00  0.00    +0.025 A 
ATOM     21  C   UNL     1      -0.282  -7.091   7.162  0.00  0.00    +0.031 A 
ATOM     22  C   UNL     1      -0.258  -8.477   7.131  0.00  0.00    +0.087 A 
ATOM     23  C   UNL     1      -0.145  -9.149   5.915  0.00  0.00    +0.159 A 
ATOM     24  C   UNL     1      -0.062  -8.427   4.735  0.00  0.00    +0.071 A 
ATOM     25  O   UNL     1      -0.147 -10.477   6.186  0.00  0.00    -0.408 OA
ATOM     26  C   UNL     1      -0.256 -10.656   7.512  0.00  0.00    +0.419 A 
ATOM     27  O   UNL     1      -0.285 -11.734   8.074  0.00  0.00    -0.223 OA
ATOM     28  N   UNL     1      -0.326  -9.457   8.123  0.00  0.00    -0.288 N 
ATOM     29  H   UNL     1      -0.408  -9.304   9.077  0.00  0.00    +0.172 HD
ENDBRANCH   3  19
TORSDOF 2
