REMARK  Name = ZINC38976626
REMARK  8 active torsions:
REMARK  status: ('A' for Active; 'I' for Inactive)
REMARK    1  A    between atoms: C_1  and  C_2
REMARK    2  A    between atoms: C_2  and  C_3
REMARK    3  A    between atoms: C_7  and  N_9
REMARK    4  A    between atoms: N_9  and  C_10
REMARK    5  A    between atoms: N_13  and  S_14
REMARK    6  A    between atoms: S_14  and  C_17
REMARK    7  A    between atoms: C_19  and  C_24
REMARK    8  A    between atoms: C_22  and  C_23
REMARK                            x       y       z     vdW  Elec       q    Type
REMARK                         _______ _______ _______ _____ _____    ______ ____
ROOT
ATOM      1  C   UNL     1       0.694  -2.058   5.843  0.00  0.00    +0.237 C 
ATOM      2  C   UNL     1      -0.073  -3.293   6.260  0.00  0.00    +0.192 C 
ATOM      3  N   UNL     1      -0.271  -4.263   5.416  0.00  0.00    -0.110 NA
ATOM      4  N   UNL     1      -0.548  -3.373   7.513  0.00  0.00    -0.226 NA
ATOM      5  C   UNL     1      -0.361  -2.405   8.385  0.00  0.00    +0.089 A 
ATOM      6  C   UNL     1      -0.877  -2.524   9.701  0.00  0.00    +0.030 A 
ATOM      7  C   UNL     1      -0.689  -1.534  10.600  0.00  0.00    +0.002 A 
ATOM      8  C   UNL     1       0.011  -0.354  10.296  0.00  0.00    +0.002 A 
ATOM      9  C   UNL     1       0.543  -0.139   9.073  0.00  0.00    +0.027 A 
ATOM     10  C   UNL     1       0.383  -1.170   8.037  0.00  0.00    +0.063 A 
ATOM     11  N   UNL     1       0.882  -0.997   6.845  0.00  0.00    -0.359 N 
ATOM     12  H   UNL     1       1.367  -0.187   6.624  0.00  0.00    +0.162 HD
ENDROOT
BRANCH   3  13
ATOM     13  S   UNL     1      -1.113  -5.610   5.884  0.00  0.00    +0.101 S 
ATOM     14  O   UNL     1      -0.322  -6.260   6.870  0.00  0.00    -0.146 OA
ATOM     15  O   UNL     1      -2.447  -5.188   6.134  0.00  0.00    -0.146 OA
BRANCH  13  16
ATOM     16  C   UNL     1      -1.178  -6.692   4.496  0.00  0.00    +0.116 A 
ATOM     17  C   UNL     1      -0.546  -7.921   4.547  0.00  0.00    +0.032 A 
ATOM     18  C   UNL     1      -0.597  -8.771   3.458  0.00  0.00    -0.049 A 
ATOM     19  C   UNL     1      -1.281  -8.392   2.317  0.00  0.00    +0.004 A 
ATOM     20  C   UNL     1      -1.913  -7.164   2.266  0.00  0.00    +0.005 A 
ATOM     21  C   UNL     1      -1.865  -6.316   3.357  0.00  0.00    -0.024 A 
ATOM     22  C   UNL     1      -2.559  -4.979   3.304  0.00  0.00    +0.046 C 
ATOM     23  C   UNL     1       0.092 -10.110   3.514  0.00  0.00    +0.044 C 
ENDBRANCH  13  16
ENDBRANCH   3  13
BRANCH   1  24
ATOM     24  N   UNL     1       0.004  -1.470   4.693  0.00  0.00    -0.318 N 
ATOM     25  H   UNL     1      -0.948  -1.290   4.738  0.00  0.00    +0.148 HD
BRANCH  24  30
ATOM     26  C   UNL     1       2.805  -0.964   2.369  0.00  0.00    -0.046 A 
ATOM     27  C   UNL     1       2.130  -0.567   1.229  0.00  0.00    +0.004 A 
ATOM     28  C   UNL     1       0.751  -0.468   1.237  0.00  0.00    +0.002 A 
ATOM     29  C   UNL     1       0.043  -0.767   2.385  0.00  0.00    +0.023 A 
ATOM     30  C   UNL     1       0.717  -1.167   3.531  0.00  0.00    +0.029 A 
ATOM     31  C   UNL     1       2.103  -1.269   3.518  0.00  0.00    +0.026 A 
BRANCH  26  33
ATOM     32  C   UNL     1       4.717  -2.479   1.924  0.00  0.00    +0.009 C 
ATOM     33  C   UNL     1       4.308  -1.069   2.356  0.00  0.00    +0.032 C 
ENDBRANCH  26  33
ENDBRANCH  24  30
ENDBRANCH   1  24
TORSDOF 5
