REMARK  Name = ZINC08104319
REMARK  10 active torsions:
REMARK  status: ('A' for Active; 'I' for Inactive)
REMARK    1  A    between atoms: C_1  and  C_2
REMARK    2  A    between atoms: C_2  and  C_3
REMARK    3  A    between atoms: C_3  and  O_4
REMARK    4  A    between atoms: O_4  and  C_5
REMARK    5  A    between atoms: C_6  and  O_20
REMARK    6  A    between atoms: C_8  and  C_12
REMARK    7  A    between atoms: N_13  and  N_14
REMARK    8  A    between atoms: C_15  and  C_17
REMARK    9  A    between atoms: O_20  and  C_21
REMARK   10  A    between atoms: C_21  and  C_22
REMARK                            x       y       z     vdW  Elec       q    Type
REMARK                         _______ _______ _______ _____ _____    ______ ____
ROOT
ATOM      1  C   UNL     1       1.342  -2.530  -2.323  0.00  0.00    +0.180 A 
ATOM      2  C   UNL     1       0.600  -2.844  -3.460  0.00  0.00    +0.164 A 
ATOM      3  C   UNL     1       1.212  -3.457  -4.537  0.00  0.00    +0.059 A 
ATOM      4  C   UNL     1       2.575  -3.761  -4.482  0.00  0.00    -0.000 A 
ATOM      5  C   UNL     1       3.313  -3.443  -3.340  0.00  0.00    +0.033 A 
ATOM      6  C   UNL     1       2.696  -2.826  -2.270  0.00  0.00    +0.087 A 
ATOM      7 CL   UNL     1       3.616  -2.425  -0.854  0.00  0.00    -0.080 Cl
ENDROOT
BRANCH   4   8
ATOM      8  C   UNL     1       3.232  -4.416  -5.628  0.00  0.00    +0.138 C 
ATOM      9  N   UNL     1       4.498  -4.697  -5.576  0.00  0.00    -0.188 NA
BRANCH   9  10
ATOM     10  N   UNL     1       5.123  -5.319  -6.665  0.00  0.00    -0.207 N 
ATOM     11  C   UNL     1       6.438  -5.612  -6.611  0.00  0.00    +0.235 C 
ATOM     12  O   UNL     1       7.080  -5.336  -5.619  0.00  0.00    -0.274 OA
ATOM     13  H   UNL     1       4.609  -5.540  -7.458  0.00  0.00    +0.177 HD
BRANCH  11  14
ATOM     14  C   UNL     1       7.109  -6.281  -7.782  0.00  0.00    +0.077 C 
ATOM     15  C   UNL     1       7.582  -7.724  -7.595  0.00  0.00    +0.013 C 
ATOM     16  C   UNL     1       8.604  -6.586  -7.659  0.00  0.00    +0.013 C 
ENDBRANCH  11  14
ENDBRANCH   9  10
ENDBRANCH   4   8
BRANCH   1  17
ATOM     17  O   UNL     1       0.738  -1.926  -1.265  0.00  0.00    -0.487 OA
BRANCH  17  18
ATOM     18  C   UNL     1       0.718  -0.497  -1.257  0.00  0.00    +0.229 C 
BRANCH  18  20
ATOM     19  C   UNL     1      -0.019   1.526   0.010  0.00  0.00    +0.007 C 
ATOM     20  C   UNL     1       0.002  -0.004   0.002  0.00  0.00    +0.038 C 
ENDBRANCH  18  20
ENDBRANCH  17  18
ENDBRANCH   1  17
BRANCH   2  21
ATOM     21  O   UNL     1      -0.726  -2.547  -3.510  0.00  0.00    -0.489 OA
BRANCH  21  22
ATOM     22  C   UNL     1      -1.425  -2.898  -4.706  0.00  0.00    +0.226 C 
ATOM     23  C   UNL     1      -2.893  -2.490  -4.577  0.00  0.00    +0.048 C 
ENDBRANCH  21  22
ENDBRANCH   2  21
TORSDOF 8
