REMARK  Name = ZINC39609541
REMARK  9 active torsions:
REMARK  status: ('A' for Active; 'I' for Inactive)
REMARK    1  A    between atoms: C_1  and  C_2
REMARK    2  A    between atoms: C_2  and  O_3
REMARK    3  A    between atoms: O_3  and  C_4
REMARK    4  A    between atoms: C_8  and  C_10
REMARK    5  A    between atoms: C_10  and  C_11
REMARK    6  A    between atoms: C_11  and  N_12
REMARK    7  A    between atoms: C_13  and  C_15
REMARK    8  A    between atoms: C_26  and  C_28
REMARK    9  A    between atoms: C_33  and  C_34
REMARK                            x       y       z     vdW  Elec       q    Type
REMARK                         _______ _______ _______ _____ _____    ______ ____
ROOT
ATOM      1  C   UNL     1       1.305  -5.744  -8.172  0.00  0.00    +0.100 C 
ATOM      2  C   UNL     1       2.204  -6.971  -7.899  0.00  0.00    +0.121 C 
ATOM      3  N   UNL     1       1.423  -8.126  -8.399  0.00  0.00    -0.296 N 
ATOM      4  C   UNL     1       0.788  -7.631  -9.644  0.00  0.00    +0.115 C 
ATOM      5  C   UNL     1       0.380  -6.181  -9.320  0.00  0.00    -0.004 C 
ATOM      6  C   UNL     1       0.592  -5.287 -10.538  0.00  0.00    -0.010 C 
ATOM      7  C   UNL     1      -0.380  -5.703 -11.646  0.00  0.00    -0.082 C 
ATOM      8  N   UNL     1      -1.760  -5.582 -11.160  0.00  0.00    +0.379 N 
ATOM      9  C   UNL     1      -1.982  -6.513 -10.047  0.00  0.00    -0.082 C 
ATOM     10  C   UNL     1      -1.078  -6.131  -8.872  0.00  0.00    -0.010 C 
ATOM     11  C   UNL     1       1.315  -9.351  -7.846  0.00  0.00    +0.247 C 
ATOM     12  O   UNL     1       0.710 -10.229  -8.430  0.00  0.00    -0.270 OA
ATOM     13  H   UNL     1      -1.922  -4.638 -10.845  0.00  0.00    -0.086 HD
ATOM     14  H   UNL     1      -2.399  -5.798 -11.910  0.00  0.00    -0.086 HD
ENDROOT
BRANCH  11  15
ATOM     15  C   UNL     1       1.931  -9.626  -6.531  0.00  0.00    +0.043 A 
ATOM     16  C   UNL     1       3.147  -9.032  -6.189  0.00  0.00    +0.051 A 
ATOM     17  C   UNL     1       3.717  -9.293  -4.958  0.00  0.00    +0.124 A 
ATOM     18  C   UNL     1       3.084 -10.143  -4.065  0.00  0.00    +0.038 A 
ATOM     19  C   UNL     1       1.879 -10.734  -4.400  0.00  0.00    +0.007 A 
ATOM     20  C   UNL     1       1.297 -10.477  -5.624  0.00  0.00    -0.038 A 
ATOM     21  C   UNL     1      -0.019 -11.117  -5.984  0.00  0.00    +0.044 C 
ATOM     22  F   UNL     1       4.894  -8.720  -4.625  0.00  0.00    -0.205 F 
ENDBRANCH  11  15
BRANCH   1  24
ATOM     23  N   UNL     1       0.117  -4.130  -6.722  0.00  0.00    -0.315 N 
ATOM     24  C   UNL     1       0.496  -5.404  -6.947  0.00  0.00    +0.218 C 
ATOM     25  O   UNL     1       0.186  -6.276  -6.163  0.00  0.00    -0.275 OA
ATOM     26  H   UNL     1       0.365  -3.432  -7.349  0.00  0.00    +0.149 HD
BRANCH  23  27
ATOM     27  C   UNL     1      -0.669  -3.799  -5.531  0.00  0.00    +0.109 C 
BRANCH  27  28
ATOM     28  C   UNL     1      -0.964  -2.297  -5.515  0.00  0.00    +0.054 C 
BRANCH  28  33
ATOM     29  C   UNL     1      -3.896  -1.679  -3.214  0.00  0.00    +0.121 A 
ATOM     30  C   UNL     1      -3.252  -1.330  -2.036  0.00  0.00    +0.045 A 
ATOM     31  C   UNL     1      -1.872  -1.295  -1.990  0.00  0.00    +0.004 A 
ATOM     32  C   UNL     1      -1.133  -1.609  -3.115  0.00  0.00    +0.004 A 
ATOM     33  C   UNL     1      -1.772  -1.957  -4.290  0.00  0.00    -0.042 A 
ATOM     34  C   UNL     1      -3.152  -1.998  -4.341  0.00  0.00    +0.049 A 
BRANCH  29  35
ATOM     35  O   UNL     1      -5.254  -1.715  -3.263  0.00  0.00    -0.492 OA
BRANCH  35  37
ATOM     36  C   UNL     1      -7.462  -1.469  -2.312  0.00  0.00    +0.048 C 
ATOM     37  C   UNL     1      -5.955  -1.374  -2.065  0.00  0.00    +0.225 C 
ENDBRANCH  35  37
ENDBRANCH  29  35
ENDBRANCH  28  33
ENDBRANCH  27  28
ENDBRANCH  23  27
ENDBRANCH   1  24
TORSDOF 7
