REMARK  Name = ZINC39664137
REMARK  13 active torsions:
REMARK  status: ('A' for Active; 'I' for Inactive)
REMARK    1  A    between atoms: C_1  and  C_2
REMARK    2  A    between atoms: C_2  and  C_3
REMARK    3  A    between atoms: C_3  and  C_4
REMARK    4  A    between atoms: C_4  and  C_5
REMARK    5  A    between atoms: C_5  and  C_6
REMARK    6  A    between atoms: C_6  and  C_7
REMARK    7  A    between atoms: C_11  and  C_20
REMARK    8  A    between atoms: N_22  and  C_23
REMARK    9  A    between atoms: C_23  and  C_24
REMARK   10  A    between atoms: C_24  and  C_26
REMARK   11  A    between atoms: C_24  and  N_34
REMARK   12  A    between atoms: C_29  and  O_32
REMARK   13  A    between atoms: O_32  and  C_33
REMARK                            x       y       z     vdW  Elec       q    Type
REMARK                         _______ _______ _______ _____ _____    ______ ____
ROOT
ATOM      1  C   UNL     1      -5.004  -4.790  -0.035  0.00  0.00    +0.216 C 
ATOM      2  O   UNL     1      -6.014  -4.119  -0.003  0.00  0.00    -0.276 OA
ATOM      3  N   UNL     1      -5.088  -6.135  -0.019  0.00  0.00    -0.300 N 
ATOM      4  C   UNL     1      -3.977  -7.115  -0.045  0.00  0.00    +0.121 C 
ATOM      5  C   UNL     1      -4.418  -8.231   0.928  0.00  0.00    +0.100 C 
ATOM      6  C   UNL     1      -5.952  -8.131   0.971  0.00  0.00    -0.004 C 
ATOM      7  C   UNL     1      -6.313  -6.968   0.035  0.00  0.00    +0.115 C 
ATOM      8  C   UNL     1      -6.580  -9.428   0.470  0.00  0.00    -0.010 C 
ATOM      9  C   UNL     1      -8.104  -9.326   0.577  0.00  0.00    -0.082 C 
ATOM     10  N   UNL     1      -8.484  -9.082   1.973  0.00  0.00    +0.379 N 
ATOM     11  C   UNL     1      -7.953  -7.788   2.418  0.00  0.00    -0.082 C 
ATOM     12  C   UNL     1      -6.422  -7.825   2.390  0.00  0.00    -0.010 C 
ATOM     13  H   UNL     1      -9.490  -9.076   2.051  0.00  0.00    -0.086 HD
ATOM     14  H   UNL     1      -8.109  -9.816   2.555  0.00  0.00    -0.086 HD
ENDROOT
BRANCH   5  15
ATOM     15  C   UNL     1      -3.992  -9.579   0.408  0.00  0.00    +0.218 C 
ATOM     16  O   UNL     1      -3.915  -9.771  -0.787  0.00  0.00    -0.275 OA
ATOM     17  N   UNL     1      -3.696 -10.572   1.270  0.00  0.00    -0.316 N 
ATOM     18  H   UNL     1      -3.758 -10.418   2.226  0.00  0.00    +0.149 HD
BRANCH  17  19
ATOM     19  C   UNL     1      -3.282 -11.883   0.764  0.00  0.00    +0.093 C 
BRANCH  19  20
ATOM     20  C   UNL     1      -3.105 -12.850   1.936  0.00  0.00    -0.020 C 
BRANCH  20  21
ATOM     21  C   UNL     1      -1.960 -12.388   2.800  0.00  0.00    -0.059 A 
ATOM     22  C   UNL     1      -0.657 -12.655   2.420  0.00  0.00    +0.005 A 
ATOM     23  C   UNL     1       0.394 -12.233   3.210  0.00  0.00    +0.046 A 
ATOM     24  C   UNL     1       0.143 -11.540   4.386  0.00  0.00    +0.120 A 
ATOM     25  C   UNL     1      -1.165 -11.272   4.764  0.00  0.00    +0.046 A 
ATOM     26  C   UNL     1      -2.213 -11.692   3.968  0.00  0.00    +0.005 A 
BRANCH  24  27
ATOM     27  O   UNL     1       1.175 -11.124   5.165  0.00  0.00    -0.495 OA
ATOM     28  C   UNL     1       0.842 -10.416   6.360  0.00  0.00    +0.277 C 
ENDBRANCH  24  27
ENDBRANCH  20  21
BRANCH  20  29
ATOM     29  N   UNL     1      -2.818 -14.196   1.422  0.00  0.00    +0.385 N 
ATOM     30  C   UNL     1      -2.664 -15.152   2.548  0.00  0.00    -0.078 C 
ATOM     31  C   UNL     1      -2.937 -16.526   1.887  0.00  0.00    -0.020 C 
ATOM     32  C   UNL     1      -4.066 -16.207   0.880  0.00  0.00    -0.020 C 
ATOM     33  C   UNL     1      -3.962 -14.692   0.626  0.00  0.00    -0.078 C 
ATOM     34  H   UNL     1      -1.982 -14.182   0.859  0.00  0.00    -0.081 HD
ENDBRANCH  20  29
ENDBRANCH  19  20
ENDBRANCH  17  19
ENDBRANCH   5  15
BRANCH   1  35
ATOM     35  C   UNL     1      -3.655  -4.120  -0.092  0.00  0.00    +0.096 C 
BRANCH  35  36
ATOM     36  C   UNL     1      -3.841  -2.601  -0.099  0.00  0.00    +0.009 C 
BRANCH  36  37
ATOM     37  C   UNL     1      -2.471  -1.921  -0.157  0.00  0.00    +0.000 C 
BRANCH  37  38
ATOM     38  C   UNL     1      -2.656  -0.402  -0.165  0.00  0.00    -0.000 C 
BRANCH  38  40
ATOM     39  C   UNL     1      -1.472   1.797  -0.230  0.00  0.00    +0.004 C 
ATOM     40  C   UNL     1      -1.287   0.278  -0.223  0.00  0.00    -0.003 C 
ENDBRANCH  38  40
ENDBRANCH  37  38
ENDBRANCH  36  37
ENDBRANCH  35  36
ENDBRANCH   1  35
TORSDOF 11
