REMARK  Name = ZINC15816552
REMARK  9 active torsions:
REMARK  status: ('A' for Active; 'I' for Inactive)
REMARK    1  A    between atoms: C_1  and  C_2
REMARK    2  A    between atoms: N_5  and  C_8
REMARK    3  A    between atoms: C_11  and  C_17
REMARK    4  A    between atoms: C_13  and  N_14
REMARK    5  A    between atoms: C_17  and  O_19
REMARK    6  A    between atoms: O_19  and  C_20
REMARK    7  A    between atoms: C_20  and  C_22
REMARK    8  A    between atoms: C_20  and  C_23
REMARK    9  A    between atoms: N_25  and  C_26
REMARK                            x       y       z     vdW  Elec       q    Type
REMARK                         _______ _______ _______ _____ _____    ______ ____
ROOT
ATOM      1  C   UNL     1      -2.151  -0.323  -0.855  0.00  0.00    +0.340 C 
ATOM      2  O   UNL     1      -3.210  -0.012  -0.347  0.00  0.00    -0.245 OA
ENDROOT
BRANCH   1   6
ATOM      3  C   UNL     1       0.509   2.680  -2.229  0.00  0.00    +0.060 A 
ATOM      4  C   UNL     1       0.847   1.336  -2.359  0.00  0.00    +0.026 A 
ATOM      5  C   UNL     1      -0.008   0.367  -1.917  0.00  0.00    +0.017 A 
ATOM      6  C   UNL     1      -1.227   0.723  -1.332  0.00  0.00    +0.061 A 
ATOM      7  C   UNL     1      -1.568   2.072  -1.199  0.00  0.00    +0.049 A 
ATOM      8  C   UNL     1      -0.702   3.044  -1.647  0.00  0.00    +0.148 A 
BRANCH   3  13
ATOM      9  C   UNL     1       4.594   5.931  -4.359  0.00  0.00    +0.007 C 
ATOM     10  C   UNL     1       3.761   4.720  -3.932  0.00  0.00    -0.011 C 
ATOM     11  C   UNL     1       2.393   4.774  -4.616  0.00  0.00    +0.022 C 
ATOM     12  C   UNL     1       1.542   3.594  -4.139  0.00  0.00    +0.105 C 
ATOM     13  N   UNL     1       1.384   3.662  -2.681  0.00  0.00    -0.328 N 
ATOM     14  C   UNL     1       2.682   3.564  -2.001  0.00  0.00    +0.105 C 
ATOM     15  C   UNL     1       3.566   4.743  -2.414  0.00  0.00    +0.022 C 
ENDBRANCH   3  13
BRANCH   8  16
ATOM     16  N   UNL     1      -1.058   4.474  -1.510  0.00  0.00    +0.058 N 
ATOM     17  O   UNL     1      -2.157   4.791  -1.090  0.00  0.00    -0.126 OA
ATOM     18  O   UNL     1      -0.252   5.334  -1.817  0.00  0.00    -0.126 OA
ENDBRANCH   8  16
ENDBRANCH   1   6
BRANCH   1  19
ATOM     19  O   UNL     1      -1.821  -1.623  -0.984  0.00  0.00    -0.449 OA
BRANCH  19  20
ATOM     20  C   UNL     1      -2.778  -2.598  -0.492  0.00  0.00    +0.259 C 
ATOM     21  C   UNL     1      -2.483  -2.907   0.977  0.00  0.00    +0.062 C 
BRANCH  20  22
ATOM     22  C   UNL     1      -2.669  -3.862  -1.304  0.00  0.00    +0.258 C 
ATOM     23  O   UNL     1      -1.803  -3.969  -2.147  0.00  0.00    -0.271 OA
ATOM     24  N   UNL     1      -3.533  -4.875  -1.094  0.00  0.00    -0.278 N 
ATOM     25  H   UNL     1      -4.173  -4.823  -0.367  0.00  0.00    +0.155 HD
BRANCH  24  26
ATOM     26  C   UNL     1      -3.506  -6.004  -1.924  0.00  0.00    +0.105 A 
ATOM     27  C   UNL     1      -4.690  -6.521  -2.436  0.00  0.00    +0.147 A 
ATOM     28  C   UNL     1      -4.658  -7.632  -3.260  0.00  0.00    +0.040 A 
ATOM     29  C   UNL     1      -3.451  -8.234  -3.566  0.00  0.00    +0.006 A 
ATOM     30  C   UNL     1      -2.272  -7.726  -3.054  0.00  0.00    +0.040 A 
ATOM     31  C   UNL     1      -2.295  -6.612  -2.233  0.00  0.00    +0.147 A 
ATOM     32  F   UNL     1      -1.142  -6.117  -1.733  0.00  0.00    -0.203 F 
ATOM     33  F   UNL     1      -5.870  -5.937  -2.134  0.00  0.00    -0.203 F 
ENDBRANCH  24  26
ENDBRANCH  20  22
ENDBRANCH  19  20
ENDBRANCH   1  19
TORSDOF 7
