REMARK  Name = ZINC00818112
REMARK  6 active torsions:
REMARK  status: ('A' for Active; 'I' for Inactive)
REMARK    1  A    between atoms: C_1  and  C_2
REMARK    2  A    between atoms: C_2  and  O_3
REMARK    3  A    between atoms: O_3  and  C_4
REMARK    4  A    between atoms: C_9  and  C_10
REMARK    5  A    between atoms: C_14  and  C_25
REMARK    6  A    between atoms: C_22  and  C_24
REMARK                            x       y       z     vdW  Elec       q    Type
REMARK                         _______ _______ _______ _____ _____    ______ ____
ROOT
ATOM      1  C   UNL     1       2.055  -1.434   3.442  0.00  0.00    +0.226 C 
ATOM      2  N   UNL     1       3.153  -2.122   4.137  0.00  0.00    -0.318 N 
ATOM      3  C   UNL     1       2.897  -3.036   5.158  0.00  0.00    +0.041 A 
ATOM      4  C   UNL     1       3.749  -4.097   5.411  0.00  0.00    -0.029 A 
ATOM      5  C   UNL     1       3.467  -4.975   6.441  0.00  0.00    +0.005 A 
ATOM      6  C   UNL     1       2.339  -4.807   7.226  0.00  0.00    +0.001 A 
ATOM      7  C   UNL     1       1.473  -3.756   6.985  0.00  0.00    +0.012 A 
ATOM      8  C   UNL     1       1.744  -2.873   5.952  0.00  0.00    +0.021 A 
ATOM      9  C   UNL     1       0.863  -1.742   5.605  0.00  0.00    +0.073 A 
ATOM     10  N   UNL     1       1.027  -1.063   4.417  0.00  0.00    -0.238 N 
ATOM     11  N   UNL     1       0.075  -0.053   4.374  0.00  0.00    -0.174 NA
ATOM     12  C   UNL     1      -0.644  -0.113   5.472  0.00  0.00    +0.061 A 
ATOM     13  C   UNL     1      -0.168  -1.170   6.264  0.00  0.00    +0.052 A 
ATOM     14  C   UNL     1      -1.788   0.803   5.823  0.00  0.00    +0.067 C 
ATOM     15  C   UNL     1       4.981  -4.293   4.567  0.00  0.00    +0.045 C 
ATOM     16  H   UNL     1       4.070  -1.937   3.880  0.00  0.00    +0.148 HD
ENDROOT
BRANCH   1  22
ATOM     17  C   UNL     1       0.802  -1.824   1.306  0.00  0.00    +0.127 A 
ATOM     18  C   UNL     1       0.260  -2.673   0.351  0.00  0.00    +0.046 A 
ATOM     19  C   UNL     1       0.372  -4.041   0.501  0.00  0.00    +0.004 A 
ATOM     20  C   UNL     1       1.024  -4.566   1.602  0.00  0.00    +0.001 A 
ATOM     21  C   UNL     1       1.565  -3.723   2.555  0.00  0.00    +0.011 A 
ATOM     22  C   UNL     1       1.460  -2.353   2.406  0.00  0.00    +0.036 A 
BRANCH  17  23
ATOM     23  O   UNL     1       0.693  -0.477   1.160  0.00  0.00    -0.492 OA
BRANCH  23  25
ATOM     24  C   UNL     1      -0.019   1.526   0.010  0.00  0.00    +0.048 C 
ATOM     25  C   UNL     1       0.002  -0.004   0.002  0.00  0.00    +0.225 C 
ENDBRANCH  23  25
ENDBRANCH  17  23
ENDBRANCH   1  22
TORSDOF 3
