REMARK  Name = ZINC01508200
REMARK  6 active torsions:
REMARK  status: ('A' for Active; 'I' for Inactive)
REMARK    1  A    between atoms: C_1  and  C_2
REMARK    2  A    between atoms: C_5  and  N_8
REMARK    3  A    between atoms: C_9  and  C_11
REMARK    4  A    between atoms: C_13  and  S_18
REMARK    5  A    between atoms: S_18  and  N_21
REMARK    6  A    between atoms: N_21  and  C_22
REMARK                            x       y       z     vdW  Elec       q    Type
REMARK                         _______ _______ _______ _____ _____    ______ ____
ROOT
ATOM      1  C   UNL     1       1.207  -1.020   4.078  0.00  0.00    +0.057 A 
ATOM      2  C   UNL     1       0.469  -0.717   2.932  0.00  0.00    +0.043 A 
ATOM      3  C   UNL     1       1.121  -0.439   1.749  0.00  0.00    +0.109 A 
ATOM      4  C   UNL     1       2.504  -0.466   1.694  0.00  0.00    +0.030 A 
ATOM      5  C   UNL     1       3.242  -0.760   2.825  0.00  0.00    +0.022 A 
ATOM      6  C   UNL     1       2.602  -1.041   4.017  0.00  0.00    +0.053 A 
ATOM      7 CL   UNL     1       3.530  -1.416   5.436  0.00  0.00    -0.083 Cl
ENDROOT
BRANCH   1   9
ATOM      8  N   UNL     1      -0.832  -1.297   5.404  0.00  0.00    -0.281 N 
ATOM      9  C   UNL     1       0.515  -1.318   5.348  0.00  0.00    +0.250 C 
ATOM     10  O   UNL     1       1.160  -1.582   6.345  0.00  0.00    -0.270 OA
ATOM     11  H   UNL     1      -1.345  -1.021   4.628  0.00  0.00    +0.155 HD
BRANCH   8  16
ATOM     12  C   UNL     1      -3.500  -2.827  10.170  0.00  0.00    +0.044 C 
ATOM     13  C   UNL     1      -2.791  -2.421   8.904  0.00  0.00    -0.050 A 
ATOM     14  C   UNL     1      -1.586  -1.746   8.974  0.00  0.00    +0.005 A 
ATOM     15  C   UNL     1      -0.934  -1.372   7.815  0.00  0.00    +0.023 A 
ATOM     16  C   UNL     1      -1.490  -1.675   6.579  0.00  0.00    +0.034 A 
ATOM     17  C   UNL     1      -2.703  -2.348   6.512  0.00  0.00    +0.023 A 
ATOM     18  C   UNL     1      -3.347  -2.723   7.674  0.00  0.00    +0.005 A 
ENDBRANCH   8  16
ENDBRANCH   1   9
BRANCH   3  19
ATOM     19  S   UNL     1       0.191  -0.056   0.302  0.00  0.00    +0.072 S 
ATOM     20  O   UNL     1      -1.129  -0.529   0.531  0.00  0.00    -0.150 OA
ATOM     21  O   UNL     1       0.972  -0.481  -0.807  0.00  0.00    -0.150 OA
BRANCH  19  22
ATOM     22  N   UNL     1       0.093   1.595   0.206  0.00  0.00    -0.216 N 
ATOM     23  H   UNL     1       0.498   2.062  -0.541  0.00  0.00    +0.174 HD
BRANCH  22  24
ATOM     24  C   UNL     1      -0.569   2.315   1.205  0.00  0.00    +0.048 A 
ATOM     25  C   UNL     1      -1.806   1.887   1.667  0.00  0.00    +0.027 A 
ATOM     26  C   UNL     1      -2.456   2.597   2.658  0.00  0.00    +0.040 A 
ATOM     27  C   UNL     1      -1.879   3.741   3.183  0.00  0.00    +0.124 A 
ATOM     28  C   UNL     1      -0.648   4.173   2.720  0.00  0.00    +0.040 A 
ATOM     29  C   UNL     1       0.008   3.462   1.733  0.00  0.00    +0.027 A 
ATOM     30  F   UNL     1      -2.519   4.437   4.148  0.00  0.00    -0.205 F 
ENDBRANCH  22  24
ENDBRANCH  19  22
ENDBRANCH   3  19
TORSDOF 5
