REMARK  Name = ZINC39494862
REMARK  10 active torsions:
REMARK  status: ('A' for Active; 'I' for Inactive)
REMARK    1  A    between atoms: C_1  and  C_2
REMARK    2  A    between atoms: C_2  and  C_4
REMARK    3  A    between atoms: C_4  and  C_6
REMARK    4  A    between atoms: C_4  and  C_13
REMARK    5  A    between atoms: C_11  and  O_12
REMARK    6  A    between atoms: C_13  and  C_15
REMARK    7  A    between atoms: C_13  and  N_21
REMARK    8  A    between atoms: C_22  and  S_24
REMARK    9  A    between atoms: S_24  and  O_27
REMARK   10  A    between atoms: O_27  and  C_28
REMARK                            x       y       z     vdW  Elec       q    Type
REMARK                         _______ _______ _______ _____ _____    ______ ____
ROOT
ATOM      1  C   UNL     1      -1.713  -0.828   1.592  0.00  0.00    +0.119 C 
ENDROOT
BRANCH   1   2
ATOM      2  C   UNL     1      -0.650  -1.343   2.529  0.00  0.00    -0.026 A 
ATOM      3  C   UNL     1       0.323  -0.486   3.008  0.00  0.00    +0.005 A 
ATOM      4  C   UNL     1       1.298  -0.958   3.867  0.00  0.00    +0.000 A 
ATOM      5  C   UNL     1       1.299  -2.287   4.247  0.00  0.00    +0.000 A 
ATOM      6  C   UNL     1       0.326  -3.144   3.768  0.00  0.00    +0.000 A 
ATOM      7  C   UNL     1      -0.652  -2.671   2.912  0.00  0.00    +0.005 A 
ENDBRANCH   1   2
BRANCH   1   8
ATOM      8  N   UNL     1      -2.140   0.505   2.024  0.00  0.00    -0.286 N 
ATOM      9  C   UNL     1      -3.078   0.635   2.984  0.00  0.00    +0.391 C 
ATOM     10  O   UNL     1      -3.568  -0.353   3.489  0.00  0.00    -0.246 OA
ATOM     11  H   UNL     1      -1.748   1.295   1.620  0.00  0.00    +0.151 HD
BRANCH   9  12
ATOM     12  S   UNL     1      -3.591   2.238   3.503  0.00  0.00    +0.203 S 
ATOM     13  O   UNL     1      -4.415   2.050   4.646  0.00  0.00    -0.127 OA
ATOM     14  O   UNL     1      -2.425   3.050   3.529  0.00  0.00    -0.127 OA
BRANCH  12  15
ATOM     15  O   UNL     1      -4.488   2.800   2.409  0.00  0.00    -0.339 OA
BRANCH  15  16
ATOM     16  C   UNL     1      -5.732   2.254   2.379  0.00  0.00    +0.157 A 
ATOM     17  C   UNL     1      -5.976   1.123   1.613  0.00  0.00    +0.048 A 
ATOM     18  C   UNL     1      -7.241   0.569   1.584  0.00  0.00    +0.004 A 
ATOM     19  C   UNL     1      -8.264   1.141   2.318  0.00  0.00    +0.000 A 
ATOM     20  C   UNL     1      -8.024   2.268   3.082  0.00  0.00    +0.004 A 
ATOM     21  C   UNL     1      -6.759   2.822   3.119  0.00  0.00    +0.048 A 
ENDBRANCH  15  16
ENDBRANCH  12  15
ENDBRANCH   9  12
ENDBRANCH   1   8
BRANCH   1  22
ATOM     22  C   UNL     1      -1.147  -0.747   0.173  0.00  0.00    +0.113 C 
BRANCH  22  23
ATOM     23  C   UNL     1      -0.837  -2.136  -0.324  0.00  0.00    +0.006 A 
ATOM     24  C   UNL     1       0.068  -2.928   0.357  0.00  0.00    +0.008 A 
ATOM     25  C   UNL     1       0.352  -4.201  -0.099  0.00  0.00    +0.001 A 
ATOM     26  C   UNL     1      -0.267  -4.686  -1.236  0.00  0.00    +0.004 A 
ATOM     27  C   UNL     1      -1.173  -3.898  -1.920  0.00  0.00    +0.046 A 
ATOM     28  C   UNL     1      -1.464  -2.622  -1.461  0.00  0.00    +0.121 A 
BRANCH  28  29
ATOM     29  O   UNL     1      -2.359  -1.847  -2.129  0.00  0.00    -0.506 OA
ATOM     30  H   UNL     1      -1.965  -1.298  -2.821  0.00  0.00    +0.292 HD
ENDBRANCH  28  29
ENDBRANCH  22  23
BRANCH  22  32
ATOM     31  C   UNL     1       0.043   1.567  -0.027  0.00  0.00    +0.086 C 
ATOM     32  C   UNL     1       0.115   0.076   0.182  0.00  0.00    +0.140 C 
ATOM     33  O   UNL     1       1.184  -0.458   0.356  0.00  0.00    -0.297 OA
ENDBRANCH  22  32
ENDBRANCH   1  22
TORSDOF 9
