REMARK  Name = ZINC06242475
REMARK  7 active torsions:
REMARK  status: ('A' for Active; 'I' for Inactive)
REMARK    1  A    between atoms: C_3  and  O_10
REMARK    2  A    between atoms: C_6  and  N_7
REMARK    3  A    between atoms: O_10  and  C_11
REMARK    4  A    between atoms: C_11  and  C_12
REMARK    5  A    between atoms: N_14  and  C_15
REMARK    6  A    between atoms: C_15  and  N_17
REMARK    7  A    between atoms: N_17  and  C_18
REMARK                            x       y       z     vdW  Elec       q    Type
REMARK                         _______ _______ _______ _____ _____    ______ ____
ROOT
ATOM      1  C   UNL     1      -0.039   1.256  -0.794  0.00  0.00    +0.256 C 
ATOM      2  O   UNL     1      -1.085   1.774  -1.121  0.00  0.00    -0.272 OA
ATOM      3  N   UNL     1      -0.017  -0.035  -0.410  0.00  0.00    -0.265 N 
ATOM      4  H   UNL     1       0.821  -0.451  -0.152  0.00  0.00    +0.157 HD
ENDROOT
BRANCH   3   5
ATOM      5  C   UNL     1      -1.159  -0.750  -0.383  0.00  0.00    +0.141 C 
ATOM      6  S   UNL     1      -2.638  -0.017  -0.837  0.00  0.00    -0.018 S 
BRANCH   5   7
ATOM      7  N   UNL     1      -1.137  -2.041   0.002  0.00  0.00    -0.297 N 
ATOM      8  H   UNL     1      -0.292  -2.474   0.200  0.00  0.00    +0.154 HD
BRANCH   7   9
ATOM      9  C   UNL     1      -2.334  -2.758   0.115  0.00  0.00    +0.034 A 
ATOM     10  C   UNL     1      -2.562  -3.560   1.226  0.00  0.00    +0.025 A 
ATOM     11  C   UNL     1      -3.747  -4.261   1.339  0.00  0.00    +0.023 A 
ATOM     12  C   UNL     1      -4.701  -4.176   0.341  0.00  0.00    +0.059 A 
ATOM     13  C   UNL     1      -4.474  -3.382  -0.771  0.00  0.00    +0.061 A 
ATOM     14  C   UNL     1      -3.293  -2.673  -0.886  0.00  0.00    +0.044 A 
ATOM     15 CL   UNL     1      -5.673  -3.277  -2.022  0.00  0.00    -0.082 Cl
ATOM     16 CL   UNL     1      -6.185  -5.065   0.482  0.00  0.00    -0.082 Cl
ENDBRANCH   7   9
ENDBRANCH   5   7
ENDBRANCH   3   5
BRANCH   1  17
ATOM     17  C   UNL     1       1.239   2.055  -0.825  0.00  0.00    +0.324 C 
BRANCH  17  18
ATOM     18  O   UNL     1       0.958   3.386  -1.262  0.00  0.00    -0.483 OA
BRANCH  18  21
ATOM     19  C   UNL     1       2.880   6.419  -1.848  0.00  0.00    +0.036 A 
ATOM     20  C   UNL     1       1.809   5.550  -1.764  0.00  0.00    +0.048 A 
ATOM     21  C   UNL     1       2.010   4.243  -1.346  0.00  0.00    +0.121 A 
ATOM     22  C   UNL     1       3.285   3.813  -1.008  0.00  0.00    +0.048 A 
ATOM     23  C   UNL     1       4.353   4.684  -1.098  0.00  0.00    +0.036 A 
ATOM     24  C   UNL     1       4.150   5.987  -1.515  0.00  0.00    +0.126 A 
BRANCH  24  25
ATOM     25  N   UNL     1       5.296   6.920  -1.606  0.00  0.00    +0.056 N 
ATOM     26  O   UNL     1       5.119   8.068  -1.974  0.00  0.00    -0.126 OA
ATOM     27  O   UNL     1       6.415   6.540  -1.314  0.00  0.00    -0.126 OA
ENDBRANCH  24  25
ENDBRANCH  18  21
ENDBRANCH  17  18
ENDBRANCH   1  17
TORSDOF 7
