REMARK  Name = ZINC15236819
REMARK  10 active torsions:
REMARK  status: ('A' for Active; 'I' for Inactive)
REMARK    1  A    between atoms: C_1  and  C_2
REMARK    2  A    between atoms: C_4  and  C_32
REMARK    3  A    between atoms: C_6  and  O_8
REMARK    4  A    between atoms: O_8  and  C_9
REMARK    5  A    between atoms: C_9  and  C_10
REMARK    6  A    between atoms: C_10  and  C_12
REMARK    7  A    between atoms: C_10  and  O_31
REMARK    8  A    between atoms: C_12  and  N_13
REMARK    9  A    between atoms: C_16  and  C_20
REMARK   10  A    between atoms: C_16  and  C_21
REMARK                            x       y       z     vdW  Elec       q    Type
REMARK                         _______ _______ _______ _____ _____    ______ ____
ROOT
ATOM      1  N   UNL     1       0.323  -3.027   7.200  0.00  0.00    -0.221 N 
ATOM      2  C   UNL     1      -0.715  -3.518   7.906  0.00  0.00    +0.251 C 
ATOM      3  O   UNL     1      -1.893  -3.304   7.720  0.00  0.00    -0.272 OA
ATOM      4  C   UNL     1      -0.102  -4.393   8.980  0.00  0.00    +0.135 C 
ATOM      5  N   UNL     1       1.346  -4.284   8.732  0.00  0.00    -0.281 N 
ATOM      6  C   UNL     1       1.494  -3.470   7.671  0.00  0.00    +0.310 C 
ATOM      7  O   UNL     1       2.571  -3.168   7.196  0.00  0.00    -0.252 OA
ATOM      8  C   UNL     1      -0.566  -5.843   8.824  0.00  0.00    +0.047 C 
ATOM      9  H   UNL     1       2.055  -4.717   9.234  0.00  0.00    +0.152 HD
ENDROOT
BRANCH   4  10
ATOM     10  C   UNL     1      -0.445  -3.870  10.351  0.00  0.00    -0.015 A 
ATOM     11  C   UNL     1      -1.649  -3.194  10.546  0.00  0.00    +0.007 A 
ATOM     12  C   UNL     1      -1.989  -2.709  11.771  0.00  0.00    +0.009 A 
ATOM     13  C   UNL     1      -1.117  -2.890  12.858  0.00  0.00    -0.018 A 
ATOM     14  C   UNL     1      -1.435  -2.403  14.137  0.00  0.00    +0.008 A 
ATOM     15  C   UNL     1      -0.566  -2.598  15.167  0.00  0.00    +0.001 A 
ATOM     16  C   UNL     1       0.637  -3.274  14.972  0.00  0.00    +0.001 A 
ATOM     17  C   UNL     1       0.978  -3.759  13.747  0.00  0.00    +0.008 A 
ATOM     18  C   UNL     1       0.106  -3.577  12.660  0.00  0.00    -0.018 A 
ATOM     19  C   UNL     1       0.421  -4.069  11.382  0.00  0.00    +0.014 A 
ENDBRANCH   4  10
BRANCH   1  20
ATOM     20  C   UNL     1       0.185  -2.124   6.054  0.00  0.00    +0.152 C 
BRANCH  20  21
ATOM     21  C   UNL     1       0.065  -2.946   4.769  0.00  0.00    +0.170 C 
BRANCH  21  22
ATOM     22  O   UNL     1      -1.146  -3.704   4.801  0.00  0.00    -0.387 OA
ATOM     23  H   UNL     1      -1.946  -3.165   4.871  0.00  0.00    +0.210 HD
ENDBRANCH  21  22
BRANCH  21  24
ATOM     24  C   UNL     1       0.046  -2.005   3.563  0.00  0.00    +0.261 C 
BRANCH  24  25
ATOM     25  O   UNL     1       0.051  -2.775   2.359  0.00  0.00    -0.489 OA
BRANCH  25  31
ATOM     26  C   UNL     1      -0.018   1.503   0.010  0.00  0.00    +0.044 C 
ATOM     27  C   UNL     1       0.002  -0.004   0.002  0.00  0.00    -0.047 A 
ATOM     28  C   UNL     1       0.006  -0.688  -1.200  0.00  0.00    +0.007 A 
ATOM     29  C   UNL     1       0.025  -2.071  -1.210  0.00  0.00    -0.047 A 
ATOM     30  C   UNL     1       0.040  -2.772  -0.020  0.00  0.00    +0.049 A 
ATOM     31  C   UNL     1       0.036  -2.088   1.187  0.00  0.00    +0.121 A 
ATOM     32  C   UNL     1       0.023  -0.701   1.195  0.00  0.00    +0.049 A 
ATOM     33  C   UNL     1       0.029  -2.813  -2.522  0.00  0.00    +0.044 C 
ENDBRANCH  25  31
ENDBRANCH  24  25
ENDBRANCH  21  24
ENDBRANCH  20  21
ENDBRANCH   1  20
TORSDOF 7
