REMARK  Name = ZINC65246378
REMARK  5 active torsions:
REMARK  status: ('A' for Active; 'I' for Inactive)
REMARK    1  A    between atoms: C_6  and  N_7
REMARK    2  A    between atoms: N_10  and  S_13
REMARK    3  A    between atoms: S_13  and  C_16
REMARK    4  A    between atoms: C_19  and  C_21
REMARK    5  A    between atoms: C_24  and  C_26
REMARK                            x       y       z     vdW  Elec       q    Type
REMARK                         _______ _______ _______ _____ _____    ______ ____
ROOT
ATOM      1  S   UNL     1      -4.794  -2.738  -1.156  0.00  0.00    +0.094 S 
ATOM      2  O   UNL     1      -4.479  -4.053  -0.720  0.00  0.00    -0.150 OA
ATOM      3  O   UNL     1      -5.749  -1.923  -0.490  0.00  0.00    -0.150 OA
ENDROOT
BRANCH   1   7
ATOM      4  N   UNL     1      -1.198  -0.721   0.010  0.00  0.00    -0.327 N 
ATOM      5  C   UNL     1      -2.486  -0.022   0.131  0.00  0.00    +0.122 C 
ATOM      6  C   UNL     1      -3.375  -0.424  -1.053  0.00  0.00    +0.128 C 
ATOM      7  N   UNL     1      -3.372  -1.889  -1.165  0.00  0.00    -0.171 NA
ATOM      8  C   UNL     1      -2.085  -2.588  -1.286  0.00  0.00    +0.128 C 
ATOM      9  C   UNL     1      -1.196  -2.186  -0.108  0.00  0.00    +0.122 C 
BRANCH   4  15
ATOM     10  C   UNL     1       1.215  -0.680   0.003  0.00  0.00    +0.026 A 
ATOM     11  C   UNL     1       2.400   0.030  -0.005  0.00  0.00    +0.040 A 
ATOM     12  C   UNL     1       2.379   1.414  -0.015  0.00  0.00    +0.124 A 
ATOM     13  C   UNL     1       1.170   2.090  -0.016  0.00  0.00    +0.040 A 
ATOM     14  C   UNL     1      -0.017   1.385  -0.007  0.00  0.00    +0.026 A 
ATOM     15  C   UNL     1       0.002  -0.004   0.002  0.00  0.00    +0.030 A 
ATOM     16  F   UNL     1       3.539   2.107  -0.023  0.00  0.00    -0.205 F 
ENDBRANCH   4  15
ENDBRANCH   1   7
BRANCH   1  17
ATOM     17  C   UNL     1      -5.329  -2.877  -2.829  0.00  0.00    +0.259 A 
ATOM     18  C   UNL     1      -5.013  -3.879  -3.674  0.00  0.00    +0.072 A 
ATOM     19  C   UNL     1      -5.645  -3.599  -4.900  0.00  0.00    +0.057 A 
ATOM     20  C   UNL     1      -6.321  -2.427  -4.735  0.00  0.00    +0.193 A 
ATOM     21  O   UNL     1      -6.123  -2.005  -3.470  0.00  0.00    -0.432 OA
BRANCH  20  22
ATOM     22  C   UNL     1      -7.130  -1.745  -5.756  0.00  0.00    +0.284 A 
ATOM     23  N   UNL     1      -7.337  -2.155  -6.989  0.00  0.00    -0.104 NA
ATOM     24  N   UNL     1      -8.093  -1.308  -7.595  0.00  0.00    -0.112 NA
ATOM     25  C   UNL     1      -8.396  -0.334  -6.783  0.00  0.00    +0.221 A 
ATOM     26  O   UNL     1      -7.802  -0.586  -5.603  0.00  0.00    -0.418 OA
BRANCH  25  27
ATOM     27  C   UNL     1      -9.261   0.858  -7.107  0.00  0.00    +0.077 C 
ATOM     28  C   UNL     1     -10.007   0.846  -8.442  0.00  0.00    +0.013 C 
ATOM     29  C   UNL     1      -8.805   1.772  -8.246  0.00  0.00    +0.013 C 
ENDBRANCH  25  27
ENDBRANCH  20  22
ENDBRANCH   1  17
TORSDOF 5
