REMARK  Name = ZINC34747404
REMARK  6 active torsions:
REMARK  status: ('A' for Active; 'I' for Inactive)
REMARK    1  A    between atoms: C_1  and  C_2
REMARK    2  A    between atoms: C_2  and  C_3
REMARK    3  A    between atoms: C_3  and  C_4
REMARK    4  A    between atoms: C_4  and  N_5
REMARK    5  A    between atoms: N_18  and  C_21
REMARK    6  A    between atoms: C_21  and  C_22
REMARK                            x       y       z     vdW  Elec       q    Type
REMARK                         _______ _______ _______ _____ _____    ______ ____
ROOT
ATOM      1  N   UNL     1       1.421  -2.614  -2.434  0.00  0.00    -0.280 N 
ATOM      2  C   UNL     1       0.697  -2.933  -3.523  0.00  0.00    +0.264 A 
ATOM      3  O   UNL     1      -0.521  -2.929  -3.478  0.00  0.00    -0.267 OA
ATOM      4  C   UNL     1       1.377  -3.276  -4.734  0.00  0.00    +0.076 A 
ATOM      5  C   UNL     1       0.797  -3.652  -6.025  0.00  0.00    -0.023 A 
ATOM      6  C   UNL     1       1.659  -3.932  -7.024  0.00  0.00    -0.004 A 
ATOM      7  S   UNL     1       3.270  -3.713  -6.318  0.00  0.00    -0.073 S 
ATOM      8  C   UNL     1       2.780  -3.247  -4.677  0.00  0.00    +0.117 A 
ATOM      9  N   UNL     1       3.435  -2.923  -3.568  0.00  0.00    -0.208 NA
ATOM     10  C   UNL     1       2.784  -2.607  -2.468  0.00  0.00    +0.202 A 
ATOM     11  N   UNL     1       3.487  -2.270  -1.338  0.00  0.00    -0.304 N 
ATOM     12  C   UNL     1       3.875  -3.294  -0.356  0.00  0.00    +0.089 C 
ATOM     13  C   UNL     1       5.372  -3.145  -0.064  0.00  0.00    -0.059 C 
ATOM     14  N   UNL     1       5.653  -1.766   0.355  0.00  0.00    +0.387 N 
ATOM     15  C   UNL     1       5.372  -0.840  -0.750  0.00  0.00    -0.059 C 
ATOM     16  C   UNL     1       3.880  -0.876  -1.078  0.00  0.00    +0.089 C 
ATOM     17  C   UNL     1       1.321  -4.340  -8.426  0.00  0.00    +0.043 C 
ATOM     18  C   UNL     1      -0.156  -4.758  -8.467  0.00  0.00    +0.005 C 
ATOM     19  C   UNL     1      -0.988  -3.688  -7.753  0.00  0.00    +0.005 C 
ATOM     20  C   UNL     1      -0.710  -3.732  -6.250  0.00  0.00    +0.037 C 
ATOM     21  H   UNL     1       5.071  -1.530   1.145  0.00  0.00    -0.081 HD
ENDROOT
BRANCH   1  22
ATOM     22  C   UNL     1       0.731  -2.263  -1.190  0.00  0.00    +0.128 C 
BRANCH  22  23
ATOM     23  C   UNL     1       0.358  -0.779  -1.216  0.00  0.00    +0.021 C 
BRANCH  23  25
ATOM     24  C   UNL     1      -0.736   1.072   0.057  0.00  0.00    +0.004 C 
ATOM     25  C   UNL     1      -0.363  -0.412   0.083  0.00  0.00    -0.002 C 
ENDBRANCH  23  25
ENDBRANCH  22  23
ENDBRANCH   1  22
BRANCH  14  26
ATOM     26  C   UNL     1       7.066  -1.651   0.740  0.00  0.00    +0.018 C 
BRANCH  26  27
ATOM     27  C   UNL     1       7.327  -0.271   1.286  0.00  0.00    +0.194 C 
ATOM     28  O   UNL     1       6.425   0.538   1.348  0.00  0.00    -0.278 OA
ATOM     29  N   UNL     1       8.563   0.066   1.705  0.00  0.00    -0.331 N 
ATOM     30  H   UNL     1       9.285  -0.581   1.655  0.00  0.00    +0.145 HD
ATOM     31  H   UNL     1       8.732   0.954   2.056  0.00  0.00    +0.145 HD
ENDBRANCH  26  27
ENDBRANCH  14  26
TORSDOF 5
