REMARK  Name = ZINC62143071
REMARK  6 active torsions:
REMARK  status: ('A' for Active; 'I' for Inactive)
REMARK    1  A    between atoms: C_1  and  O_2
REMARK    2  A    between atoms: O_2  and  C_3
REMARK    3  A    between atoms: C_3  and  C_5
REMARK    4  A    between atoms: C_9  and  N_11
REMARK    5  A    between atoms: N_11  and  S_12
REMARK    6  A    between atoms: S_12  and  C_15
REMARK                            x       y       z     vdW  Elec       q    Type
REMARK                         _______ _______ _______ _____ _____    ______ ____
ROOT
ATOM      1  S   UNL     1      -3.818  -6.453  -0.132  0.00  0.00    +0.092 S 
ATOM      2  O   UNL     1      -3.230  -6.781  -1.384  0.00  0.00    -0.148 OA
ATOM      3  O   UNL     1      -3.333  -6.977   1.097  0.00  0.00    -0.148 OA
ENDROOT
BRANCH   1   4
ATOM      4  C   UNL     1      -5.517  -6.908  -0.238  0.00  0.00    +0.112 A 
ATOM      5  C   UNL     1      -6.232  -7.175   0.916  0.00  0.00    +0.031 A 
ATOM      6  C   UNL     1      -7.564  -7.532   0.843  0.00  0.00    +0.030 A 
ATOM      7  C   UNL     1      -8.188  -7.624  -0.393  0.00  0.00    +0.067 A 
ATOM      8  C   UNL     1      -7.466  -7.354  -1.557  0.00  0.00    +0.069 A 
ATOM      9  C   UNL     1      -6.130  -6.991  -1.473  0.00  0.00    +0.056 A 
ATOM     10  N   UNL     1      -8.344  -7.525  -2.624  0.00  0.00    -0.306 N 
ATOM     11  H   UNL     1      -8.128  -7.407  -3.562  0.00  0.00    +0.170 HD
ATOM     12  C   UNL     1      -9.546  -7.882  -2.132  0.00  0.00    +0.325 A 
ATOM     13  O   UNL     1     -10.537  -8.109  -2.799  0.00  0.00    -0.247 OA
ATOM     14  N   UNL     1      -9.483  -7.950  -0.788  0.00  0.00    -0.306 N 
ATOM     15  H   UNL     1     -10.214  -8.186  -0.197  0.00  0.00    +0.170 HD
ENDBRANCH   1   4
BRANCH   1  16
ATOM     16  N   UNL     1      -3.760  -4.804   0.002  0.00  0.00    -0.096 NA
BRANCH  16  21
ATOM     17  C   UNL     1      -0.122  -4.219   0.071  0.00  0.00    +0.061 A 
ATOM     18  C   UNL     1      -0.084  -2.823   0.047  0.00  0.00    +0.016 A 
ATOM     19  C   UNL     1      -1.259  -2.102   0.008  0.00  0.00    +0.023 A 
ATOM     20  C   UNL     1      -2.478  -2.756  -0.007  0.00  0.00    +0.065 A 
ATOM     21  C   UNL     1      -2.526  -4.147   0.017  0.00  0.00    +0.093 A 
ATOM     22  C   UNL     1      -1.351  -4.880   0.050  0.00  0.00    +0.043 A 
ATOM     23 CL   UNL     1      -3.952  -1.840  -0.055  0.00  0.00    -0.082 Cl
BRANCH  17  24
ATOM     24  C   UNL     1       1.135  -4.993   0.112  0.00  0.00    +0.339 C 
ATOM     25  O   UNL     1       1.100  -6.208   0.127  0.00  0.00    -0.245 OA
BRANCH  24  27
ATOM     26  C   UNL     1       3.496  -5.165   0.171  0.00  0.00    +0.280 C 
ATOM     27  O   UNL     1       2.321  -4.353   0.132  0.00  0.00    -0.464 OA
ENDBRANCH  24  27
ENDBRANCH  17  24
ENDBRANCH  16  21
ENDBRANCH   1  16
TORSDOF 5
