REMARK  Name = ZINC67637726
REMARK  5 active torsions:
REMARK  status: ('A' for Active; 'I' for Inactive)
REMARK    1  A    between atoms: C_9  and  C_11
REMARK    2  A    between atoms: C_11  and  O_13
REMARK    3  A    between atoms: O_13  and  C_14
REMARK    4  A    between atoms: C_17  and  O_20
REMARK    5  A    between atoms: O_20  and  C_21
REMARK                            x       y       z     vdW  Elec       q    Type
REMARK                         _______ _______ _______ _____ _____    ______ ____
ROOT
ATOM      1  C   UNL     1       0.233  -4.203  -0.062  0.00  0.00    +0.132 A 
ATOM      2  C   UNL     1       1.505  -4.753  -0.022  0.00  0.00    +0.050 A 
ATOM      3  C   UNL     1       1.664  -6.125   0.028  0.00  0.00    +0.049 A 
ATOM      4  C   UNL     1       0.550  -6.951   0.038  0.00  0.00    +0.122 A 
ATOM      5  C   UNL     1      -0.723  -6.401  -0.002  0.00  0.00    +0.049 A 
ATOM      6  C   UNL     1      -0.881  -5.030  -0.046  0.00  0.00    +0.050 A 
ENDROOT
BRANCH   1   7
ATOM      7  O   UNL     1       0.077  -2.853  -0.111  0.00  0.00    -0.422 OA
BRANCH   7   8
ATOM      8  C   UNL     1      -0.312  -2.220   1.013  0.00  0.00    +0.347 C 
ATOM      9  O   UNL     1      -0.599  -2.862   2.004  0.00  0.00    -0.244 OA
BRANCH   8  18
ATOM     10  C   UNL     1      -0.129   1.375  -0.071  0.00  0.00    +0.002 A 
ATOM     11  C   UNL     1      -0.524   2.042   1.067  0.00  0.00    +0.011 A 
ATOM     12  C   UNL     1      -0.859   1.323   2.219  0.00  0.00    +0.020 A 
ATOM     13  C   UNL     1      -1.304   1.705   3.557  0.00  0.00    +0.142 A 
ATOM     14  N   UNL     1      -1.473   0.612   4.244  0.00  0.00    -0.181 NA
ATOM     15  N   UNL     1      -1.170  -0.503   3.455  0.00  0.00    -0.276 N 
ATOM     16  H   UNL     1      -1.220  -1.427   3.745  0.00  0.00    +0.189 HD
ATOM     17  C   UNL     1      -0.793  -0.083   2.212  0.00  0.00    +0.080 A 
ATOM     18  C   UNL     1      -0.388  -0.749   1.041  0.00  0.00    +0.085 A 
ATOM     19  C   UNL     1      -0.059  -0.008  -0.091  0.00  0.00    +0.017 A 
ENDBRANCH   8  18
ENDBRANCH   7   8
ENDBRANCH   1   7
BRANCH   4  20
ATOM     20  O   UNL     1       0.706  -8.301   0.087  0.00  0.00    -0.480 OA
BRANCH  20  21
ATOM     21  C   UNL     1       2.035  -8.795   0.262  0.00  0.00    +0.259 C 
ATOM     22  C   UNL     1       2.001 -10.083   1.087  0.00  0.00    +0.054 C 
ATOM     23  C   UNL     1       0.757 -10.892   0.770  0.00  0.00    +0.006 C 
ATOM     24  C   UNL     1       0.730 -11.447  -0.643  0.00  0.00    +0.019 C 
ATOM     25  C   UNL     1       0.613 -10.318  -1.669  0.00  0.00    +0.104 C 
ATOM     26  N   UNL     1       1.964  -9.825  -1.983  0.00  0.00    -0.312 N 
ATOM     27  C   UNL     1       2.646  -9.101  -1.089  0.00  0.00    +0.254 C 
ATOM     28  O   UNL     1       3.757  -8.693  -1.357  0.00  0.00    -0.272 OA
ATOM     29  H   UNL     1       2.362 -10.023  -2.845  0.00  0.00    +0.149 HD
ENDBRANCH  20  21
ENDBRANCH   4  20
TORSDOF 5
