REMARK  Name = ZINC05410445
REMARK  8 active torsions:
REMARK  status: ('A' for Active; 'I' for Inactive)
REMARK    1  A    between atoms: C_1  and  C_2
REMARK    2  A    between atoms: C_4  and  C_29
REMARK    3  A    between atoms: C_5  and  C_9
REMARK    4  A    between atoms: C_7  and  C_8
REMARK    5  A    between atoms: N_14  and  C_16
REMARK    6  A    between atoms: C_16  and  C_17
REMARK    7  A    between atoms: N_19  and  C_20
REMARK    8  A    between atoms: C_25  and  N_26
REMARK                            x       y       z     vdW  Elec       q    Type
REMARK                         _______ _______ _______ _____ _____    ______ ____
ROOT
ATOM      1  C   UNL     1      -0.111   4.468   0.191  0.00  0.00    +0.092 A 
ATOM      2  C   UNL     1       1.199   3.944   0.080  0.00  0.00    +0.035 A 
ATOM      3  C   UNL     1       1.346   2.594  -0.035  0.00  0.00    +0.074 A 
ATOM      4  C   UNL     1       0.179   1.799  -0.036  0.00  0.00    +0.268 A 
ATOM      5  O   UNL     1       0.261   0.585  -0.137  0.00  0.00    -0.266 OA
ATOM      6  N   UNL     1      -1.026   2.390   0.070  0.00  0.00    -0.220 N 
ATOM      7  N   UNL     1      -1.147   3.663   0.183  0.00  0.00    -0.168 NA
ENDROOT
BRANCH   1  12
ATOM      8  C   UNL     1      -0.894  10.152   0.683  0.00  0.00    +0.044 C 
ATOM      9  C   UNL     1      -0.689   8.665   0.554  0.00  0.00    -0.047 A 
ATOM     10  C   UNL     1      -0.041   7.969   1.559  0.00  0.00    +0.007 A 
ATOM     11  C   UNL     1       0.149   6.607   1.447  0.00  0.00    -0.041 A 
ATOM     12  C   UNL     1      -0.313   5.932   0.318  0.00  0.00    +0.005 A 
ATOM     13  C   UNL     1      -0.960   6.639  -0.693  0.00  0.00    +0.014 A 
ATOM     14  C   UNL     1      -1.149   8.000  -0.568  0.00  0.00    -0.047 A 
ATOM     15  C   UNL     1      -1.855   8.765  -1.658  0.00  0.00    +0.044 C 
ATOM     16  C   UNL     1       0.855   5.850   2.542  0.00  0.00    +0.044 C 
ENDBRANCH   1  12
BRANCH   6  17
ATOM     17  C   UNL     1      -2.232   1.558   0.062  0.00  0.00    +0.243 C 
BRANCH  17  18
ATOM     18  C   UNL     1      -2.576   1.159   1.474  0.00  0.00    +0.239 C 
ATOM     19  O   UNL     1      -1.883   1.534   2.396  0.00  0.00    -0.273 OA
ATOM     20  N   UNL     1      -3.655   0.387   1.712  0.00  0.00    -0.282 N 
ATOM     21  H   UNL     1      -4.165   0.025   0.971  0.00  0.00    +0.155 HD
BRANCH  20  22
ATOM     22  C   UNL     1      -4.037   0.107   3.029  0.00  0.00    +0.064 A 
ATOM     23  C   UNL     1      -3.871   1.064   4.021  0.00  0.00    +0.025 A 
ATOM     24  C   UNL     1      -4.254   0.786   5.318  0.00  0.00    +0.002 A 
ATOM     25  C   UNL     1      -4.792  -0.449   5.632  0.00  0.00    +0.002 A 
ATOM     26  C   UNL     1      -4.955  -1.406   4.648  0.00  0.00    +0.034 A 
ATOM     27  C   UNL     1      -4.578  -1.132   3.347  0.00  0.00    +0.147 A 
BRANCH  27  28
ATOM     28  N   UNL     1      -4.751  -2.158   2.294  0.00  0.00    +0.058 N 
ATOM     29  O   UNL     1      -5.143  -3.273   2.589  0.00  0.00    -0.126 OA
ATOM     30  O   UNL     1      -4.502  -1.887   1.133  0.00  0.00    -0.126 OA
ENDBRANCH  27  28
ENDBRANCH  20  22
ENDBRANCH  17  18
ENDBRANCH   6  17
TORSDOF 5
