REMARK  Name = ZINC64066547
REMARK  10 active torsions:
REMARK  status: ('A' for Active; 'I' for Inactive)
REMARK    1  A    between atoms: C_1  and  C_2
REMARK    2  A    between atoms: C_7  and  C_31
REMARK    3  A    between atoms: C_9  and  C_12
REMARK    4  A    between atoms: C_12  and  C_13
REMARK    5  A    between atoms: N_15  and  N_16
REMARK    6  A    between atoms: C_17  and  C_19
REMARK    7  A    between atoms: C_23  and  S_25
REMARK    8  A    between atoms: S_25  and  N_28
REMARK    9  A    between atoms: N_28  and  C_29
REMARK   10  A    between atoms: N_28  and  C_30
REMARK                            x       y       z     vdW  Elec       q    Type
REMARK                         _______ _______ _______ _____ _____    ______ ____
ROOT
ATOM      1  C   UNL     1       0.161  -1.317   3.890  0.00  0.00    +0.233 C 
ATOM      2  O   UNL     1       0.137  -0.542   2.957  0.00  0.00    -0.274 OA
ATOM      3  N   UNL     1       0.283  -0.853   5.149  0.00  0.00    -0.234 N 
ATOM      4  H   UNL     1       0.303  -1.472   5.895  0.00  0.00    +0.173 HD
ENDROOT
BRANCH   3   5
ATOM      5  N   UNL     1       0.382   0.526   5.381  0.00  0.00    -0.230 N 
ATOM      6  C   UNL     1       0.504   0.990   6.640  0.00  0.00    +0.260 C 
ATOM      7  O   UNL     1       0.528   0.213   7.575  0.00  0.00    -0.269 OA
ATOM      8  H   UNL     1       0.362   1.146   4.635  0.00  0.00    +0.173 HD
BRANCH   6   9
ATOM      9  C   UNL     1       0.608   2.445   6.885  0.00  0.00    +0.040 A 
ATOM     10  C   UNL     1       0.574   3.340   5.814  0.00  0.00    +0.013 A 
ATOM     11  C   UNL     1       0.671   4.695   6.049  0.00  0.00    +0.003 A 
ATOM     12  C   UNL     1       0.802   5.169   7.343  0.00  0.00    +0.028 A 
ATOM     13  C   UNL     1       0.836   4.287   8.409  0.00  0.00    +0.106 A 
ATOM     14  C   UNL     1       0.734   2.929   8.188  0.00  0.00    +0.041 A 
BRANCH  13  15
ATOM     15  S   UNL     1       1.004   4.900  10.052  0.00  0.00    +0.060 S 
ATOM     16  O   UNL     1       1.558   3.844  10.825  0.00  0.00    -0.153 OA
ATOM     17  O   UNL     1       1.623   6.175   9.949  0.00  0.00    -0.153 OA
BRANCH  15  18
ATOM     18  N   UNL     1      -0.524   5.162  10.635  0.00  0.00    -0.183 NA
ATOM     19  C   UNL     1      -1.233   4.090  11.339  0.00  0.00    +0.131 C 
ATOM     20  C   UNL     1      -1.167   6.465  10.447  0.00  0.00    +0.131 C 
ENDBRANCH  15  18
ENDBRANCH  13  15
ENDBRANCH   6   9
ENDBRANCH   3   5
BRANCH   1  21
ATOM     21  C   UNL     1       0.055  -2.799   3.641  0.00  0.00    +0.130 C 
BRANCH  21  29
ATOM     22  C   UNL     1       4.861  -4.039   0.984  0.00  0.00    +0.044 C 
ATOM     23  C   UNL     1       3.396  -3.857   0.679  0.00  0.00    -0.050 A 
ATOM     24  C   UNL     1       2.949  -4.016  -0.640  0.00  0.00    +0.005 A 
ATOM     25  C   UNL     1       1.654  -3.870  -0.993  0.00  0.00    +0.026 A 
ATOM     26  C   UNL     1       0.675  -3.541  -0.016  0.00  0.00    +0.043 A 
ATOM     27  N   UNL     1      -0.618  -3.349  -0.106  0.00  0.00    -0.378 N 
ATOM     28  C   UNL     1      -1.139  -3.031   1.228  0.00  0.00    +0.104 C 
ATOM     29  C   UNL     1       0.055  -3.060   2.156  0.00  0.00    -0.030 C 
ATOM     30  C   UNL     1       1.122  -3.368   1.385  0.00  0.00    -0.000 A 
ATOM     31  C   UNL     1       2.547  -3.550   1.686  0.00  0.00    +0.013 A 
ATOM     32  C   UNL     1      -2.168  -4.078   1.656  0.00  0.00    +0.035 C 
ATOM     33  H   UNL     1      -1.144  -3.406  -0.920  0.00  0.00    +0.160 HD
ENDBRANCH  21  29
ENDBRANCH   1  21
TORSDOF 6
