REMARK  Name = ZINC63279960
REMARK  8 active torsions:
REMARK  status: ('A' for Active; 'I' for Inactive)
REMARK    1  A    between atoms: C_1  and  C_2
REMARK    2  A    between atoms: C_2  and  C_3
REMARK    3  A    between atoms: C_2  and  C_4
REMARK    4  A    between atoms: C_4  and  C_6
REMARK    5  A    between atoms: C_4  and  N_15
REMARK    6  A    between atoms: N_8  and  C_9
REMARK    7  A    between atoms: C_9  and  C_10
REMARK    8  A    between atoms: C_24  and  C_26
REMARK                            x       y       z     vdW  Elec       q    Type
REMARK                         _______ _______ _______ _____ _____    ______ ____
ROOT
ATOM      1  N   UNL     1      -1.105  -1.427  -2.162  0.00  0.00    -0.288 N 
ATOM      2  C   UNL     1      -1.644  -0.259  -1.760  0.00  0.00    +0.303 C 
ATOM      3  O   UNL     1      -1.673   0.023  -0.578  0.00  0.00    -0.253 OA
ATOM      4  N   UNL     1      -2.151   0.597  -2.670  0.00  0.00    -0.283 N 
ATOM      5  C   UNL     1      -2.646   1.918  -2.258  0.00  0.00    +0.128 C 
ATOM      6  C   UNL     1      -1.921   2.991  -3.079  0.00  0.00    +0.127 C 
ATOM      7  N   UNL     1      -1.987   2.621  -4.499  0.00  0.00    -0.297 N 
ATOM      8  C   UNL     1      -1.491   1.300  -4.911  0.00  0.00    +0.127 C 
ATOM      9  C   UNL     1      -2.212   0.229  -4.091  0.00  0.00    +0.128 C 
ATOM     10  C   UNL     1      -2.493   3.477  -5.409  0.00  0.00    +0.242 C 
ATOM     11  O   UNL     1      -2.900   4.564  -5.057  0.00  0.00    -0.273 OA
ATOM     12  H   UNL     1      -1.019  -1.622  -3.108  0.00  0.00    +0.151 HD
ENDROOT
BRANCH  10  13
ATOM     13  C   UNL     1      -2.555   3.083  -6.862  0.00  0.00    +0.190 C 
ATOM     14  C   UNL     1      -3.452   1.879  -7.038  0.00  0.00    +0.016 C 
ATOM     15  C   UNL     1      -4.457   2.276  -7.853  0.00  0.00    -0.004 A 
ATOM     16  C   UNL     1      -5.630   1.582  -8.396  0.00  0.00    +0.010 A 
ATOM     17  C   UNL     1      -6.477   2.258  -9.204  0.00  0.00    +0.001 A 
ATOM     18  C   UNL     1      -6.263   3.603  -9.536  0.00  0.00    +0.002 A 
ATOM     19  C   UNL     1      -5.207   4.308  -9.076  0.00  0.00    +0.026 A 
ATOM     20  C   UNL     1      -4.253   3.696  -8.218  0.00  0.00    +0.043 A 
ATOM     21  N   UNL     1      -3.163   4.160  -7.652  0.00  0.00    -0.370 N 
ATOM     22  H   UNL     1      -2.818   5.062  -7.740  0.00  0.00    +0.161 HD
ENDBRANCH  10  13
BRANCH   1  23
ATOM     23  C   UNL     1      -0.649  -2.403  -1.169  0.00  0.00    +0.163 C 
BRANCH  23  24
ATOM     24  C   UNL     1       0.415  -3.280  -1.778  0.00  0.00    +0.234 C 
ATOM     25  O   UNL     1       0.525  -3.351  -2.983  0.00  0.00    -0.274 OA
ATOM     26  N   UNL     1       1.244  -3.984  -0.982  0.00  0.00    -0.307 N 
ATOM     27  H   UNL     1       1.206  -3.870  -0.020  0.00  0.00    +0.149 HD
BRANCH  26  28
ATOM     28  C   UNL     1       2.204  -4.921  -1.571  0.00  0.00    +0.178 C 
BRANCH  28  29
ATOM     29  C   UNL     1       3.005  -5.575  -0.475  0.00  0.00    +0.122 A 
ATOM     30  C   UNL     1       2.686  -6.717   0.158  0.00  0.00    +0.046 A 
ATOM     31  C   UNL     1       3.708  -6.960   1.105  0.00  0.00    +0.041 A 
ATOM     32  C   UNL     1       4.590  -5.951   0.993  0.00  0.00    +0.195 A 
ATOM     33  O   UNL     1       4.163  -5.118   0.031  0.00  0.00    -0.466 OA
ENDBRANCH  28  29
ENDBRANCH  26  28
ENDBRANCH  23  24
BRANCH  23  35
ATOM     34  C   UNL     1      -2.887  -2.386  -0.058  0.00  0.00    +0.009 C 
ATOM     35  C   UNL     1      -1.830  -3.269  -0.725  0.00  0.00    +0.012 C 
ATOM     36  C   UNL     1      -2.441  -3.963  -1.944  0.00  0.00    +0.009 C 
ENDBRANCH  23  35
ENDBRANCH   1  23
TORSDOF 6
