REMARK  Name = ZINC55187751
REMARK  5 active torsions:
REMARK  status: ('A' for Active; 'I' for Inactive)
REMARK    1  A    between atoms: C_1  and  C_2
REMARK    2  A    between atoms: C_2  and  C_3
REMARK    3  A    between atoms: C_3  and  S_4
REMARK    4  A    between atoms: S_4  and  N_7
REMARK    5  A    between atoms: C_13  and  C_15
REMARK                            x       y       z     vdW  Elec       q    Type
REMARK                         _______ _______ _______ _____ _____    ______ ____
ROOT
ATOM      1  N   UNL     1       1.680  -2.023   2.591  0.00  0.00    -0.178 NA
ATOM      2  C   UNL     1       3.133  -2.244   2.571  0.00  0.00    +0.128 C 
ATOM      3  C   UNL     1       3.747  -1.575   3.808  0.00  0.00    +0.125 C 
ATOM      4  N   UNL     1       2.983  -1.990   4.993  0.00  0.00    -0.294 N 
ATOM      5  C   UNL     1       1.530  -1.769   5.013  0.00  0.00    +0.125 C 
ATOM      6  C   UNL     1       0.917  -2.433   3.779  0.00  0.00    +0.128 C 
ATOM      7  C   UNL     1       3.604  -2.562   6.044  0.00  0.00    +0.266 C 
ATOM      8  O   UNL     1       2.970  -2.854   7.040  0.00  0.00    -0.268 OA
ENDROOT
BRANCH   7   9
ATOM      9  C   UNL     1       5.049  -2.833   5.986  0.00  0.00    +0.135 A 
ATOM     10  C   UNL     1       5.718  -3.287   7.095  0.00  0.00    +0.081 A 
ATOM     11  S   UNL     1       7.378  -3.430   6.448  0.00  0.00    -0.060 S 
ATOM     12  C   UNL     1       7.024  -2.879   4.786  0.00  0.00    +0.156 A 
ATOM     13  N   UNL     1       5.729  -2.646   4.852  0.00  0.00    -0.221 NA
ATOM     14  N   UNL     1       7.884  -2.739   3.710  0.00  0.00    -0.338 N 
ATOM     15  H   UNL     1       8.824  -2.955   3.809  0.00  0.00    +0.144 HD
ATOM     16  H   UNL     1       7.546  -2.424   2.857  0.00  0.00    +0.144 HD
ENDBRANCH   7   9
BRANCH   1  17
ATOM     17  S   UNL     1       0.917  -1.320   1.300  0.00  0.00    +0.032 S 
ATOM     18  O   UNL     1      -0.419  -1.800   1.363  0.00  0.00    -0.158 OA
ATOM     19  O   UNL     1       1.742  -1.621   0.183  0.00  0.00    -0.158 OA
BRANCH  17  20
ATOM     20  C   UNL     1       0.959   0.460   1.647  0.00  0.00    +0.185 C 
BRANCH  20  22
ATOM     21  C   UNL     1       0.310   2.719   0.800  0.00  0.00    +0.005 C 
ATOM     22  C   UNL     1       0.275   1.218   0.507  0.00  0.00    +0.021 C 
ENDBRANCH  20  22
ENDBRANCH  17  20
ENDBRANCH   1  17
TORSDOF 4
