REMARK  Name = ZINC08740162
REMARK  12 active torsions:
REMARK  status: ('A' for Active; 'I' for Inactive)
REMARK    1  A    between atoms: C_1  and  N_69
REMARK    2  A    between atoms: C_2  and  N_69
REMARK    3  A    between atoms: C_8  and  O_33
REMARK    4  A    between atoms: C_9  and  O_31
REMARK    5  A    between atoms: C_10  and  O_29
REMARK    6  A    between atoms: C_17  and  N_20
REMARK    7  A    between atoms: N_20  and  C_21
REMARK    8  A    between atoms: C_21  and  C_22
REMARK    9  A    between atoms: C_22  and  C_23
REMARK   10  A    between atoms: O_29  and  C_30
REMARK   11  A    between atoms: O_31  and  C_32
REMARK   12  A    between atoms: O_33  and  C_34
REMARK                            x       y       z     vdW  Elec       q    Type
REMARK                         _______ _______ _______ _____ _____    ______ ____
ROOT
ATOM      1  C   UNL     1       0.455  -0.976  -1.326  0.00  0.00    -0.040 C 
ATOM      2  C   UNL     1       1.061  -2.356  -1.174  0.00  0.00    -0.007 C 
ATOM      3  C   UNL     1       1.562  -2.886  -2.515  0.00  0.00    +0.035 C 
ATOM      4  C   UNL     1       2.309  -1.800  -3.245  0.00  0.00    -0.033 A 
ATOM      5  C   UNL     1       3.688  -1.821  -3.299  0.00  0.00    +0.054 A 
ATOM      6  C   UNL     1       4.372  -0.825  -3.982  0.00  0.00    +0.165 A 
ATOM      7  C   UNL     1       3.675   0.198  -4.616  0.00  0.00    +0.204 A 
ATOM      8  C   UNL     1       2.288   0.228  -4.562  0.00  0.00    +0.173 A 
ATOM      9  C   UNL     1       1.605  -0.775  -3.868  0.00  0.00    +0.031 A 
ATOM     10  C   UNL     1       0.114  -0.736  -3.791  0.00  0.00    -0.012 A 
ATOM     11  C   UNL     1      -0.462  -0.895  -2.530  0.00  0.00    -0.050 A 
ATOM     12  C   UNL     1      -1.780  -0.982  -2.284  0.00  0.00    +0.055 A 
ATOM     13  C   UNL     1      -2.881  -0.921  -3.088  0.00  0.00    +0.200 A 
ATOM     14  O   UNL     1      -3.955  -1.122  -2.536  0.00  0.00    -0.286 OA
ATOM     15  C   UNL     1      -2.943  -0.660  -4.455  0.00  0.00    +0.074 A 
ATOM     16  C   UNL     1      -1.868  -0.490  -5.276  0.00  0.00    +0.027 A 
ATOM     17  C   UNL     1      -0.560  -0.542  -4.970  0.00  0.00    +0.011 A 
ENDROOT
BRANCH   1  19
ATOM     18  C   UNL     1      -0.397   0.798   0.086  0.00  0.00    -0.100 C 
ATOM     19  N   UNL     1      -0.319  -0.662  -0.110  0.00  0.00    +0.382 N 
ATOM     20  H   UNL     1      -1.268  -1.042  -0.206  0.00  0.00    -0.085 HD
ATOM     21  H   UNL     1       0.140  -1.089   0.703  0.00  0.00    -0.085 HD
ENDBRANCH   1  19
BRANCH  15  22
ATOM     22  N   UNL     1      -4.200  -0.566  -5.027  0.00  0.00    -0.341 N 
ATOM     23  H   UNL     1      -4.993  -0.681  -4.480  0.00  0.00    +0.146 HD
BRANCH  22  24
ATOM     24  C   UNL     1      -4.334  -0.293  -6.461  0.00  0.00    +0.106 C 
BRANCH  24  25
ATOM     25  C   UNL     1      -5.817  -0.240  -6.833  0.00  0.00    +0.049 C 
BRANCH  25  26
ATOM     26  C   UNL     1      -5.955   0.041  -8.308  0.00  0.00    -0.072 C 
ATOM     27  C   UNL     1      -6.090  -0.968  -9.107  0.00  0.00    -0.028 C 
ATOM     28  C   UNL     1      -6.233  -0.847 -10.596  0.00  0.00    +0.027 C 
ATOM     29  C   UNL     1      -6.607   0.587 -10.977  0.00  0.00    +0.004 C 
ATOM     30  C   UNL     1      -5.646   1.545 -10.261  0.00  0.00    +0.005 C 
ATOM     31  C   UNL     1      -5.920   1.472  -8.758  0.00  0.00    +0.030 C 
ENDBRANCH  25  26
ENDBRANCH  24  25
ENDBRANCH  22  24
ENDBRANCH  15  22
BRANCH   8  32
ATOM     32  O   UNL     1       1.600   1.224  -5.180  0.00  0.00    -0.491 OA
ATOM     33  C   UNL     1       1.417   2.437  -4.447  0.00  0.00    +0.277 C 
ENDBRANCH   8  32
BRANCH   7  34
ATOM     34  O   UNL     1       4.352   1.169  -5.288  0.00  0.00    -0.488 OA
ATOM     35  C   UNL     1       4.622   0.932  -6.671  0.00  0.00    +0.277 C 
ENDBRANCH   7  34
BRANCH   6  36
ATOM     36  O   UNL     1       5.730  -0.849  -4.032  0.00  0.00    -0.491 OA
ATOM     37  C   UNL     1       6.385  -1.927  -3.360  0.00  0.00    +0.277 C 
ENDBRANCH   6  36
TORSDOF 8
