REMARK  Name = ZINC64999148
REMARK  6 active torsions:
REMARK  status: ('A' for Active; 'I' for Inactive)
REMARK    1  A    between atoms: C_1  and  C_2
REMARK    2  A    between atoms: C_2  and  S_3
REMARK    3  A    between atoms: S_3  and  C_6
REMARK    4  A    between atoms: N_12  and  C_17
REMARK    5  A    between atoms: C_17  and  C_18
REMARK    6  A    between atoms: C_20  and  C_23
REMARK                            x       y       z     vdW  Elec       q    Type
REMARK                         _______ _______ _______ _____ _____    ______ ____
ROOT
ATOM      1  C   UNL     1       0.832  -2.361   1.341  0.00  0.00    +0.090 A 
ATOM      2  C   UNL     1      -0.222  -3.066   1.894  0.00  0.00    +0.030 A 
ATOM      3  C   UNL     1      -0.267  -4.444   1.795  0.00  0.00    +0.049 A 
ATOM      4  C   UNL     1       0.746  -5.122   1.140  0.00  0.00    +0.143 A 
ATOM      5  C   UNL     1       1.809  -4.412   0.583  0.00  0.00    +0.081 A 
ATOM      6  C   UNL     1       1.845  -3.031   0.680  0.00  0.00    +0.054 A 
ATOM      7  N   UNL     1       2.830  -5.112  -0.076  0.00  0.00    -0.256 N 
ATOM      8  C   UNL     1       2.618  -6.397  -0.432  0.00  0.00    +0.258 C 
ATOM      9  O   UNL     1       3.498  -7.032  -0.975  0.00  0.00    -0.271 OA
ATOM     10  C   UNL     1       1.284  -7.041  -0.153  0.00  0.00    +0.325 C 
ATOM     11  O   UNL     1       0.718  -6.478   1.033  0.00  0.00    -0.481 OA
ENDROOT
BRANCH   1  12
ATOM     12  S   UNL     1       0.879  -0.605   1.472  0.00  0.00    -0.003 S 
ATOM     13  O   UNL     1       2.259  -0.273   1.388  0.00  0.00    -0.169 OA
ATOM     14  O   UNL     1       0.132  -0.308   2.643  0.00  0.00    -0.169 OA
BRANCH  12  16
ATOM     15  C   UNL     1      -0.019   1.526   0.010  0.00  0.00    +0.028 C 
ATOM     16  C   UNL     1       0.002  -0.004   0.002  0.00  0.00    +0.168 C 
ENDBRANCH  12  16
ENDBRANCH   1  12
BRANCH   7  17
ATOM     17  C   UNL     1       4.107  -4.458  -0.373  0.00  0.00    +0.212 C 
BRANCH  17  18
ATOM     18  C   UNL     1       5.057  -4.665   0.778  0.00  0.00    +0.245 A 
ATOM     19  N   UNL     1       5.892  -5.657   0.907  0.00  0.00    -0.190 NA
ATOM     20  C   UNL     1       6.586  -5.529   2.052  0.00  0.00    +0.202 A 
ATOM     21  N   UNL     1       6.189  -4.440   2.663  0.00  0.00    -0.056 NA
ATOM     22  O   UNL     1       5.190  -3.858   1.839  0.00  0.00    -0.336 OA
BRANCH  20  23
ATOM     23  C   UNL     1       7.628  -6.466   2.542  0.00  0.00    +0.023 A 
ATOM     24  C   UNL     1       7.964  -7.591   1.792  0.00  0.00    +0.014 A 
ATOM     25  C   UNL     1       8.934  -8.459   2.251  0.00  0.00    +0.039 A 
ATOM     26  C   UNL     1       9.572  -8.213   3.455  0.00  0.00    +0.123 A 
ATOM     27  C   UNL     1       9.241  -7.095   4.205  0.00  0.00    +0.039 A 
ATOM     28  C   UNL     1       8.276  -6.219   3.751  0.00  0.00    +0.014 A 
ATOM     29  F   UNL     1      10.521  -9.065   3.901  0.00  0.00    -0.205 F 
ENDBRANCH  20  23
ENDBRANCH  17  18
ENDBRANCH   7  17
TORSDOF 5
