REMARK  Name = ZINC13496065
REMARK  8 active torsions:
REMARK  status: ('A' for Active; 'I' for Inactive)
REMARK    1  A    between atoms: C_1  and  C_2
REMARK    2  A    between atoms: C_5  and  C_8
REMARK    3  A    between atoms: C_8  and  C_10
REMARK    4  A    between atoms: C_8  and  N_23
REMARK    5  A    between atoms: N_12  and  C_13
REMARK    6  A    between atoms: C_13  and  C_14
REMARK    7  A    between atoms: N_23  and  C_24
REMARK    8  A    between atoms: C_29  and  C_31
REMARK                            x       y       z     vdW  Elec       q    Type
REMARK                         _______ _______ _______ _____ _____    ______ ____
ROOT
ATOM      1  C   UNL     1       5.174  -2.674   0.231  0.00  0.00    +0.193 C 
ENDROOT
BRANCH   1   6
ATOM      2  C   UNL     1       6.657  -6.471  -3.865  0.00  0.00    +0.044 C 
ATOM      3  C   UNL     1       6.270  -5.480  -2.797  0.00  0.00    -0.050 A 
ATOM      4  C   UNL     1       5.495  -4.382  -3.120  0.00  0.00    +0.004 A 
ATOM      5  C   UNL     1       5.140  -3.474  -2.141  0.00  0.00    +0.006 A 
ATOM      6  C   UNL     1       5.561  -3.664  -0.837  0.00  0.00    -0.018 A 
ATOM      7  C   UNL     1       6.340  -4.759  -0.515  0.00  0.00    +0.006 A 
ATOM      8  C   UNL     1       6.691  -5.670  -1.494  0.00  0.00    +0.004 A 
ENDBRANCH   1   6
BRANCH   1   9
ATOM      9  C   UNL     1       5.282  -3.327   1.584  0.00  0.00    +0.238 C 
ATOM     10  O   UNL     1       4.296  -3.446   2.281  0.00  0.00    -0.273 OA
ATOM     11  N   UNL     1       6.474  -3.780   2.021  0.00  0.00    -0.309 N 
ATOM     12  H   UNL     1       7.275  -3.618   1.499  0.00  0.00    +0.149 HD
BRANCH  11  13
ATOM     13  C   UNL     1       6.559  -4.517   3.284  0.00  0.00    +0.139 C 
BRANCH  13  14
ATOM     14  C   UNL     1       7.992  -4.908   3.541  0.00  0.00    -0.027 A 
ATOM     15  C   UNL     1       8.471  -6.118   3.076  0.00  0.00    +0.009 A 
ATOM     16  C   UNL     1       9.786  -6.479   3.304  0.00  0.00    +0.050 A 
ATOM     17  C   UNL     1      10.624  -5.633   4.012  0.00  0.00    +0.166 A 
ATOM     18  C   UNL     1      10.140  -4.416   4.486  0.00  0.00    +0.167 A 
ATOM     19  C   UNL     1       8.823  -4.058   4.248  0.00  0.00    +0.054 A 
ATOM     20  O   UNL     1      11.148  -3.772   5.143  0.00  0.00    -0.453 OA
ATOM     21  C   UNL     1      12.134  -4.783   5.420  0.00  0.00    +0.466 C 
ATOM     22  O   UNL     1      11.935  -5.751   4.372  0.00  0.00    -0.453 OA
ENDBRANCH  13  14
ENDBRANCH  11  13
ENDBRANCH   1   9
BRANCH   1  23
ATOM     23  N   UNL     1       3.795  -2.232   0.011  0.00  0.00    -0.279 N 
ATOM     24  C   UNL     1       3.540  -0.943  -0.292  0.00  0.00    +0.248 C 
ATOM     25  O   UNL     1       4.457  -0.184  -0.537  0.00  0.00    -0.270 OA
BRANCH  24  26
ATOM     26  C   UNL     1       2.148  -0.454  -0.325  0.00  0.00    +0.041 A 
ATOM     27  C   UNL     1       1.087  -1.349  -0.167  0.00  0.00    +0.017 A 
ATOM     28  C   UNL     1      -0.211  -0.890  -0.199  0.00  0.00    +0.050 A 
ATOM     29  C   UNL     1      -0.472   0.463  -0.389  0.00  0.00    +0.162 A 
ATOM     30  C   UNL     1       0.582   1.360  -0.544  0.00  0.00    +0.163 A 
ATOM     31  C   UNL     1       1.887   0.905  -0.514  0.00  0.00    +0.062 A 
ATOM     32  O   UNL     1       0.344   2.689  -0.723  0.00  0.00    -0.485 OA
ATOM     33  C   UNL     1      -0.982   3.057  -1.120  0.00  0.00    +0.270 C 
ATOM     34  C   UNL     1      -1.978   2.295  -0.236  0.00  0.00    +0.270 C 
ATOM     35  O   UNL     1      -1.761   0.892  -0.425  0.00  0.00    -0.485 OA
ENDBRANCH  24  26
BRANCH  23  36
ATOM     36  C   UNL     1       2.692  -3.190   0.119  0.00  0.00    +0.077 C 
ATOM     37  C   UNL     1       1.942  -2.984   1.451  0.00  0.00    +0.022 C 
ATOM     38  C   UNL     1       1.565  -4.419   1.900  0.00  0.00    +0.002 C 
ATOM     39  C   UNL     1       2.809  -5.244   1.486  0.00  0.00    +0.002 C 
ATOM     40  C   UNL     1       3.243  -4.627   0.141  0.00  0.00    +0.022 C 
ENDBRANCH  23  36
ENDBRANCH   1  23
TORSDOF 7
