REMARK  Name = ZINC52550580
REMARK  7 active torsions:
REMARK  status: ('A' for Active; 'I' for Inactive)
REMARK    1  A    between atoms: C_4  and  C_10
REMARK    2  A    between atoms: N_13  and  C_16
REMARK    3  A    between atoms: C_16  and  C_18
REMARK    4  A    between atoms: C_16  and  C_20
REMARK    5  A    between atoms: C_18  and  O_19
REMARK    6  A    between atoms: C_26  and  C_28
REMARK    7  A    between atoms: C_29  and  C_30
REMARK                            x       y       z     vdW  Elec       q    Type
REMARK                         _______ _______ _______ _____ _____    ______ ____
ROOT
ATOM      1  C   UNL     1       7.146   6.231  -0.035  0.00  0.00    -0.039 C 
ENDROOT
BRANCH   1   2
ATOM      2  C   UNL     1       7.956   6.229   1.263  0.00  0.00    -0.020 C 
ATOM      3  C   UNL     1       7.018   5.995   2.449  0.00  0.00    +0.021 C 
ATOM      4  C   UNL     1       7.837   5.959   3.743  0.00  0.00    +0.108 C 
ATOM      5  N   UNL     1       8.630   7.192   3.836  0.00  0.00    -0.298 N 
ATOM      6  C   UNL     1       9.498   7.560   2.709  0.00  0.00    +0.108 C 
ATOM      7  C   UNL     1       8.660   7.578   1.426  0.00  0.00    +0.021 C 
ATOM      8  C   UNL     1       8.562   7.972   4.933  0.00  0.00    +0.239 C 
ATOM      9  O   UNL     1       7.771   7.707   5.819  0.00  0.00    -0.271 OA
BRANCH   8  10
ATOM     10  C   UNL     1       9.438   9.138   5.058  0.00  0.00    +0.068 C 
ATOM     11  C   UNL     1       9.436   9.864   6.194  0.00  0.00    +0.013 C 
BRANCH  11  12
ATOM     12  C   UNL     1      10.317  11.036   6.320  0.00  0.00    -0.023 A 
ATOM     13  C   UNL     1      11.153  11.404   5.260  0.00  0.00    +0.009 A 
ATOM     14  C   UNL     1      11.975  12.503   5.384  0.00  0.00    +0.022 A 
ATOM     15  C   UNL     1      11.976  13.243   6.555  0.00  0.00    +0.059 A 
ATOM     16  C   UNL     1      11.151  12.885   7.610  0.00  0.00    +0.060 A 
ATOM     17  C   UNL     1      10.318  11.791   7.497  0.00  0.00    +0.029 A 
ATOM     18 CL   UNL     1      11.161  13.819   9.073  0.00  0.00    -0.082 Cl
ATOM     19 CL   UNL     1      13.015  14.626   6.702  0.00  0.00    -0.082 Cl
ENDBRANCH  11  12
ENDBRANCH   8  10
ENDBRANCH   1   2
BRANCH   1  23
ATOM     20  C   UNL     1       5.697   2.509  -1.519  0.00  0.00    +0.014 C 
ATOM     21  C   UNL     1       6.617   2.525  -0.295  0.00  0.00    -0.011 C 
ATOM     22  C   UNL     1       7.372   3.854  -0.248  0.00  0.00    -0.078 C 
ATOM     23  N   UNL     1       6.415   4.963  -0.158  0.00  0.00    +0.383 N 
ATOM     24  C   UNL     1       5.577   4.997  -1.363  0.00  0.00    -0.078 C 
ATOM     25  C   UNL     1       4.752   3.712  -1.452  0.00  0.00    -0.011 C 
ATOM     26  H   UNL     1       5.829   4.835   0.654  0.00  0.00    -0.081 HD
BRANCH  20  30
ATOM     27  C   UNL     1       5.339  -0.954  -4.519  0.00  0.00    +0.020 A 
ATOM     28  C   UNL     1       5.587   0.156  -3.773  0.00  0.00    +0.013 A 
ATOM     29  C   UNL     1       4.881   0.286  -2.492  0.00  0.00    +0.018 A 
ATOM     30  C   UNL     1       4.892   1.235  -1.529  0.00  0.00    -0.037 C 
ATOM     31  C   UNL     1       3.932   0.757  -0.462  0.00  0.00    +0.146 C 
ATOM     32  N   UNL     1       3.408  -0.528  -0.938  0.00  0.00    -0.365 N 
ATOM     33  C   UNL     1       3.951  -0.797  -2.100  0.00  0.00    +0.134 A 
ATOM     34  N   UNL     1       3.799  -1.847  -2.937  0.00  0.00    -0.238 NA
ATOM     35  C   UNL     1       4.443  -1.929  -4.069  0.00  0.00    +0.113 A 
ATOM     36  H   UNL     1       2.767  -1.085  -0.471  0.00  0.00    +0.161 HD
ENDBRANCH  20  30
ENDBRANCH   1  23
BRANCH   1  37
ATOM     37  C   UNL     1       8.092   6.391  -1.227  0.00  0.00    +0.141 C 
BRANCH  37  38
ATOM     38  O   UNL     1       9.126   5.408  -1.150  0.00  0.00    -0.397 OA
ATOM     39  H   UNL     1       9.764   5.451  -1.875  0.00  0.00    +0.209 HD
ENDBRANCH  37  38
ENDBRANCH   1  37
TORSDOF 7
