REMARK  Name = ZINC59446867
REMARK  5 active torsions:
REMARK  status: ('A' for Active; 'I' for Inactive)
REMARK    1  A    between atoms: C_4  and  C_7
REMARK    2  A    between atoms: C_7  and  O_9
REMARK    3  A    between atoms: O_9  and  N_10
REMARK    4  A    between atoms: C_11  and  C_22
REMARK    5  A    between atoms: C_26  and  N_28
REMARK                            x       y       z     vdW  Elec       q    Type
REMARK                         _______ _______ _______ _____ _____    ______ ____
ROOT
ATOM      1  N   UNL     1       5.019  -2.583  -0.060  0.00  0.00    -0.102 N 
ATOM      2  C   UNL     1       5.670  -2.851  -1.343  0.00  0.00    +0.232 C 
ATOM      3  N   UNL     1       7.125  -2.702  -1.217  0.00  0.00    -0.319 N 
ATOM      4  C   UNL     1       7.756  -3.256  -0.109  0.00  0.00    +0.041 A 
ATOM      5  C   UNL     1       9.063  -3.707  -0.159  0.00  0.00    +0.024 A 
ATOM      6  C   UNL     1       9.642  -4.253   0.971  0.00  0.00    +0.002 A 
ATOM      7  C   UNL     1       8.924  -4.353   2.152  0.00  0.00    +0.001 A 
ATOM      8  C   UNL     1       7.620  -3.907   2.219  0.00  0.00    +0.015 A 
ATOM      9  C   UNL     1       7.026  -3.353   1.089  0.00  0.00    +0.061 A 
ATOM     10  C   UNL     1       5.640  -2.848   1.107  0.00  0.00    +0.282 C 
ATOM     11  O   UNL     1       5.062  -2.677   2.164  0.00  0.00    -0.267 OA
ATOM     12  H   UNL     1       7.635  -2.228  -1.892  0.00  0.00    +0.148 HD
ENDROOT
BRANCH   2  13
ATOM     13  C   UNL     1       5.351  -4.259  -1.778  0.00  0.00    -0.004 A 
ATOM     14  C   UNL     1       4.152  -4.841  -1.412  0.00  0.00    +0.007 A 
ATOM     15  C   UNL     1       3.860  -6.132  -1.811  0.00  0.00    +0.003 A 
ATOM     16  C   UNL     1       4.768  -6.840  -2.577  0.00  0.00    +0.033 A 
ATOM     17  C   UNL     1       5.966  -6.258  -2.944  0.00  0.00    +0.127 A 
ATOM     18  C   UNL     1       6.256  -4.965  -2.548  0.00  0.00    +0.040 A 
BRANCH  17  19
ATOM     19  N   UNL     1       6.938  -7.017  -3.763  0.00  0.00    +0.056 N 
ATOM     20  O   UNL     1       6.683  -8.146  -4.111  0.00  0.00    -0.126 OA
ATOM     21  O   UNL     1       7.986  -6.507  -4.083  0.00  0.00    -0.126 OA
ENDBRANCH  17  19
ENDBRANCH   2  13
BRANCH   1  22
ATOM     22  O   UNL     1       3.717  -2.028  -0.045  0.00  0.00    -0.337 OA
BRANCH  22  23
ATOM     23  C   UNL     1       3.695  -0.684  -0.037  0.00  0.00    +0.362 C 
ATOM     24  O   UNL     1       4.737  -0.059  -0.044  0.00  0.00    -0.243 OA
BRANCH  23  28
ATOM     25  C   UNL     1      -0.017   1.379   0.010  0.00  0.00    +0.000 A 
ATOM     26  C   UNL     1       1.168   2.094   0.002  0.00  0.00    +0.001 A 
ATOM     27  C   UNL     1       2.377   1.430  -0.013  0.00  0.00    +0.015 A 
ATOM     28  C   UNL     1       2.404   0.034  -0.021  0.00  0.00    +0.061 A 
ATOM     29  C   UNL     1       1.204  -0.681  -0.013  0.00  0.00    +0.015 A 
ATOM     30  C   UNL     1       0.002  -0.004   0.002  0.00  0.00    +0.001 A 
ENDBRANCH  23  28
ENDBRANCH  22  23
ENDBRANCH   1  22
TORSDOF 5
