REMARK  Name = ZINC43526821
REMARK  12 active torsions:
REMARK  status: ('A' for Active; 'I' for Inactive)
REMARK    1  A    between atoms: C_1  and  N_2
REMARK    2  A    between atoms: N_2  and  C_3
REMARK    3  A    between atoms: N_2  and  C_10
REMARK    4  A    between atoms: C_3  and  C_4
REMARK    5  A    between atoms: C_10  and  C_11
REMARK    6  A    between atoms: C_20  and  C_22
REMARK    7  A    between atoms: C_22  and  N_23
REMARK    8  A    between atoms: N_23  and  C_24
REMARK    9  A    between atoms: C_24  and  N_26
REMARK   10  A    between atoms: N_26  and  C_27
REMARK   11  A    between atoms: C_27  and  C_28
REMARK   12  A    between atoms: C_28  and  N_29
REMARK                            x       y       z     vdW  Elec       q    Type
REMARK                         _______ _______ _______ _____ _____    ______ ____
ROOT
ATOM      1  C   UNL     1       2.159  -0.053  -1.157  0.00  0.00    -0.041 C 
ATOM      2  C   UNL     1       2.859  -0.764   0.003  0.00  0.00    -0.076 C 
ATOM      3  N   UNL     1       3.960  -1.586  -0.503  0.00  0.00    +0.383 N 
ATOM      4  C   UNL     1       3.457  -2.620  -1.411  0.00  0.00    -0.078 C 
ATOM      5  C   UNL     1       2.776  -1.971  -2.618  0.00  0.00    -0.015 C 
ATOM      6  C   UNL     1       2.851  -0.443  -2.470  0.00  0.00    -0.015 C 
ATOM      7  C   UNL     1       4.328  -0.039  -2.376  0.00  0.00    -0.010 C 
ATOM      8  C   UNL     1       4.960  -0.752  -1.175  0.00  0.00    -0.051 C 
ATOM      9  H   UNL     1       4.402  -2.046   0.279  0.00  0.00    -0.081 HD
ENDROOT
BRANCH   1  10
ATOM     10  C   UNL     1       0.690  -0.478  -1.207  0.00  0.00    -0.077 C 
BRANCH  10  12
ATOM     11  C   UNL     1      -0.018   1.465   0.010  0.00  0.00    -0.096 C 
ATOM     12  N   UNL     1       0.002  -0.004   0.002  0.00  0.00    +0.381 N 
ATOM     13  H   UNL     1       0.490  -0.338   0.820  0.00  0.00    -0.082 HD
BRANCH  12  14
ATOM     14  C   UNL     1      -1.376  -0.512   0.012  0.00  0.00    -0.043 C 
BRANCH  14  15
ATOM     15  C   UNL     1      -2.043  -0.130   1.309  0.00  0.00    -0.064 A 
ATOM     16  C   UNL     1      -1.964  -0.973   2.402  0.00  0.00    +0.002 A 
ATOM     17  C   UNL     1      -2.575  -0.622   3.591  0.00  0.00    +0.000 A 
ATOM     18  C   UNL     1      -3.266   0.572   3.687  0.00  0.00    +0.000 A 
ATOM     19  C   UNL     1      -3.344   1.415   2.594  0.00  0.00    +0.000 A 
ATOM     20  C   UNL     1      -2.729   1.066   1.406  0.00  0.00    +0.002 A 
ENDBRANCH  14  15
ENDBRANCH  12  14
ENDBRANCH  10  12
ENDBRANCH   1  10
BRANCH   8  21
ATOM     21  C   UNL     1       6.115  -1.633  -1.656  0.00  0.00    +0.088 C 
BRANCH  21  22
ATOM     22  N   UNL     1       6.652  -2.394  -0.526  0.00  0.00    -0.328 N 
ATOM     23  H   UNL     1       6.266  -2.288   0.358  0.00  0.00    +0.148 HD
BRANCH  22  24
ATOM     24  C   UNL     1       7.683  -3.243  -0.713  0.00  0.00    +0.130 C 
ATOM     25  S   UNL     1       8.364  -3.430  -2.273  0.00  0.00    -0.019 S 
BRANCH  24  26
ATOM     26  N   UNL     1       8.177  -3.943   0.327  0.00  0.00    -0.325 N 
ATOM     27  H   UNL     1       7.791  -3.837   1.210  0.00  0.00    +0.148 HD
BRANCH  26  28
ATOM     28  C   UNL     1       9.297  -4.865   0.123  0.00  0.00    +0.118 C 
BRANCH  28  29
ATOM     29  C   UNL     1       9.661  -5.528   1.453  0.00  0.00    +0.103 C 
BRANCH  29  30
ATOM     30  N   UNL     1      10.784  -6.452   1.248  0.00  0.00    -0.297 NA
ATOM     31  C   UNL     1      10.386  -7.584   0.398  0.00  0.00    +0.112 C 
ATOM     32  C   UNL     1      11.599  -8.489   0.162  0.00  0.00    +0.175 C 
ATOM     33  O   UNL     1      12.121  -8.916   1.423  0.00  0.00    -0.377 OA
ATOM     34  C   UNL     1      12.519  -7.839   2.276  0.00  0.00    +0.175 C 
ATOM     35  C   UNL     1      11.316  -6.928   2.534  0.00  0.00    +0.112 C 
ENDBRANCH  29  30
ENDBRANCH  28  29
ENDBRANCH  26  28
ENDBRANCH  24  26
ENDBRANCH  22  24
ENDBRANCH  21  22
ENDBRANCH   8  21
TORSDOF 11
