REMARK  Name = ZINC65506937
REMARK  6 active torsions:
REMARK  status: ('A' for Active; 'I' for Inactive)
REMARK    1  A    between atoms: C_1  and  C_2
REMARK    2  A    between atoms: C_4  and  CA_9
REMARK    3  A    between atoms: C_5  and  C_8
REMARK    4  A    between atoms: CA_9  and  C_11
REMARK    5  A    between atoms: CA_9  and  N_14
REMARK    6  A    between atoms: C_15  and  CA_17
REMARK                            x       y       z     vdW  Elec       q    Type
REMARK                         _______ _______ _______ _____ _____    ______ ____
ROOT
ATOM      1  N   UNL     1      -2.778   1.052  -0.979  0.00  0.00    -0.297 N 
ATOM      2  C   UNL     1      -4.011   1.548  -1.199  0.00  0.00    +0.240 C 
ATOM      3  O   UNL     1      -4.976   0.815  -1.157  0.00  0.00    -0.273 OA
ATOM      4  H   UNL     1      -2.006   1.639  -1.013  0.00  0.00    +0.150 HD
ENDROOT
BRANCH   2   5
ATOM      5  CA  UNL     1      -4.192   3.014  -1.497  0.00  0.00    +0.190 C 
ATOM      6  C   UNL     1      -3.730   3.846  -0.322  0.00  0.00    +0.016 C 
ATOM      7  C   UNL     1      -4.813   4.540   0.095  0.00  0.00    -0.004 A 
ATOM      8  C   UNL     1      -5.017   5.509   1.179  0.00  0.00    +0.010 A 
ATOM      9  C   UNL     1      -6.245   6.048   1.355  0.00  0.00    +0.001 A 
ATOM     10  C   UNL     1      -7.325   5.706   0.530  0.00  0.00    +0.002 A 
ATOM     11  C   UNL     1      -7.215   4.824  -0.486  0.00  0.00    +0.026 A 
ATOM     12  C   UNL     1      -5.970   4.196  -0.762  0.00  0.00    +0.043 A 
ATOM     13  N   UNL     1      -5.615   3.323  -1.675  0.00  0.00    -0.370 N 
ATOM     14  H   UNL     1      -6.196   2.944  -2.354  0.00  0.00    +0.161 HD
ENDBRANCH   2   5
BRANCH   1  15
ATOM     15  CA  UNL     1      -2.602  -0.373  -0.689  0.00  0.00    +0.217 C 
BRANCH  15  18
ATOM     16  C   UNL     1       0.190   1.335  -0.458  0.00  0.00    +0.039 C 
ATOM     17  C   UNL     1       0.079  -0.180  -0.276  0.00  0.00    +0.155 C 
ATOM     18  C   UNL     1      -1.338  -0.572   0.106  0.00  0.00    +0.010 C 
ATOM     19  C   UNL     1      -1.203  -1.134   1.309  0.00  0.00    +0.064 C 
ATOM     20  N   UNL     1       0.092  -1.131   1.698  0.00  0.00    -0.159 NA
ATOM     21  N   UNL     1       0.873  -0.625   0.882  0.00  0.00    -0.180 NA
ATOM     22  C   UNL     1      -2.339  -1.694   2.124  0.00  0.00    +0.067 C 
ENDBRANCH  15  18
BRANCH  15  23
ATOM     23  C   UNL     1      -2.509  -1.141  -1.982  0.00  0.00    +0.380 C 
ATOM     24  O   UNL     1      -2.899  -2.295  -2.036  0.00  0.00    -0.244 OA
ATOM     25  OXT UNL     1      -2.043  -0.608  -2.975  0.00  0.00    -0.244 OA
ENDBRANCH  15  23
ENDBRANCH   1  15
TORSDOF 4
