REMARK  Name = ZINC39669512
REMARK  4 active torsions:
REMARK  status: ('A' for Active; 'I' for Inactive)
REMARK    1  A    between atoms: C_11  and  C_14
REMARK    2  A    between atoms: C_14  and  N_15
REMARK    3  A    between atoms: C_16  and  C_18
REMARK    4  A    between atoms: C_29  and  C_31
REMARK                            x       y       z     vdW  Elec       q    Type
REMARK                         _______ _______ _______ _____ _____    ______ ____
ROOT
ATOM      1  C   UNL     1       0.930  -6.582   0.961  0.00  0.00    +0.100 C 
ATOM      2  C   UNL     1       0.977  -6.511   2.504  0.00  0.00    +0.121 C 
ATOM      3  N   UNL     1       0.332  -7.766   2.956  0.00  0.00    -0.300 N 
ATOM      4  C   UNL     1       0.818  -8.794   2.005  0.00  0.00    +0.115 C 
ATOM      5  C   UNL     1       0.827  -8.082   0.638  0.00  0.00    -0.004 C 
ATOM      6  C   UNL     1      -0.468  -8.373  -0.116  0.00  0.00    -0.010 C 
ATOM      7  C   UNL     1      -0.521  -9.860  -0.475  0.00  0.00    -0.082 C 
ATOM      8  N   UNL     1       0.640 -10.207  -1.304  0.00  0.00    +0.379 N 
ATOM      9  C   UNL     1       1.878 -10.012  -0.539  0.00  0.00    -0.082 C 
ATOM     10  C   UNL     1       2.032  -8.531  -0.182  0.00  0.00    -0.010 C 
ATOM     11  C   UNL     1      -0.507  -7.935   3.997  0.00  0.00    +0.219 C 
ATOM     12  O   UNL     1      -0.877  -6.975   4.640  0.00  0.00    -0.275 OA
ATOM     13  H   UNL     1       0.571 -11.172  -1.590  0.00  0.00    -0.086 HD
ATOM     14  H   UNL     1       0.656  -9.617  -2.123  0.00  0.00    -0.086 HD
ENDROOT
BRANCH  11  15
ATOM     15  C   UNL     1      -0.987  -9.316   4.363  0.00  0.00    +0.079 C 
ATOM     16  C   UNL     1      -2.333  -9.219   5.091  0.00  0.00    +0.017 C 
ATOM     17  C   UNL     1      -2.879 -10.634   5.290  0.00  0.00    +0.027 C 
ATOM     18  C   UNL     1      -1.820 -11.519   5.880  0.00  0.00    -0.031 C 
ATOM     19  C   UNL     1      -0.556 -11.236   5.881  0.00  0.00    -0.030 C 
ATOM     20  C   UNL     1       0.027  -9.982   5.296  0.00  0.00    +0.039 C 
ENDBRANCH  11  15
BRANCH   1  22
ATOM     21  N   UNL     1       2.167  -5.451  -0.858  0.00  0.00    -0.315 N 
ATOM     22  C   UNL     1       2.191  -6.004   0.370  0.00  0.00    +0.218 C 
ATOM     23  O   UNL     1       3.226  -6.037   1.001  0.00  0.00    -0.275 OA
ATOM     24  H   UNL     1       1.339  -5.425  -1.362  0.00  0.00    +0.149 HD
BRANCH  21  25
ATOM     25  C   UNL     1       3.392  -4.889  -1.432  0.00  0.00    +0.109 C 
BRANCH  25  36
ATOM     26  C   UNL     1      -0.886  -5.562  -7.209  0.00  0.00    +0.039 A 
ATOM     27  C   UNL     1       0.161  -4.845  -7.765  0.00  0.00    +0.116 A 
ATOM     28  N   UNL     1       1.263  -4.659  -7.059  0.00  0.00    -0.223 NA
ATOM     29  C   UNL     1       1.373  -5.151  -5.833  0.00  0.00    +0.218 A 
ATOM     30  N   UNL     1       0.391  -5.841  -5.272  0.00  0.00    -0.223 NA
ATOM     31  C   UNL     1      -0.738  -6.062  -5.924  0.00  0.00    +0.116 A 
ATOM     32  N   UNL     1       2.541  -4.937  -5.122  0.00  0.00    -0.299 N 
ATOM     33  C   UNL     1       3.647  -4.171  -5.711  0.00  0.00    +0.108 C 
ATOM     34  C   UNL     1       4.031  -3.041  -4.751  0.00  0.00    +0.019 C 
ATOM     35  C   UNL     1       4.340  -3.631  -3.373  0.00  0.00    +0.008 C 
ATOM     36  C   UNL     1       3.093  -4.329  -2.824  0.00  0.00    +0.024 C 
ATOM     37  C   UNL     1       2.696  -5.468  -3.760  0.00  0.00    +0.113 C 
ENDBRANCH  25  36
ENDBRANCH  21  25
ENDBRANCH   1  22
TORSDOF 4
