REMARK  Name = ZINC39635884
REMARK  5 active torsions:
REMARK  status: ('A' for Active; 'I' for Inactive)
REMARK    1  A    between atoms: C_1  and  C_2
REMARK    2  A    between atoms: C_8  and  N_10
REMARK    3  A    between atoms: C_11  and  C_13
REMARK    4  A    between atoms: C_24  and  C_26
REMARK    5  A    between atoms: C_26  and  C_32
REMARK                            x       y       z     vdW  Elec       q    Type
REMARK                         _______ _______ _______ _____ _____    ______ ____
ROOT
ATOM      1  C   UNL     1       0.024   0.564   4.862  0.00  0.00    +0.100 C 
ATOM      2  C   UNL     1      -0.391   2.043   4.691  0.00  0.00    +0.121 C 
ATOM      3  N   UNL     1      -0.175   2.649   6.026  0.00  0.00    -0.300 N 
ATOM      4  C   UNL     1       1.081   2.031   6.513  0.00  0.00    +0.115 C 
ATOM      5  C   UNL     1       0.991   0.561   6.058  0.00  0.00    -0.004 C 
ATOM      6  C   UNL     1       2.364   0.057   5.626  0.00  0.00    -0.010 C 
ATOM      7  C   UNL     1       3.291   0.008   6.844  0.00  0.00    -0.082 C 
ATOM      8  N   UNL     1       2.719  -0.883   7.861  0.00  0.00    +0.379 N 
ATOM      9  C   UNL     1       1.441  -0.341   8.338  0.00  0.00    -0.082 C 
ATOM     10  C   UNL     1       0.436  -0.306   7.184  0.00  0.00    -0.010 C 
ATOM     11  C   UNL     1      -0.948   3.557   6.655  0.00  0.00    +0.222 C 
ATOM     12  O   UNL     1      -0.593   4.022   7.717  0.00  0.00    -0.275 OA
ATOM     13  H   UNL     1       2.567  -1.796   7.460  0.00  0.00    -0.086 HD
ATOM     14  H   UNL     1       3.360  -0.962   8.636  0.00  0.00    -0.086 HD
ENDROOT
BRANCH  11  15
ATOM     15  C   UNL     1      -2.252   3.993   6.039  0.00  0.00    +0.044 C 
ATOM     16  C   UNL     1      -1.998   4.514   4.623  0.00  0.00    +0.016 C 
ATOM     17  C   UNL     1      -1.039   5.704   4.682  0.00  0.00    +0.001 C 
ATOM     18  C   UNL     1      -1.658   6.816   5.531  0.00  0.00    +0.000 C 
ATOM     19  C   UNL     1      -1.911   6.295   6.947  0.00  0.00    +0.001 C 
ATOM     20  C   UNL     1      -2.871   5.105   6.889  0.00  0.00    +0.016 C 
ATOM     21  C   UNL     1      -3.211   2.802   5.980  0.00  0.00    +0.021 C 
ENDBRANCH  11  15
BRANCH   1  23
ATOM     22  N   UNL     1       0.798  -1.255   3.375  0.00  0.00    -0.312 N 
ATOM     23  C   UNL     1       0.722   0.068   3.622  0.00  0.00    +0.218 C 
ATOM     24  O   UNL     1       1.215   0.859   2.846  0.00  0.00    -0.275 OA
ATOM     25  H   UNL     1       0.403  -1.888   3.996  0.00  0.00    +0.149 HD
BRANCH  22  32
ATOM     26  C   UNL     1      -0.580  -2.998   1.517  0.00  0.00    +0.009 C 
ATOM     27  C   UNL     1       0.922  -3.111   1.788  0.00  0.00    +0.006 C 
ATOM     28  C   UNL     1       1.630  -3.615   0.529  0.00  0.00    +0.005 C 
ATOM     29  C   UNL     1       3.132  -3.729   0.800  0.00  0.00    +0.000 C 
ATOM     30  C   UNL     1       3.686  -2.355   1.182  0.00  0.00    +0.002 C 
ATOM     31  C   UNL     1       2.978  -1.851   2.441  0.00  0.00    +0.022 C 
ATOM     32  C   UNL     1       1.476  -1.738   2.170  0.00  0.00    +0.076 C 
ENDBRANCH  22  32
ENDBRANCH   1  23
TORSDOF 3
