REMARK  Name = ZINC36216366
REMARK  8 active torsions:
REMARK  status: ('A' for Active; 'I' for Inactive)
REMARK    1  A    between atoms: C_1  and  C_2
REMARK    2  A    between atoms: C_5  and  C_8
REMARK    3  A    between atoms: N_10  and  C_11
REMARK    4  A    between atoms: C_14  and  C_17
REMARK    5  A    between atoms: C_19  and  C_32
REMARK    6  A    between atoms: N_21  and  C_25
REMARK    7  A    between atoms: C_25  and  C_26
REMARK    8  A    between atoms: N_34  and  C_35
REMARK                            x       y       z     vdW  Elec       q    Type
REMARK                         _______ _______ _______ _____ _____    ______ ____
ROOT
ATOM      1  C   UNL     1       0.610 -10.706   1.110  0.00  0.00    +0.238 C 
ATOM      2  C   UNL     1       2.108 -11.041   1.304  0.00  0.00    +0.211 C 
ATOM      3  N   UNL     1       2.187 -11.286   2.758  0.00  0.00    -0.248 N 
ATOM      4  C   UNL     1       0.931 -11.437   3.218  0.00  0.00    +0.405 C 
ATOM      5  O   UNL     1       0.661 -11.624   4.388  0.00  0.00    -0.226 OA
ATOM      6  O   UNL     1       0.006 -11.357   2.245  0.00  0.00    -0.440 OA
ENDROOT
BRANCH   1  10
ATOM      7  C   UNL     1      -0.039  -6.484   1.251  0.00  0.00    +0.034 A 
ATOM      8  C   UNL     1      -0.033  -7.147   0.030  0.00  0.00    +0.024 A 
ATOM      9  C   UNL     1       0.177  -8.511  -0.011  0.00  0.00    +0.009 A 
ATOM     10  C   UNL     1       0.381  -9.217   1.160  0.00  0.00    -0.005 A 
ATOM     11  C   UNL     1       0.375  -8.560   2.377  0.00  0.00    +0.009 A 
ATOM     12  C   UNL     1       0.172  -7.195   2.425  0.00  0.00    +0.024 A 
BRANCH   7  15
ATOM     13  C   UNL     1       0.400  -4.351   2.207  0.00  0.00    +0.248 C 
ATOM     14  O   UNL     1       1.105  -4.882   3.042  0.00  0.00    -0.270 OA
ATOM     15  N   UNL     1      -0.251  -5.102   1.297  0.00  0.00    -0.282 N 
ATOM     16  H   UNL     1      -0.866  -4.685   0.674  0.00  0.00    +0.155 HD
BRANCH  13  21
ATOM     17  C   UNL     1      -0.164   1.376   2.140  0.00  0.00    +0.044 C 
ATOM     18  C   UNL     1      -0.016  -0.124   2.158  0.00  0.00    -0.050 A 
ATOM     19  C   UNL     1       0.787  -0.726   3.110  0.00  0.00    +0.004 A 
ATOM     20  C   UNL     1       0.927  -2.098   3.131  0.00  0.00    +0.013 A 
ATOM     21  C   UNL     1       0.255  -2.880   2.190  0.00  0.00    +0.037 A 
ATOM     22  C   UNL     1      -0.555  -2.266   1.233  0.00  0.00    +0.013 A 
ATOM     23  C   UNL     1      -0.690  -0.893   1.226  0.00  0.00    +0.004 A 
ENDBRANCH  13  21
ENDBRANCH   7  15
ENDBRANCH   1  10
BRANCH   2  24
ATOM     24  C   UNL     1       2.486 -12.276   0.527  0.00  0.00    +0.242 C 
ATOM     25  O   UNL     1       2.572 -13.346   1.092  0.00  0.00    -0.273 OA
ATOM     26  N   UNL     1       2.729 -12.191  -0.796  0.00  0.00    -0.284 N 
ATOM     27  H   UNL     1       2.732 -11.325  -1.234  0.00  0.00    +0.155 HD
BRANCH  26  28
ATOM     28  C   UNL     1       2.975 -13.352  -1.539  0.00  0.00    +0.034 A 
ATOM     29  C   UNL     1       3.856 -13.318  -2.611  0.00  0.00    +0.026 A 
ATOM     30  C   UNL     1       4.098 -14.464  -3.342  0.00  0.00    +0.040 A 
ATOM     31  C   UNL     1       3.462 -15.647  -3.007  0.00  0.00    +0.124 A 
ATOM     32  C   UNL     1       2.583 -15.684  -1.937  0.00  0.00    +0.040 A 
ATOM     33  C   UNL     1       2.344 -14.541  -1.200  0.00  0.00    +0.026 A 
ATOM     34  F   UNL     1       3.700 -16.768  -3.724  0.00  0.00    -0.205 F 
ENDBRANCH  26  28
ENDBRANCH   2  24
BRANCH   3  35
ATOM     35  C   UNL     1       3.413 -11.352   3.557  0.00  0.00    +0.147 C 
BRANCH  35  36
ATOM     36  C   UNL     1       3.753  -9.977   4.071  0.00  0.00    -0.030 A 
ATOM     37  C   UNL     1       4.556  -9.138   3.321  0.00  0.00    +0.005 A 
ATOM     38  C   UNL     1       4.868  -7.877   3.792  0.00  0.00    +0.000 A 
ATOM     39  C   UNL     1       4.377  -7.454   5.013  0.00  0.00    +0.000 A 
ATOM     40  C   UNL     1       3.573  -8.292   5.762  0.00  0.00    +0.000 A 
ATOM     41  C   UNL     1       3.257  -9.552   5.289  0.00  0.00    +0.005 A 
ENDBRANCH  35  36
ENDBRANCH   3  35
TORSDOF 7
