REMARK  Name = ZINC64202889
REMARK  10 active torsions:
REMARK  status: ('A' for Active; 'I' for Inactive)
REMARK    1  A    between atoms: C_1  and  O_2
REMARK    2  A    between atoms: O_2  and  C_3
REMARK    3  A    between atoms: C_6  and  C_9
REMARK    4  A    between atoms: C_9  and  C_11
REMARK    5  A    between atoms: C_9  and  C_27
REMARK    6  A    between atoms: C_11  and  N_12
REMARK    7  A    between atoms: C_13  and  C_15
REMARK    8  A    between atoms: C_15  and  N_16
REMARK    9  A    between atoms: N_20  and  S_23
REMARK   10  A    between atoms: S_23  and  C_26
REMARK                            x       y       z     vdW  Elec       q    Type
REMARK                         _______ _______ _______ _____ _____    ______ ____
ROOT
ATOM      1  C   UNL     1      -4.981  -2.629   0.035  0.00  0.00    +0.064 C 
ENDROOT
BRANCH   1   2
ATOM      2  C   UNL     1      -5.085  -3.493   1.265  0.00  0.00    -0.033 C 
ATOM      3  C   UNL     1      -6.013  -3.404   2.245  0.00  0.00    -0.000 A 
ATOM      4  C   UNL     1      -7.158  -2.509   2.452  0.00  0.00    +0.010 A 
ATOM      5  C   UNL     1      -7.923  -2.666   3.557  0.00  0.00    +0.001 A 
ATOM      6  C   UNL     1      -7.649  -3.660   4.507  0.00  0.00    +0.002 A 
ATOM      7  C   UNL     1      -6.615  -4.519   4.386  0.00  0.00    +0.026 A 
ATOM      8  C   UNL     1      -5.746  -4.445   3.263  0.00  0.00    +0.043 A 
ATOM      9  N   UNL     1      -4.694  -5.151   2.926  0.00  0.00    -0.380 N 
ATOM     10  C   UNL     1      -4.178  -4.640   1.651  0.00  0.00    +0.145 C 
ATOM     11  H   UNL     1      -4.322  -5.889   3.432  0.00  0.00    +0.160 HD
ENDBRANCH   1   2
BRANCH   1  15
ATOM     12  C   UNL     1      -1.200  -0.637   0.010  0.00  0.00    +0.120 A 
ATOM     13  C   UNL     1      -2.375   0.101   0.019  0.00  0.00    +0.046 A 
ATOM     14  C   UNL     1      -3.596  -0.545   0.027  0.00  0.00    +0.008 A 
ATOM     15  C   UNL     1      -3.648  -1.927   0.026  0.00  0.00    -0.038 A 
ATOM     16  C   UNL     1      -2.479  -2.665   0.017  0.00  0.00    +0.008 A 
ATOM     17  C   UNL     1      -1.255  -2.024   0.003  0.00  0.00    +0.046 A 
BRANCH  12  19
ATOM     18  C   UNL     1      -0.017   1.425   0.010  0.00  0.00    +0.277 C 
ATOM     19  O   UNL     1       0.002  -0.004   0.002  0.00  0.00    -0.495 OA
ENDBRANCH  12  19
ENDBRANCH   1  15
BRANCH   1  20
ATOM     20  C   UNL     1      -5.105  -3.504  -1.214  0.00  0.00    +0.116 C 
BRANCH  20  21
ATOM     21  N   UNL     1      -6.446  -4.093  -1.267  0.00  0.00    -0.316 N 
ATOM     22  C   UNL     1      -6.785  -4.905  -2.287  0.00  0.00    +0.196 C 
ATOM     23  O   UNL     1      -5.981  -5.149  -3.162  0.00  0.00    -0.278 OA
ATOM     24  H   UNL     1      -7.089  -3.898  -0.568  0.00  0.00    +0.149 HD
BRANCH  22  25
ATOM     25  C   UNL     1      -8.164  -5.511  -2.341  0.00  0.00    +0.019 C 
BRANCH  25  26
ATOM     26  N   UNL     1      -8.283  -6.351  -3.541  0.00  0.00    +0.386 N 
ATOM     27  C   UNL     1      -7.473  -7.538  -3.407  0.00  0.00    -0.077 C 
ATOM     28  C   UNL     1      -6.804  -7.872  -4.762  0.00  0.00    -0.001 C 
ATOM     29  C   UNL     1      -7.786  -7.593  -5.923  0.00  0.00    +0.107 C 
ATOM     30  N   UNL     1      -9.150  -7.998  -5.711  0.00  0.00    -0.183 NA
ATOM     31  C   UNL     1     -10.102  -7.032  -5.064  0.00  0.00    +0.090 C 
ATOM     32  C   UNL     1      -9.647  -6.853  -3.678  0.00  0.00    -0.061 C 
ATOM     33  H   UNL     1      -8.016  -5.829  -4.362  0.00  0.00    -0.081 HD
BRANCH  30  34
ATOM     34  S   UNL     1      -9.663  -9.504  -6.171  0.00  0.00    +0.029 S 
ATOM     35  O   UNL     1     -11.057  -9.358  -6.400  0.00  0.00    -0.158 OA
ATOM     36  O   UNL     1      -8.790  -9.876  -7.229  0.00  0.00    -0.158 OA
ATOM     37  C   UNL     1      -9.374 -10.557  -4.723  0.00  0.00    +0.215 C 
ENDBRANCH  30  34
ENDBRANCH  25  26
ENDBRANCH  22  25
ENDBRANCH  20  21
ENDBRANCH   1  20
TORSDOF 8
