REMARK  Name = ZINC05106916
REMARK  8 active torsions:
REMARK  status: ('A' for Active; 'I' for Inactive)
REMARK    1  A    between atoms: C_1  and  C_2
REMARK    2  A    between atoms: C_2  and  O_3
REMARK    3  A    between atoms: O_3  and  C_4
REMARK    4  A    between atoms: C_9  and  N_10
REMARK    5  A    between atoms: C_11  and  C_13
REMARK    6  A    between atoms: C_14  and  N_22
REMARK    7  A    between atoms: C_23  and  C_25
REMARK    8  A    between atoms: C_30  and  C_31
REMARK                            x       y       z     vdW  Elec       q    Type
REMARK                         _______ _______ _______ _____ _____    ______ ____
ROOT
ATOM      1  C   UNL     1      -0.607   3.652  -0.567  0.00  0.00    +0.212 A 
ATOM      2  C   UNL     1       0.753   3.776  -0.653  0.00  0.00    +0.092 A 
ATOM      3  C   UNL     1       1.251   2.462  -1.075  0.00  0.00    +0.042 A 
ATOM      4  C   UNL     1       2.519   1.943  -1.338  0.00  0.00    +0.013 A 
ATOM      5  C   UNL     1       2.651   0.638  -1.724  0.00  0.00    +0.001 A 
ATOM      6  C   UNL     1       1.532  -0.172  -1.856  0.00  0.00    +0.004 A 
ATOM      7  C   UNL     1       0.271   0.322  -1.601  0.00  0.00    +0.047 A 
ATOM      8  C   UNL     1       0.113   1.646  -1.207  0.00  0.00    +0.138 A 
ATOM      9  O   UNL     1      -0.967   2.392  -0.901  0.00  0.00    -0.448 OA
ENDROOT
BRANCH   1  11
ATOM     10  N   UNL     1      -2.841   4.452  -0.030  0.00  0.00    -0.276 N 
ATOM     11  C   UNL     1      -1.529   4.718  -0.179  0.00  0.00    +0.286 C 
ATOM     12  O   UNL     1      -1.111   5.846   0.009  0.00  0.00    -0.266 OA
ATOM     13  H   UNL     1      -3.167   3.543  -0.130  0.00  0.00    +0.155 HD
BRANCH  10  19
ATOM     14  C   UNL     1      -5.048   5.433  -0.195  0.00  0.00    +0.142 A 
ATOM     15  C   UNL     1      -5.928   6.460   0.105  0.00  0.00    +0.047 A 
ATOM     16  C   UNL     1      -5.504   7.535   0.865  0.00  0.00    +0.004 A 
ATOM     17  C   UNL     1      -4.202   7.589   1.326  0.00  0.00    +0.002 A 
ATOM     18  C   UNL     1      -3.319   6.566   1.036  0.00  0.00    +0.027 A 
ATOM     19  C   UNL     1      -3.736   5.487   0.270  0.00  0.00    +0.076 A 
BRANCH  14  20
ATOM     20  O   UNL     1      -5.464   4.375  -0.941  0.00  0.00    -0.490 OA
BRANCH  20  22
ATOM     21  C   UNL     1      -7.104   3.125  -2.201  0.00  0.00    +0.048 C 
ATOM     22  C   UNL     1      -6.823   4.387  -1.383  0.00  0.00    +0.226 C 
ENDBRANCH  20  22
ENDBRANCH  14  20
ENDBRANCH  10  19
ENDBRANCH   1  11
BRANCH   2  23
ATOM     23  N   UNL     1       1.507   4.914  -0.394  0.00  0.00    -0.278 N 
ATOM     24  C   UNL     1       2.711   4.802   0.201  0.00  0.00    +0.249 C 
ATOM     25  O   UNL     1       3.180   3.703   0.423  0.00  0.00    -0.270 OA
ATOM     26  H   UNL     1       1.168   5.788  -0.642  0.00  0.00    +0.155 HD
BRANCH  24  27
ATOM     27  C   UNL     1       3.462   6.017   0.584  0.00  0.00    +0.040 A 
ATOM     28  C   UNL     1       2.924   7.281   0.334  0.00  0.00    +0.013 A 
ATOM     29  C   UNL     1       3.627   8.410   0.699  0.00  0.00    +0.001 A 
ATOM     30  C   UNL     1       4.868   8.293   1.300  0.00  0.00    +0.000 A 
ATOM     31  C   UNL     1       5.409   7.043   1.545  0.00  0.00    +0.004 A 
ATOM     32  C   UNL     1       4.714   5.905   1.190  0.00  0.00    -0.038 A 
ATOM     33  C   UNL     1       5.305   4.545   1.457  0.00  0.00    +0.044 C 
ENDBRANCH  24  27
ENDBRANCH   2  23
TORSDOF 6
