REMARK  Name = ZINC59169831
REMARK  15 active torsions:
REMARK  status: ('A' for Active; 'I' for Inactive)
REMARK    1  A    between atoms: C_1  and  C_2
REMARK    2  A    between atoms: C_2  and  C_3
REMARK    3  A    between atoms: C_7  and  C_32
REMARK    4  A    between atoms: C_8  and  N_9
REMARK    5  A    between atoms: N_9  and  C_10
REMARK    6  A    between atoms: C_10  and  N_12
REMARK    7  A    between atoms: N_12  and  C_13
REMARK    8  A    between atoms: N_12  and  C_22
REMARK    9  A    between atoms: C_13  and  C_14
REMARK   10  A    between atoms: C_19  and  O_20
REMARK   11  A    between atoms: O_20  and  C_21
REMARK   12  A    between atoms: C_24  and  C_30
REMARK   13  A    between atoms: C_24  and  C_31
REMARK   14  A    between atoms: C_26  and  C_28
REMARK   15  A    between atoms: C_26  and  C_29
REMARK                            x       y       z     vdW  Elec       q    Type
REMARK                         _______ _______ _______ _____ _____    ______ ____
ROOT
ATOM      1  N   UNL     1      -2.334  -0.388  -3.800  0.00  0.00    -0.305 N 
ENDROOT
BRANCH   1   2
ATOM      2  C   UNL     1      -1.343   0.696  -3.767  0.00  0.00    +0.073 C 
ATOM      3  C   UNL     1       0.000   0.135  -3.296  0.00  0.00    +0.009 C 
ATOM      4  C   UNL     1       1.040   1.254  -3.245  0.00  0.00    -0.072 C 
ATOM      5  N   UNL     1       0.593   2.381  -2.440  0.00  0.00    +0.386 N 
ATOM      6  C   UNL     1      -0.758   2.874  -2.659  0.00  0.00    -0.072 C 
ATOM      7  C   UNL     1      -1.794   1.761  -2.768  0.00  0.00    +0.009 C 
ATOM      8  C   UNL     1      -0.836   3.783  -3.888  0.00  0.00    -0.010 C 
ATOM      9  C   UNL     1      -1.140   3.739  -1.434  0.00  0.00    -0.010 C 
ATOM     10  C   UNL     1       1.431   1.677  -4.661  0.00  0.00    -0.010 C 
ATOM     11  C   UNL     1       2.305   0.673  -2.574  0.00  0.00    -0.010 C 
ATOM     12  H   UNL     1       0.686   2.127  -1.453  0.00  0.00    -0.084 HD
ATOM     13  H   UNL     1       1.246   3.155  -2.581  0.00  0.00    -0.084 HD
ENDBRANCH   1   2
BRANCH   1  14
ATOM     14  C   UNL     1      -2.859  -0.855  -2.650  0.00  0.00    +0.138 C 
ATOM     15  S   UNL     1      -4.136  -1.994  -2.693  0.00  0.00    -0.018 S 
BRANCH  14  16
ATOM     16  N   UNL     1      -2.379  -0.426  -1.466  0.00  0.00    -0.296 N 
ATOM     17  H   UNL     1      -2.870   0.237  -0.956  0.00  0.00    +0.154 HD
BRANCH  16  23
ATOM     18  C   UNL     1      -0.478  -0.249   0.012  0.00  0.00    -0.026 A 
ATOM     19  C   UNL     1       0.709  -0.759   0.501  0.00  0.00    +0.005 A 
ATOM     20  C   UNL     1       1.208  -1.950   0.006  0.00  0.00    +0.001 A 
ATOM     21  C   UNL     1       0.520  -2.634  -0.980  0.00  0.00    +0.005 A 
ATOM     22  C   UNL     1      -0.667  -2.130  -1.473  0.00  0.00    -0.029 A 
ATOM     23  C   UNL     1      -1.174  -0.937  -0.973  0.00  0.00    +0.039 A 
ATOM     24  C   UNL     1      -1.416  -2.876  -2.547  0.00  0.00    +0.045 C 
BRANCH  18  26
ATOM     25  C   UNL     1      -2.023   0.757   1.671  0.00  0.00    +0.009 C 
ATOM     26  C   UNL     1      -1.020   1.049   0.552  0.00  0.00    +0.033 C 
ENDBRANCH  18  26
ENDBRANCH  16  23
ENDBRANCH  14  16
ENDBRANCH   1  14
BRANCH   1  27
ATOM     27  C   UNL     1      -2.751  -0.961  -5.082  0.00  0.00    +0.145 C 
BRANCH  27  28
ATOM     28  C   UNL     1      -3.939  -0.199  -5.610  0.00  0.00    +0.011 A 
ATOM     29  C   UNL     1      -5.214  -0.708  -5.449  0.00  0.00    +0.009 A 
ATOM     30  C   UNL     1      -6.304  -0.010  -5.933  0.00  0.00    +0.001 A 
ATOM     31  C   UNL     1      -6.123   1.200  -6.579  0.00  0.00    +0.004 A 
ATOM     32  C   UNL     1      -4.851   1.713  -6.742  0.00  0.00    +0.046 A 
ATOM     33  C   UNL     1      -3.755   1.016  -6.252  0.00  0.00    +0.125 A 
BRANCH  33  34
ATOM     34  O   UNL     1      -2.503   1.522  -6.406  0.00  0.00    -0.495 OA
ATOM     35  C   UNL     1      -2.389   2.778  -7.078  0.00  0.00    +0.277 C 
ENDBRANCH  33  34
ENDBRANCH  27  28
ENDBRANCH   1  27
TORSDOF 8
