REMARK  Name = ZINC59421122
REMARK  8 active torsions:
REMARK  status: ('A' for Active; 'I' for Inactive)
REMARK    1  A    between atoms: C_1  and  C_2
REMARK    2  A    between atoms: C_2  and  C_3
REMARK    3  A    between atoms: C_2  and  C_4
REMARK    4  A    between atoms: C_2  and  C_5
REMARK    5  A    between atoms: C_8  and  C_11
REMARK    6  A    between atoms: N_13  and  N_14
REMARK    7  A    between atoms: C_15  and  C_16
REMARK    8  A    between atoms: C_18  and  N_24
REMARK                            x       y       z     vdW  Elec       q    Type
REMARK                         _______ _______ _______ _____ _____    ______ ____
ROOT
ATOM      1  C   UNL     1       2.695  -1.860  -4.732  0.00  0.00    +0.263 C 
ATOM      2  O   UNL     1       2.105  -2.559  -5.533  0.00  0.00    -0.268 OA
ATOM      3  N   UNL     1       3.981  -1.520  -4.953  0.00  0.00    -0.203 N 
ATOM      4  H   UNL     1       4.452  -0.962  -4.315  0.00  0.00    +0.178 HD
ENDROOT
BRANCH   1   8
ATOM      5  C   UNL     1       0.707  -0.490  -1.238  0.00  0.00    -0.042 A 
ATOM      6  C   UNL     1       0.033  -1.285  -2.147  0.00  0.00    +0.005 A 
ATOM      7  C   UNL     1       0.672  -1.733  -3.284  0.00  0.00    +0.013 A 
ATOM      8  C   UNL     1       2.003  -1.383  -3.517  0.00  0.00    +0.038 A 
ATOM      9  C   UNL     1       2.678  -0.580  -2.595  0.00  0.00    +0.013 A 
ATOM     10  C   UNL     1       2.025  -0.135  -1.464  0.00  0.00    +0.005 A 
BRANCH   5  12
ATOM     11  C   UNL     1      -0.019   1.526   0.010  0.00  0.00    +0.015 C 
ATOM     12  C   UNL     1       0.002  -0.004   0.002  0.00  0.00    -0.013 C 
ATOM     13  C   UNL     1       0.742  -0.511   1.242  0.00  0.00    +0.015 C 
ATOM     14  C   UNL     1      -1.433  -0.534   0.013  0.00  0.00    +0.015 C 
ENDBRANCH   5  12
ENDBRANCH   1   8
BRANCH   3  15
ATOM     15  N   UNL     1       4.637  -1.972  -6.106  0.00  0.00    -0.187 NA
ATOM     16  C   UNL     1       5.875  -1.644  -6.319  0.00  0.00    +0.142 C 
BRANCH  16  17
ATOM     17  C   UNL     1       6.564  -2.120  -7.531  0.00  0.00    +0.044 A 
ATOM     18  C   UNL     1       7.898  -1.775  -7.761  0.00  0.00    +0.046 A 
ATOM     19  C   UNL     1       8.539  -2.223  -8.898  0.00  0.00    +0.128 A 
ATOM     20  C   UNL     1       7.865  -3.014  -9.812  0.00  0.00    +0.051 A 
ATOM     21  C   UNL     1       6.544  -3.363  -9.596  0.00  0.00    +0.067 A 
ATOM     22  C   UNL     1       5.888  -2.926  -8.456  0.00  0.00    +0.202 A 
ATOM     23  O   UNL     1       4.593  -3.273  -8.240  0.00  0.00    -0.286 OA
ATOM     24 BR   UNL     1       5.636  -4.444 -10.854  0.00  0.00    -0.046 Br
BRANCH  19  25
ATOM     25  N   UNL     1       9.952  -1.856  -9.140  0.00  0.00    +0.056 N 
ATOM     26  O   UNL     1      10.542  -1.164  -8.344  0.00  0.00    -0.126 OA
ATOM     27  O   UNL     1      10.515  -2.247 -10.136  0.00  0.00    -0.126 OA
ENDBRANCH  19  25
ENDBRANCH  16  17
ENDBRANCH   3  15
TORSDOF 5
