REMARK  Name = ZINC12833516
REMARK  10 active torsions:
REMARK  status: ('A' for Active; 'I' for Inactive)
REMARK    1  A    between atoms: C_1  and  C_2
REMARK    2  A    between atoms: C_2  and  O_3
REMARK    3  A    between atoms: O_3  and  C_4
REMARK    4  A    between atoms: C_11  and  C_16
REMARK    5  A    between atoms: C_16  and  N_70
REMARK    6  A    between atoms: C_17  and  C_18
REMARK    7  A    between atoms: C_17  and  N_70
REMARK    8  A    between atoms: C_27  and  C_28
REMARK    9  A    between atoms: C_27  and  N_70
REMARK   10  A    between atoms: N_32  and  C_33
REMARK                            x       y       z     vdW  Elec       q    Type
REMARK                         _______ _______ _______ _____ _____    ______ ____
ROOT
ATOM      1  N   UNL     1       6.585  -1.576   1.679  0.00  0.00    +0.390 N 
ATOM      2  H   UNL     1       6.435  -0.944   0.883  0.00  0.00    -0.080 HD
ENDROOT
BRANCH   1   3
ATOM      3  C   UNL     1       6.484  -2.973   1.207  0.00  0.00    -0.036 C 
BRANCH   3  11
ATOM      4  C   UNL     1      11.259  -4.300  -2.516  0.00  0.00    +0.121 A 
ATOM      5  C   UNL     1      10.634  -3.922  -3.702  0.00  0.00    +0.047 A 
ATOM      6  C   UNL     1       9.343  -3.442  -3.693  0.00  0.00    +0.030 A 
ATOM      7  C   UNL     1       8.652  -3.330  -2.491  0.00  0.00    +0.049 A 
ATOM      8  C   UNL     1       9.280  -3.711  -1.290  0.00  0.00    +0.002 A 
ATOM      9  C   UNL     1      10.591  -4.197  -1.313  0.00  0.00    +0.055 A 
ATOM     10  C   UNL     1       8.541  -3.589  -0.033  0.00  0.00    +0.017 A 
ATOM     11  C   UNL     1       7.272  -3.111  -0.070  0.00  0.00    +0.001 A 
ATOM     12  C   UNL     1       6.685  -2.748  -1.301  0.00  0.00    +0.251 A 
ATOM     13  O   UNL     1       5.542  -2.327  -1.313  0.00  0.00    -0.268 OA
ATOM     14  N   UNL     1       7.358  -2.851  -2.461  0.00  0.00    -0.322 N 
ATOM     15  H   UNL     1       6.926  -2.589  -3.289  0.00  0.00    +0.169 HD
BRANCH   4  16
ATOM     16  O   UNL     1      12.534  -4.772  -2.544  0.00  0.00    -0.492 OA
BRANCH  16  18
ATOM     17  C   UNL     1      14.586  -5.401  -3.655  0.00  0.00    +0.048 C 
ATOM     18  C   UNL     1      13.168  -4.852  -3.823  0.00  0.00    +0.225 C 
ENDBRANCH  16  18
ENDBRANCH   4  16
ENDBRANCH   3  11
ENDBRANCH   1   3
BRANCH   1  19
ATOM     19  C   UNL     1       5.552  -1.313   2.702  0.00  0.00    -0.042 C 
BRANCH  19  20
ATOM     20  C   UNL     1       4.205  -1.261   2.029  0.00  0.00    -0.060 A 
ATOM     21  C   UNL     1       3.397  -2.383   2.015  0.00  0.00    +0.005 A 
ATOM     22  C   UNL     1       2.161  -2.341   1.398  0.00  0.00    +0.050 A 
ATOM     23  C   UNL     1       1.727  -1.172   0.793  0.00  0.00    +0.166 A 
ATOM     24  C   UNL     1       2.540  -0.041   0.808  0.00  0.00    +0.166 A 
ATOM     25  C   UNL     1       3.779  -0.091   1.428  0.00  0.00    +0.051 A 
ATOM     26  O   UNL     1       1.896   0.968   0.154  0.00  0.00    -0.453 OA
ATOM     27  C   UNL     1       0.514   0.568   0.095  0.00  0.00    +0.466 C 
ATOM     28  O   UNL     1       0.573  -0.871   0.130  0.00  0.00    -0.453 OA
ENDBRANCH  19  20
ENDBRANCH   1  19
BRANCH   1  29
ATOM     29  C   UNL     1       7.929  -1.329   2.242  0.00  0.00    +0.001 C 
BRANCH  29  30
ATOM     30  C   UNL     1       8.134   0.159   2.371  0.00  0.00    +0.135 A 
ATOM     31  N   UNL     1       8.564   0.973   1.438  0.00  0.00    -0.115 NA
ATOM     32  N   UNL     1       8.600   2.162   1.934  0.00  0.00    -0.023 NA
ATOM     33  N   UNL     1       8.212   2.125   3.161  0.00  0.00    -0.044 NA
ATOM     34  N   UNL     1       7.916   0.908   3.467  0.00  0.00    -0.228 N 
BRANCH  34  35
ATOM     35  C   UNL     1       7.433   0.430   4.766  0.00  0.00    +0.111 C 
ATOM     36  C   UNL     1       6.214   1.251   5.190  0.00  0.00    +0.027 C 
ATOM     37  C   UNL     1       5.710   0.752   6.545  0.00  0.00    +0.002 C 
ATOM     38  C   UNL     1       6.817   0.908   7.590  0.00  0.00    +0.000 C 
ATOM     39  C   UNL     1       8.037   0.087   7.166  0.00  0.00    +0.002 C 
ATOM     40  C   UNL     1       8.541   0.586   5.810  0.00  0.00    +0.027 C 
ENDBRANCH  34  35
ENDBRANCH  29  30
ENDBRANCH   1  29
TORSDOF 9
