REMARK  Name = ZINC09692178
REMARK  12 active torsions:
REMARK  status: ('A' for Active; 'I' for Inactive)
REMARK    1  A    between atoms: C_1  and  C_2
REMARK    2  A    between atoms: C_2  and  C_3
REMARK    3  A    between atoms: C_12  and  S_14
REMARK    4  A    between atoms: S_14  and  N_17
REMARK    5  A    between atoms: N_17  and  C_18
REMARK    6  A    between atoms: C_18  and  C_20
REMARK    7  A    between atoms: C_18  and  C_24
REMARK    8  A    between atoms: C_20  and  C_21
REMARK    9  A    between atoms: C_21  and  C_22
REMARK   10  A    between atoms: C_21  and  C_23
REMARK   11  A    between atoms: N_26  and  C_27
REMARK   12  A    between atoms: C_27  and  C_28
REMARK                            x       y       z     vdW  Elec       q    Type
REMARK                         _______ _______ _______ _____ _____    ______ ____
ROOT
ATOM      1  N   UNL     1      -1.200  -2.293  -0.056  0.00  0.00    -0.178 NA
ATOM      2  H   UNL     1      -0.498  -2.713   0.465  0.00  0.00    +0.149 HD
ENDROOT
BRANCH   1   3
ATOM      3  S   UNL     1      -2.277  -3.226  -0.898  0.00  0.00    +0.059 S 
ATOM      4  O   UNL     1      -1.856  -4.574  -0.741  0.00  0.00    -0.153 OA
ATOM      5  O   UNL     1      -3.575  -2.785  -0.525  0.00  0.00    -0.153 OA
BRANCH   3  15
ATOM      6  C   UNL     1      -1.007  -2.239  -7.606  0.00  0.00    +0.220 C 
ATOM      7  O   UNL     1      -0.239  -3.150  -7.380  0.00  0.00    -0.275 OA
ATOM      8  N   UNL     1      -1.780  -1.750  -6.616  0.00  0.00    -0.271 N 
ATOM      9  C   UNL     1      -2.743  -0.655  -6.765  0.00  0.00    +0.118 C 
ATOM     10  C   UNL     1      -3.364  -0.472  -5.371  0.00  0.00    +0.056 C 
ATOM     11  C   UNL     1      -2.684  -1.512  -4.511  0.00  0.00    -0.023 A 
ATOM     12  C   UNL     1      -1.782  -2.213  -5.296  0.00  0.00    +0.040 A 
ATOM     13  C   UNL     1      -1.028  -3.235  -4.716  0.00  0.00    +0.026 A 
ATOM     14  C   UNL     1      -1.182  -3.539  -3.380  0.00  0.00    +0.030 A 
ATOM     15  C   UNL     1      -2.084  -2.834  -2.605  0.00  0.00    +0.106 A 
ATOM     16  C   UNL     1      -2.838  -1.824  -3.174  0.00  0.00    +0.034 A 
BRANCH   6  18
ATOM     17  C   UNL     1      -0.122  -2.384  -9.917  0.00  0.00    +0.013 C 
ATOM     18  C   UNL     1      -1.097  -1.654  -8.991  0.00  0.00    +0.093 C 
ENDBRANCH   6  18
ENDBRANCH   3  15
ENDBRANCH   1   3
BRANCH   1  19
ATOM     19  C   UNL     1      -1.306  -0.832  -0.098  0.00  0.00    +0.162 C 
BRANCH  19  20
ATOM     20  C   UNL     1       0.074  -0.228  -0.115  0.00  0.00    +0.232 C 
ATOM     21  O   UNL     1       1.047  -0.935   0.038  0.00  0.00    -0.274 OA
ATOM     22  N   UNL     1       0.227   1.098  -0.301  0.00  0.00    -0.310 N 
ATOM     23  H   UNL     1      -0.547   1.655  -0.481  0.00  0.00    +0.149 HD
BRANCH  22  24
ATOM     24  C   UNL     1       1.562   1.698  -0.237  0.00  0.00    +0.141 C 
BRANCH  24  25
ATOM     25  C   UNL     1       1.458   3.182  -0.476  0.00  0.00    -0.012 A 
ATOM     26  C   UNL     1       1.757   3.704  -1.721  0.00  0.00    +0.006 A 
ATOM     27  C   UNL     1       1.658   5.065  -1.942  0.00  0.00    +0.000 A 
ATOM     28  C   UNL     1       1.268   5.906  -0.916  0.00  0.00    +0.001 A 
ATOM     29  C   UNL     1       0.974   5.386   0.330  0.00  0.00    +0.020 A 
ATOM     30  C   UNL     1       1.069   4.023   0.550  0.00  0.00    +0.046 A 
ATOM     31 CL   UNL     1       0.700   3.369   2.116  0.00  0.00    -0.083 Cl
ENDBRANCH  24  25
ENDBRANCH  22  24
ENDBRANCH  19  20
BRANCH  19  32
ATOM     32  C   UNL     1      -2.063  -0.341   1.138  0.00  0.00    +0.032 C 
BRANCH  32  33
ATOM     33  C   UNL     1      -2.327   1.161   1.010  0.00  0.00    -0.015 C 
ATOM     34  C   UNL     1      -3.303   1.411  -0.142  0.00  0.00    +0.007 C 
ATOM     35  C   UNL     1      -2.933   1.685   2.313  0.00  0.00    +0.007 C 
ENDBRANCH  32  33
ENDBRANCH  19  32
ENDBRANCH   1  19
TORSDOF 9
