REMARK  Name = ZINC40390443
REMARK  7 active torsions:
REMARK  status: ('A' for Active; 'I' for Inactive)
REMARK    1  A    between atoms: C_1  and  C_2
REMARK    2  A    between atoms: C_2  and  C_3
REMARK    3  A    between atoms: C_22  and  C_24
REMARK    4  A    between atoms: N_26  and  C_27
REMARK    5  A    between atoms: C_30  and  C_33
REMARK    6  A    between atoms: C_33  and  C_34
REMARK    7  A    between atoms: C_33  and  C_35
REMARK                            x       y       z     vdW  Elec       q    Type
REMARK                         _______ _______ _______ _____ _____    ______ ____
ROOT
ATOM      1  C   UNL     1      -2.128   0.239  -0.155  0.00  0.00    +0.076 C 
ATOM      2  C   UNL     1      -1.679  -1.073  -0.807  0.00  0.00    +0.022 C 
ATOM      3  C   UNL     1      -2.640  -2.193  -0.404  0.00  0.00    +0.003 C 
ATOM      4  C   UNL     1      -2.608  -2.373   1.116  0.00  0.00    +0.019 C 
ATOM      5  C   UNL     1      -3.068  -1.077   1.789  0.00  0.00    +0.108 C 
ATOM      6  N   UNL     1      -2.242   0.035   1.296  0.00  0.00    -0.298 N 
ATOM      7  C   UNL     1      -1.589   0.862   2.170  0.00  0.00    +0.200 A 
ATOM      8  N   UNL     1      -2.196   1.206   3.338  0.00  0.00    -0.295 N 
ATOM      9  H   UNL     1      -3.076   0.857   3.549  0.00  0.00    +0.172 HD
ATOM     10  C   UNL     1      -1.573   2.034   4.205  0.00  0.00    +0.258 A 
ATOM     11  O   UNL     1      -2.114   2.364   5.249  0.00  0.00    -0.267 OA
ATOM     12  C   UNL     1      -0.298   2.507   3.881  0.00  0.00    +0.069 A 
ATOM     13  C   UNL     1       0.285   2.111   2.691  0.00  0.00    +0.138 A 
ATOM     14  N   UNL     1      -0.387   1.301   1.864  0.00  0.00    -0.200 NA
ATOM     15  N   UNL     1       1.564   2.529   2.367  0.00  0.00    -0.270 N 
ATOM     16  C   UNL     1       2.359   3.098   3.289  0.00  0.00    +0.219 C 
ATOM     17  O   UNL     1       3.432   3.553   2.956  0.00  0.00    -0.275 OA
ATOM     18  C   UNL     1       1.932   3.178   4.731  0.00  0.00    +0.114 C 
ATOM     19  C   UNL     1       0.427   3.442   4.811  0.00  0.00    +0.122 C 
ATOM     20  H   UNL     1       1.891   2.410   1.462  0.00  0.00    +0.156 HD
ENDROOT
BRANCH  19  21
ATOM     21  C   UNL     1      -0.048   3.216   6.223  0.00  0.00    +0.225 C 
ATOM     22  O   UNL     1       0.015   2.109   6.713  0.00  0.00    -0.275 OA
ATOM     23  N   UNL     1      -0.544   4.244   6.940  0.00  0.00    -0.285 N 
ATOM     24  H   UNL     1      -0.660   5.113   6.525  0.00  0.00    +0.155 HD
BRANCH  23  25
ATOM     25  C   UNL     1      -0.890   4.058   8.283  0.00  0.00    +0.033 A 
ATOM     26  C   UNL     1      -1.974   4.737   8.823  0.00  0.00    +0.023 A 
ATOM     27  C   UNL     1      -2.312   4.551  10.149  0.00  0.00    +0.006 A 
ATOM     28  C   UNL     1      -1.574   3.689  10.938  0.00  0.00    -0.045 A 
ATOM     29  C   UNL     1      -0.493   3.011  10.404  0.00  0.00    +0.006 A 
ATOM     30  C   UNL     1      -0.153   3.188   9.077  0.00  0.00    +0.023 A 
BRANCH  28  31
ATOM     31  C   UNL     1      -1.946   3.489  12.384  0.00  0.00    +0.013 C 
ATOM     32  C   UNL     1      -2.278   2.015  12.626  0.00  0.00    +0.012 C 
ATOM     33  C   UNL     1      -0.772   3.900  13.275  0.00  0.00    +0.012 C 
ENDBRANCH  28  31
ENDBRANCH  23  25
ENDBRANCH  19  21
BRANCH   1  35
ATOM     34  C   UNL     1      -1.043   1.604  -1.944  0.00  0.00    +0.006 C 
ATOM     35  C   UNL     1      -1.097   1.333  -0.439  0.00  0.00    +0.019 C 
ENDBRANCH   1  35
TORSDOF 4
