REMARK  Name = ZINC40879334
REMARK  5 active torsions:
REMARK  status: ('A' for Active; 'I' for Inactive)
REMARK    1  A    between atoms: C_3  and  C_7
REMARK    2  A    between atoms: C_9  and  C_12
REMARK    3  A    between atoms: C_15  and  N_19
REMARK    4  A    between atoms: C_23  and  C_26
REMARK    5  A    between atoms: C_31  and  N_34
REMARK                            x       y       z     vdW  Elec       q    Type
REMARK                         _______ _______ _______ _____ _____    ______ ____
ROOT
ATOM      1  N   UNL     1      11.371   1.322  -0.131  0.00  0.00    -0.327 N 
ATOM      2  C   UNL     1      12.115   1.172   1.127  0.00  0.00    +0.105 C 
ATOM      3  C   UNL     1      13.300   2.143   1.118  0.00  0.00    +0.020 C 
ATOM      4  C   UNL     1      14.139   1.907  -0.140  0.00  0.00    +0.016 C 
ATOM      5  C   UNL     1      13.286   2.174  -1.382  0.00  0.00    +0.092 C 
ATOM      6  C   UNL     1      12.099   1.198  -1.401  0.00  0.00    +0.118 C 
ENDROOT
BRANCH   5   7
ATOM      7  C   UNL     1      14.122   1.973  -2.619  0.00  0.00    +0.220 C 
ATOM      8  O   UNL     1      14.246   0.863  -3.093  0.00  0.00    -0.275 OA
ATOM      9  N   UNL     1      14.731   3.026  -3.199  0.00  0.00    -0.301 N 
ATOM     10  C   UNL     1      14.693   4.353  -2.570  0.00  0.00    +0.106 C 
ATOM     11  C   UNL     1      16.127   4.872  -2.426  0.00  0.00    +0.004 C 
ATOM     12  C   UNL     1      16.815   4.844  -3.793  0.00  0.00    -0.066 C 
ATOM     13  C   UNL     1      16.872   3.404  -4.308  0.00  0.00    +0.004 C 
ATOM     14  C   UNL     1      15.451   2.867  -4.470  0.00  0.00    +0.106 C 
BRANCH  12  15
ATOM     15  N   UNL     1      18.180   5.372  -3.664  0.00  0.00    +0.382 N 
ATOM     16  C   UNL     1      18.124   6.750  -3.163  0.00  0.00    -0.078 C 
ATOM     17  C   UNL     1      19.545   7.277  -2.951  0.00  0.00    -0.019 C 
ATOM     18  C   UNL     1      20.300   7.247  -4.283  0.00  0.00    -0.004 C 
ATOM     19  C   UNL     1      20.287   5.817  -4.833  0.00  0.00    -0.019 C 
ATOM     20  C   UNL     1      18.839   5.344  -4.976  0.00  0.00    -0.078 C 
ATOM     21  H   UNL     1      18.701   4.801  -3.016  0.00  0.00    -0.081 HD
ENDBRANCH  12  15
ENDBRANCH   5   7
BRANCH   1  25
ATOM     22  C   UNL     1       7.271   2.067  -0.098  0.00  0.00    +0.025 A 
ATOM     23  C   UNL     1       7.743   0.755  -0.112  0.00  0.00    +0.013 A 
ATOM     24  C   UNL     1       9.100   0.511  -0.122  0.00  0.00    +0.027 A 
ATOM     25  C   UNL     1       9.998   1.572  -0.120  0.00  0.00    +0.065 A 
ATOM     26  C   UNL     1       9.530   2.883  -0.106  0.00  0.00    +0.145 A 
ATOM     27  C   UNL     1       8.172   3.131  -0.102  0.00  0.00    +0.052 A 
ATOM     28  F   UNL     1      10.404   3.913  -0.104  0.00  0.00    -0.204 F 
BRANCH  22  31
ATOM     29  C   UNL     1       3.668   1.969  -0.073  0.00  0.00    +0.260 A 
ATOM     30  N   UNL     1       4.848   1.395  -0.084  0.00  0.00    -0.187 NA
ATOM     31  C   UNL     1       5.811   2.331  -0.087  0.00  0.00    +0.202 A 
ATOM     32  N   UNL     1       5.250   3.516  -0.079  0.00  0.00    -0.056 NA
ATOM     33  O   UNL     1       3.846   3.301  -0.076  0.00  0.00    -0.332 OA
BRANCH  29  36
ATOM     34  C   UNL     1      -0.025   1.292  -0.054  0.00  0.00    +0.020 A 
ATOM     35  C   UNL     1       1.168   1.995  -0.060  0.00  0.00    +0.016 A 
ATOM     36  C   UNL     1       2.365   1.270  -0.066  0.00  0.00    +0.057 A 
ATOM     37  C   UNL     1       2.308  -0.125  -0.065  0.00  0.00    +0.124 A 
ATOM     38  N   UNL     1       1.148  -0.748  -0.059  0.00  0.00    -0.263 NA
ATOM     39  C   UNL     1       0.004  -0.090  -0.054  0.00  0.00    +0.111 A 
ENDBRANCH  29  36
ENDBRANCH  22  31
ENDBRANCH   1  25
TORSDOF 5
