REMARK  Name = ZINC65031822
REMARK  11 active torsions:
REMARK  status: ('A' for Active; 'I' for Inactive)
REMARK    1  A    between atoms: C_1  and  C_2
REMARK    2  A    between atoms: C_3  and  C_29
REMARK    3  A    between atoms: C_9  and  C_12
REMARK    4  A    between atoms: C_12  and  N_13
REMARK    5  A    between atoms: N_16  and  C_17
REMARK    6  A    between atoms: N_16  and  C_18
REMARK    7  A    between atoms: C_18  and  C_19
REMARK    8  A    between atoms: C_21  and  C_25
REMARK    9  A    between atoms: C_22  and  C_24
REMARK   10  A    between atoms: C_25  and  O_27
REMARK   11  A    between atoms: O_27  and  C_28
REMARK                            x       y       z     vdW  Elec       q    Type
REMARK                         _______ _______ _______ _____ _____    ______ ____
ROOT
ATOM      1  N   UNL     1      -1.310  -1.423   5.394  0.00  0.00    -0.295 N 
ATOM      2  C   UNL     1      -1.547  -1.215   6.704  0.00  0.00    +0.303 C 
ATOM      3  O   UNL     1      -0.618  -1.076   7.475  0.00  0.00    -0.253 OA
ATOM      4  N   UNL     1      -2.815  -1.160   7.159  0.00  0.00    -0.281 N 
ATOM      5  C   UNL     1      -3.935  -1.327   6.230  0.00  0.00    +0.134 C 
ATOM      6  H   UNL     1      -2.052  -1.533   4.778  0.00  0.00    +0.151 HD
ENDROOT
BRANCH   1   7
ATOM      7  C   UNL     1       0.068  -1.482   4.899  0.00  0.00    +0.141 C 
BRANCH   7  16
ATOM      8  C   UNL     1      -0.018   1.503   0.010  0.00  0.00    +0.046 C 
ATOM      9  C   UNL     1       0.002  -0.004   0.002  0.00  0.00    -0.022 A 
ATOM     10  C   UNL     1       0.009  -0.797  -1.081  0.00  0.00    +0.017 A 
ATOM     11  N   UNL     1       0.028  -2.110  -0.699  0.00  0.00    -0.358 N 
ATOM     12  H   UNL     1       0.036  -2.867  -1.305  0.00  0.00    +0.166 HD
ATOM     13  C   UNL     1       0.035  -2.197   0.676  0.00  0.00    +0.047 A 
ATOM     14  C   UNL     1       0.025  -0.882   1.175  0.00  0.00    +0.003 A 
ATOM     15  C   UNL     1       0.035  -0.659   2.553  0.00  0.00    +0.015 A 
ATOM     16  C   UNL     1       0.057  -1.723   3.411  0.00  0.00    -0.030 A 
ATOM     17  C   UNL     1       0.071  -3.022   2.924  0.00  0.00    +0.007 A 
ATOM     18  C   UNL     1       0.052  -3.264   1.567  0.00  0.00    +0.026 A 
ATOM     19  C   UNL     1      -0.004  -0.311  -2.508  0.00  0.00    +0.063 C 
ENDBRANCH   7  16
ENDBRANCH   1   7
BRANCH   4  20
ATOM     20  C   UNL     1      -3.072  -0.934   8.583  0.00  0.00    +0.183 C 
BRANCH  20  21
ATOM     21  C   UNL     1      -3.182   0.546   8.845  0.00  0.00    +0.123 A 
ATOM     22  C   UNL     1      -4.315   1.263   8.798  0.00  0.00    +0.061 A 
ATOM     23  C   UNL     1      -3.933   2.646   9.121  0.00  0.00    +0.100 A 
ATOM     24  C   UNL     1      -2.584   2.614   9.331  0.00  0.00    +0.116 A 
ATOM     25  O   UNL     1      -2.162   1.357   9.168  0.00  0.00    -0.462 OA
ATOM     26  C   UNL     1      -1.720   3.795   9.692  0.00  0.00    +0.087 C 
BRANCH  23  27
ATOM     27  C   UNL     1      -4.819   3.819   9.200  0.00  0.00    +0.342 C 
ATOM     28  O   UNL     1      -4.360   4.909   9.479  0.00  0.00    -0.245 OA
BRANCH  27  29
ATOM     29  O   UNL     1      -6.138   3.684   8.962  0.00  0.00    -0.464 OA
ATOM     30  C   UNL     1      -6.939   4.864   9.056  0.00  0.00    +0.280 C 
ENDBRANCH  27  29
ENDBRANCH  23  27
ENDBRANCH  20  21
ENDBRANCH   4  20
TORSDOF 6
