REMARK  Name = ZINC46875461
REMARK  8 active torsions:
REMARK  status: ('A' for Active; 'I' for Inactive)
REMARK    1  A    between atoms: C_1  and  C_2
REMARK    2  A    between atoms: C_2  and  C_3
REMARK    3  A    between atoms: C_3  and  C_5
REMARK    4  A    between atoms: C_3  and  N_6
REMARK    5  A    between atoms: C_7  and  C_9
REMARK    6  A    between atoms: C_9  and  N_10
REMARK    7  A    between atoms: N_18  and  C_19
REMARK    8  A    between atoms: C_19  and  C_20
REMARK                            x       y       z     vdW  Elec       q    Type
REMARK                         _______ _______ _______ _____ _____    ______ ____
ROOT
ATOM      1  N   UNL     1       4.875   0.516   3.586  0.00  0.00    -0.291 NA
ATOM      2  C   UNL     1       4.922  -0.817   4.201  0.00  0.00    +0.104 C 
ATOM      3  C   UNL     1       5.334  -0.684   5.671  0.00  0.00    +0.124 C 
ATOM      4  N   UNL     1       6.591   0.075   5.737  0.00  0.00    -0.283 N 
ATOM      5  C   UNL     1       6.666   1.362   5.027  0.00  0.00    +0.124 C 
ATOM      6  C   UNL     1       6.201   1.148   3.583  0.00  0.00    +0.104 C 
ATOM      7  C   UNL     1       7.648  -0.394   6.429  0.00  0.00    +0.302 C 
ATOM      8  O   UNL     1       8.709   0.198   6.396  0.00  0.00    -0.253 OA
ATOM      9  N   UNL     1       7.528  -1.521   7.159  0.00  0.00    -0.296 N 
ATOM     10  H   UNL     1       6.705  -2.033   7.129  0.00  0.00    +0.150 HD
ENDROOT
BRANCH   1  11
ATOM     11  C   UNL     1       4.320   0.451   2.228  0.00  0.00    +0.180 C 
BRANCH  11  13
ATOM     12  N   UNL     1       2.156  -0.100   1.163  0.00  0.00    -0.312 N 
ATOM     13  C   UNL     1       2.875   0.028   2.296  0.00  0.00    +0.227 C 
ATOM     14  O   UNL     1       2.358  -0.196   3.370  0.00  0.00    -0.274 OA
ATOM     15  H   UNL     1       2.569   0.079   0.304  0.00  0.00    +0.149 HD
BRANCH  12  16
ATOM     16  C   UNL     1       0.751  -0.511   1.229  0.00  0.00    +0.070 C 
ATOM     17  C   UNL     1       0.668  -2.037   1.282  0.00  0.00    +0.028 C 
BRANCH  16  19
ATOM     18  C   UNL     1      -0.012   1.528   0.003  0.00  0.00    +0.005 C 
ATOM     19  C   UNL     1       0.012  -0.002  -0.010  0.00  0.00    +0.018 C 
ENDBRANCH  16  19
ENDBRANCH  12  16
ENDBRANCH  11  13
ENDBRANCH   1  11
BRANCH   9  20
ATOM     20  C   UNL     1       8.641  -1.972   7.998  0.00  0.00    +0.150 C 
BRANCH  20  21
ATOM     21  C   UNL     1       8.248  -3.265   8.715  0.00  0.00    +0.195 C 
ATOM     22  C   UNL     1       9.380  -3.735   9.659  0.00  0.00    +0.085 C 
ATOM     23  C   UNL     1       9.301  -5.243   9.516  0.00  0.00    -0.002 A 
ATOM     24  C   UNL     1       9.824  -6.272  10.268  0.00  0.00    +0.007 A 
ATOM     25  C   UNL     1       9.583  -7.585   9.906  0.00  0.00    +0.000 A 
ATOM     26  C   UNL     1       8.817  -7.859   8.788  0.00  0.00    +0.004 A 
ATOM     27  C   UNL     1       8.295  -6.831   8.031  0.00  0.00    +0.046 A 
ATOM     28  C   UNL     1       8.535  -5.506   8.387  0.00  0.00    +0.124 A 
ATOM     29  O   UNL     1       8.134  -4.352   7.781  0.00  0.00    -0.487 OA
ENDBRANCH  20  21
ENDBRANCH   9  20
TORSDOF 6
