REMARK  Name = ZINC10011675
REMARK  8 active torsions:
REMARK  status: ('A' for Active; 'I' for Inactive)
REMARK    1  A    between atoms: C_3  and  C_6
REMARK    2  A    between atoms: C_6  and  N_7
REMARK    3  A    between atoms: N_7  and  S_8
REMARK    4  A    between atoms: S_8  and  C_11
REMARK    5  A    between atoms: C_14  and  N_17
REMARK    6  A    between atoms: N_17  and  C_18
REMARK    7  A    between atoms: C_18  and  N_20
REMARK    8  A    between atoms: C_21  and  C_23
REMARK                            x       y       z     vdW  Elec       q    Type
REMARK                         _______ _______ _______ _____ _____    ______ ____
ROOT
ATOM      1  C   UNL     1      -5.836   3.203  -0.103  0.00  0.00    +0.105 A 
ATOM      2  C   UNL     1      -5.912   1.824  -0.035  0.00  0.00    +0.030 A 
ATOM      3  C   UNL     1      -4.756   1.069   0.005  0.00  0.00    +0.025 A 
ATOM      4  C   UNL     1      -3.518   1.696  -0.023  0.00  0.00    +0.033 A 
ATOM      5  C   UNL     1      -3.445   3.082  -0.086  0.00  0.00    +0.025 A 
ATOM      6  C   UNL     1      -4.604   3.831  -0.132  0.00  0.00    +0.030 A 
ENDROOT
BRANCH   1   7
ATOM      7  S   UNL     1      -7.313   4.163  -0.154  0.00  0.00    +0.059 S 
ATOM      8  O   UNL     1      -6.973   5.400  -0.766  0.00  0.00    -0.153 OA
ATOM      9  O   UNL     1      -8.332   3.315  -0.666  0.00  0.00    -0.153 OA
BRANCH   7  10
ATOM     10  N   UNL     1      -7.727   4.508   1.411  0.00  0.00    -0.183 NA
ATOM     11  H   UNL     1      -8.548   4.152   1.786  0.00  0.00    +0.148 HD
BRANCH  10  12
ATOM     12  C   UNL     1      -6.854   5.352   2.231  0.00  0.00    +0.180 C 
BRANCH  12  15
ATOM     13  C   UNL     1      -8.465   5.954   5.491  0.00  0.00    +0.041 A 
ATOM     14  C   UNL     1      -7.655   5.173   4.635  0.00  0.00    +0.046 A 
ATOM     15  C   UNL     1      -7.605   5.814   3.453  0.00  0.00    +0.120 A 
ATOM     16  O   UNL     1      -8.334   6.938   3.549  0.00  0.00    -0.466 OA
ATOM     17  C   UNL     1      -8.862   7.026   4.781  0.00  0.00    +0.195 A 
ENDBRANCH  12  15
ENDBRANCH  10  12
ENDBRANCH   7  10
ENDBRANCH   1   7
BRANCH   4  18
ATOM     18  N   UNL     1      -2.345   0.934   0.018  0.00  0.00    -0.297 N 
ATOM     19  H   UNL     1      -1.619   1.193   0.607  0.00  0.00    +0.154 HD
BRANCH  18  20
ATOM     20  C   UNL     1      -2.225  -0.160  -0.760  0.00  0.00    +0.141 C 
ATOM     21  S   UNL     1      -3.546  -0.678  -1.718  0.00  0.00    -0.018 S 
BRANCH  20  22
ATOM     22  N   UNL     1      -1.065  -0.845  -0.784  0.00  0.00    -0.264 N 
ATOM     23  C   UNL     1      -0.946  -1.942  -1.558  0.00  0.00    +0.250 C 
ATOM     24  O   UNL     1      -1.884  -2.310  -2.238  0.00  0.00    -0.270 OA
ATOM     25  H   UNL     1      -0.316  -0.551  -0.242  0.00  0.00    +0.157 HD
BRANCH  23  26
ATOM     26  C   UNL     1       0.324  -2.697  -1.580  0.00  0.00    +0.040 A 
ATOM     27  C   UNL     1       1.405  -2.273  -0.805  0.00  0.00    +0.033 A 
ATOM     28  C   UNL     1       2.587  -2.986  -0.825  0.00  0.00    +0.043 A 
ATOM     29  C   UNL     1       2.706  -4.113  -1.621  0.00  0.00    +0.040 A 
ATOM     30  C   UNL     1       1.640  -4.535  -2.397  0.00  0.00    +0.043 A 
ATOM     31  C   UNL     1       0.450  -3.833  -2.381  0.00  0.00    +0.033 A 
ATOM     32 CL   UNL     1       1.798  -5.948  -3.392  0.00  0.00    -0.083 Cl
ATOM     33 CL   UNL     1       3.930  -2.465   0.144  0.00  0.00    -0.083 Cl
ENDBRANCH  23  26
ENDBRANCH  20  22
ENDBRANCH  18  20
ENDBRANCH   4  18
TORSDOF 8
