REMARK  Name = ZINC41006848
REMARK  7 active torsions:
REMARK  status: ('A' for Active; 'I' for Inactive)
REMARK    1  A    between atoms: C_1  and  C_2
REMARK    2  A    between atoms: C_2  and  O_38
REMARK    3  A    between atoms: C_6  and  C_29
REMARK    4  A    between atoms: C_8  and  C_21
REMARK    5  A    between atoms: C_10  and  C_12
REMARK    6  A    between atoms: N_14  and  C_15
REMARK    7  A    between atoms: N_31  and  C_32
REMARK                            x       y       z     vdW  Elec       q    Type
REMARK                         _______ _______ _______ _____ _____    ______ ____
ROOT
ATOM      1  C   UNL     1      -2.103  -0.039   2.075  0.00  0.00    +0.042 C 
ATOM      2  C   UNL     1      -1.282  -0.842   1.065  0.00  0.00    +0.082 C 
ATOM      3  C   UNL     1      -2.215  -1.739   0.245  0.00  0.00    +0.110 C 
ATOM      4  C   UNL     1      -1.372  -2.618  -0.652  0.00  0.00    +0.148 C 
ATOM      5  O   UNL     1      -1.594  -2.689  -1.837  0.00  0.00    -0.296 OA
ATOM      6  C   UNL     1      -0.242  -3.406  -0.027  0.00  0.00    +0.150 C 
ATOM      7  C   UNL     1       0.620  -2.448   0.802  0.00  0.00    +0.057 C 
ATOM      8  C   UNL     1      -0.265  -1.710   1.808  0.00  0.00    +0.116 C 
ENDROOT
BRANCH   7   9
ATOM      9  C   UNL     1       1.674  -3.232   1.541  0.00  0.00    +0.011 A 
ATOM     10  C   UNL     1       1.314  -4.329   2.305  0.00  0.00    +0.128 A 
ATOM     11  C   UNL     1       2.284  -5.048   2.983  0.00  0.00    +0.039 A 
ATOM     12  C   UNL     1       3.610  -4.671   2.897  0.00  0.00    +0.004 A 
ATOM     13  C   UNL     1       3.970  -3.576   2.134  0.00  0.00    +0.020 A 
ATOM     14  C   UNL     1       3.003  -2.859   1.451  0.00  0.00    +0.047 A 
ATOM     15 CL   UNL     1       3.457  -1.488   0.488  0.00  0.00    -0.083 Cl
ATOM     16  F   UNL     1       0.017  -4.697   2.389  0.00  0.00    -0.205 F 
ENDBRANCH   7   9
BRANCH   8  17
ATOM     17  C   UNL     1      -0.994  -2.713   2.665  0.00  0.00    +0.224 C 
ATOM     18  O   UNL     1      -1.853  -3.416   2.177  0.00  0.00    -0.275 OA
ATOM     19  N   UNL     1      -0.691  -2.828   3.973  0.00  0.00    -0.285 N 
ATOM     20  H   UNL     1       0.025  -2.296   4.354  0.00  0.00    +0.155 HD
BRANCH  19  21
ATOM     21  C   UNL     1      -1.410  -3.716   4.782  0.00  0.00    +0.033 A 
ATOM     22  C   UNL     1      -1.993  -4.847   4.226  0.00  0.00    +0.023 A 
ATOM     23  C   UNL     1      -2.702  -5.721   5.027  0.00  0.00    +0.002 A 
ATOM     24  C   UNL     1      -2.830  -5.470   6.381  0.00  0.00    +0.000 A 
ATOM     25  C   UNL     1      -2.251  -4.345   6.937  0.00  0.00    +0.002 A 
ATOM     26  C   UNL     1      -1.536  -3.470   6.143  0.00  0.00    +0.023 A 
ENDBRANCH  19  21
ENDBRANCH   8  17
BRANCH   6  27
ATOM     27  C   UNL     1       0.595  -4.037  -1.110  0.00  0.00    +0.228 C 
ATOM     28  O   UNL     1       1.773  -3.763  -1.203  0.00  0.00    -0.275 OA
ATOM     29  N   UNL     1       0.034  -4.906  -1.975  0.00  0.00    -0.285 N 
ATOM     30  H   UNL     1      -0.924  -5.057  -1.958  0.00  0.00    +0.155 HD
BRANCH  29  31
ATOM     31  C   UNL     1       0.835  -5.590  -2.896  0.00  0.00    +0.033 A 
ATOM     32  C   UNL     1       0.535  -6.902  -3.239  0.00  0.00    +0.023 A 
ATOM     33  C   UNL     1       1.327  -7.575  -4.149  0.00  0.00    +0.002 A 
ATOM     34  C   UNL     1       2.417  -6.943  -4.719  0.00  0.00    +0.000 A 
ATOM     35  C   UNL     1       2.718  -5.637  -4.380  0.00  0.00    +0.002 A 
ATOM     36  C   UNL     1       1.927  -4.957  -3.475  0.00  0.00    +0.023 A 
ENDBRANCH  29  31
ENDBRANCH   6  27
BRANCH   2  37
ATOM     37  O   UNL     1      -0.594   0.055   0.190  0.00  0.00    -0.388 OA
ATOM     38  H   UNL     1      -1.177   0.637  -0.315  0.00  0.00    +0.210 HD
ENDBRANCH   2  37
TORSDOF 6
