REMARK  Name = ZINC39674836
REMARK  11 active torsions:
REMARK  status: ('A' for Active; 'I' for Inactive)
REMARK    1  A    between atoms: C_1  and  C_2
REMARK    2  A    between atoms: C_4  and  C_14
REMARK    3  A    between atoms: C_7  and  C_12
REMARK    4  A    between atoms: C_14  and  C_15
REMARK    5  A    between atoms: C_15  and  N_16
REMARK    6  A    between atoms: C_17  and  C_19
REMARK    7  A    between atoms: C_30  and  C_32
REMARK    8  A    between atoms: C_32  and  C_33
REMARK    9  A    between atoms: C_33  and  C_34
REMARK   10  A    between atoms: C_37  and  O_40
REMARK   11  A    between atoms: O_40  and  C_41
REMARK                            x       y       z     vdW  Elec       q    Type
REMARK                         _______ _______ _______ _____ _____    ______ ____
ROOT
ATOM      1  C   UNL     1      -7.120  -1.150  -2.393  0.00  0.00    +0.100 C 
ATOM      2  C   UNL     1      -7.567   0.329  -2.380  0.00  0.00    +0.121 C 
ATOM      3  N   UNL     1      -9.031   0.279  -2.605  0.00  0.00    -0.300 N 
ATOM      4  C   UNL     1      -9.486  -0.891  -1.817  0.00  0.00    +0.115 C 
ATOM      5  C   UNL     1      -8.381  -1.948  -2.022  0.00  0.00    -0.004 C 
ATOM      6  C   UNL     1      -8.761  -2.894  -3.157  0.00  0.00    -0.010 C 
ATOM      7  C   UNL     1      -9.984  -3.716  -2.743  0.00  0.00    -0.082 C 
ATOM      8  N   UNL     1      -9.675  -4.477  -1.526  0.00  0.00    +0.379 N 
ATOM      9  C   UNL     1      -9.402  -3.558  -0.415  0.00  0.00    -0.082 C 
ATOM     10  C   UNL     1      -8.153  -2.729  -0.732  0.00  0.00    -0.010 C 
ATOM     11  C   UNL     1      -9.780   1.110  -3.357  0.00  0.00    +0.216 C 
ATOM     12  O   UNL     1     -10.977   0.938  -3.442  0.00  0.00    -0.276 OA
ATOM     13  H   UNL     1     -10.461  -5.064  -1.290  0.00  0.00    -0.086 HD
ATOM     14  H   UNL     1      -8.864  -5.055  -1.690  0.00  0.00    -0.086 HD
ENDROOT
BRANCH   1  16
ATOM     15  N   UNL     1      -5.122  -2.351  -1.564  0.00  0.00    -0.315 N 
ATOM     16  C   UNL     1      -6.035  -1.379  -1.371  0.00  0.00    +0.218 C 
ATOM     17  O   UNL     1      -5.985  -0.689  -0.375  0.00  0.00    -0.275 OA
ATOM     18  H   UNL     1      -5.162  -2.903  -2.361  0.00  0.00    +0.149 HD
BRANCH  15  19
ATOM     19  C   UNL     1      -4.068  -2.573  -0.571  0.00  0.00    +0.108 C 
BRANCH  19  20
ATOM     20  C   UNL     1      -3.171  -3.725  -1.029  0.00  0.00    +0.052 C 
BRANCH  20  23
ATOM     21  C   UNL     1      -0.114  -4.767  -1.299  0.00  0.00    +0.035 C 
ATOM     22  C   UNL     1      -0.989  -4.992  -0.064  0.00  0.00    +0.103 C 
ATOM     23  C   UNL     1      -2.087  -3.954  -0.008  0.00  0.00    -0.037 C 
ATOM     24  C   UNL     1      -1.898  -3.270   1.149  0.00  0.00    +0.000 A 
ATOM     25  C   UNL     1      -2.608  -2.191   1.738  0.00  0.00    +0.028 A 
ATOM     26  C   UNL     1      -2.197  -1.671   2.944  0.00  0.00    +0.052 A 
ATOM     27  C   UNL     1      -1.036  -2.208   3.644  0.00  0.00    +0.021 A 
ATOM     28  C   UNL     1      -0.323  -3.233   3.133  0.00  0.00    +0.027 A 
ATOM     29  C   UNL     1      -0.718  -3.824   1.849  0.00  0.00    +0.043 A 
ATOM     30  N   UNL     1      -0.197  -4.809   1.156  0.00  0.00    -0.378 N 
ATOM     31  H   UNL     1       0.582  -5.330   1.409  0.00  0.00    +0.160 HD
BRANCH  26  32
ATOM     32  C   UNL     1      -2.925  -0.582   3.523  0.00  0.00    +0.099 C 
ATOM     33  N   UNL     1      -3.502   0.282   3.983  0.00  0.00    -0.191 NA
ENDBRANCH  26  32
ENDBRANCH  20  23
ENDBRANCH  19  20
ENDBRANCH  15  19
ENDBRANCH   1  16
BRANCH  11  34
ATOM     34  C   UNL     1      -9.129   2.255  -4.091  0.00  0.00    +0.100 C 
BRANCH  34  35
ATOM     35  C   UNL     1     -10.194   3.037  -4.862  0.00  0.00    +0.044 C 
BRANCH  35  36
ATOM     36  C   UNL     1      -9.543   4.181  -5.596  0.00  0.00    -0.047 A 
ATOM     37  C   UNL     1      -9.410   5.411  -4.979  0.00  0.00    +0.007 A 
ATOM     38  C   UNL     1      -8.815   6.461  -5.650  0.00  0.00    +0.046 A 
ATOM     39  C   UNL     1      -8.349   6.281  -6.944  0.00  0.00    +0.120 A 
ATOM     40  C   UNL     1      -8.484   5.046  -7.562  0.00  0.00    +0.046 A 
ATOM     41  C   UNL     1      -9.075   3.997  -6.885  0.00  0.00    +0.007 A 
BRANCH  39  42
ATOM     42  O   UNL     1      -7.763   7.313  -7.607  0.00  0.00    -0.495 OA
ATOM     43  C   UNL     1      -7.308   7.055  -8.936  0.00  0.00    +0.277 C 
ENDBRANCH  39  42
ENDBRANCH  35  36
ENDBRANCH  34  35
ENDBRANCH  11  34
TORSDOF 9
