REMARK  Name = ZINC66704226
REMARK  9 active torsions:
REMARK  status: ('A' for Active; 'I' for Inactive)
REMARK    1  A    between atoms: C_1  and  C_2
REMARK    2  A    between atoms: C_2  and  C_3
REMARK    3  A    between atoms: C_3  and  N_4
REMARK    4  A    between atoms: N_4  and  C_5
REMARK    5  A    between atoms: C_5  and  C_6
REMARK    6  A    between atoms: C_11  and  O_12
REMARK    7  A    between atoms: N_15  and  C_16
REMARK    8  A    between atoms: C_16  and  C_18
REMARK    9  A    between atoms: C_16  and  C_25
REMARK                            x       y       z     vdW  Elec       q    Type
REMARK                         _______ _______ _______ _____ _____    ______ ____
ROOT
ATOM      1  N   UNL     1      -1.413  -1.998   0.005  0.00  0.00    -0.281 N 
ATOM      2  C   UNL     1      -1.415  -2.666  -1.166  0.00  0.00    +0.303 C 
ATOM      3  O   UNL     1      -1.399  -3.882  -1.173  0.00  0.00    -0.253 OA
ATOM      4  N   UNL     1      -1.436  -1.986  -2.329  0.00  0.00    -0.288 N 
ATOM      5  H   UNL     1      -1.449  -1.016  -2.324  0.00  0.00    +0.151 HD
ENDROOT
BRANCH   1   6
ATOM      6  C   UNL     1      -1.433  -0.534   0.013  0.00  0.00    +0.109 C 
BRANCH   6   8
ATOM      7  C   UNL     1      -0.019   1.526   0.010  0.00  0.00    +0.005 C 
ATOM      8  C   UNL     1       0.002  -0.004   0.002  0.00  0.00    +0.016 C 
ENDBRANCH   6   8
ENDBRANCH   1   6
BRANCH   1   9
ATOM      9  C   UNL     1      -1.391  -2.738   1.269  0.00  0.00    +0.148 C 
BRANCH   9  10
ATOM     10  C   UNL     1      -2.804  -3.010   1.716  0.00  0.00    +0.011 A 
ATOM     11  C   UNL     1      -3.391  -2.213   2.681  0.00  0.00    +0.009 A 
ATOM     12  C   UNL     1      -4.687  -2.463   3.091  0.00  0.00    +0.001 A 
ATOM     13  C   UNL     1      -5.400  -3.511   2.539  0.00  0.00    +0.004 A 
ATOM     14  C   UNL     1      -4.818  -4.311   1.574  0.00  0.00    +0.046 A 
ATOM     15  C   UNL     1      -3.519  -4.059   1.157  0.00  0.00    +0.122 A 
BRANCH  15  16
ATOM     16  O   UNL     1      -2.947  -4.841   0.204  0.00  0.00    -0.506 OA
ATOM     17  H   UNL     1      -2.478  -5.610   0.556  0.00  0.00    +0.292 HD
ENDBRANCH  15  16
ENDBRANCH   9  10
ENDBRANCH   1   9
BRANCH   4  18
ATOM     18  C   UNL     1      -1.438  -2.712  -3.602  0.00  0.00    +0.136 C 
BRANCH  18  19
ATOM     19  C   UNL     1      -2.060  -1.850  -4.670  0.00  0.00    -0.023 A 
ATOM     20  C   UNL     1      -1.781  -0.497  -4.716  0.00  0.00    +0.008 A 
ATOM     21  C   UNL     1      -2.351   0.294  -5.696  0.00  0.00    +0.038 A 
ATOM     22  C   UNL     1      -3.202  -0.269  -6.632  0.00  0.00    +0.123 A 
ATOM     23  C   UNL     1      -3.480  -1.625  -6.585  0.00  0.00    +0.038 A 
ATOM     24  C   UNL     1      -2.905  -2.415  -5.608  0.00  0.00    +0.008 A 
ATOM     25  F   UNL     1      -3.760   0.503  -7.589  0.00  0.00    -0.205 F 
ENDBRANCH  18  19
BRANCH  18  26
ATOM     26  C   UNL     1      -0.021  -3.049  -3.991  0.00  0.00    -0.005 A 
ATOM     27  C   UNL     1       0.277  -4.278  -4.558  0.00  0.00    +0.009 A 
ATOM     28  C   UNL     1       1.594  -4.545  -4.899  0.00  0.00    +0.020 A 
ATOM     29  C   UNL     1       2.559  -3.583  -4.665  0.00  0.00    +0.111 A 
ATOM     30  N   UNL     1       2.238  -2.424  -4.123  0.00  0.00    -0.263 NA
ATOM     31  C   UNL     1       0.995  -2.134  -3.792  0.00  0.00    +0.116 A 
ENDBRANCH  18  26
ENDBRANCH   4  18
TORSDOF 8
