REMARK  Name = ZINC57463286
REMARK  5 active torsions:
REMARK  status: ('A' for Active; 'I' for Inactive)
REMARK    1  A    between atoms: C_5  and  N_17
REMARK    2  A    between atoms: C_6  and  N_7
REMARK    3  A    between atoms: C_12  and  C_14
REMARK    4  A    between atoms: C_14  and  C_15
REMARK    5  A    between atoms: C_15  and  O_16
REMARK                            x       y       z     vdW  Elec       q    Type
REMARK                         _______ _______ _______ _____ _____    ______ ____
ROOT
ATOM      1  C   UNL     1       0.196   1.212   0.124  0.00  0.00    +0.030 A 
ATOM      2  C   UNL     1       1.439   1.817   0.110  0.00  0.00    -0.024 A 
ATOM      3  C   UNL     1       2.587   1.048  -0.038  0.00  0.00    +0.038 A 
ATOM      4  C   UNL     1       2.488  -0.330  -0.170  0.00  0.00    +0.048 A 
ATOM      5  C   UNL     1       1.243  -0.939  -0.155  0.00  0.00    +0.048 A 
ATOM      6  C   UNL     1       0.092  -0.164  -0.008  0.00  0.00    +0.051 A 
ATOM      7  N   UNL     1       3.844   1.667  -0.052  0.00  0.00    -0.285 N 
ATOM      8  C   UNL     1       3.997   2.911   0.437  0.00  0.00    +0.218 C 
ATOM      9  O   UNL     1       5.089   3.437   0.404  0.00  0.00    -0.275 OA
ATOM     10  C   UNL     1       2.829   3.657   1.022  0.00  0.00    +0.101 C 
ATOM     11  C   UNL     1       1.553   3.312   0.253  0.00  0.00    +0.046 C 
ATOM     12  H   UNL     1       4.609   1.194  -0.416  0.00  0.00    +0.155 HD
ENDROOT
BRANCH   6  13
ATOM     13  N   UNL     1      -1.169  -0.777   0.007  0.00  0.00    -0.325 N 
ATOM     14  C   UNL     1      -1.762  -1.240   1.269  0.00  0.00    +0.105 C 
ATOM     15  C   UNL     1      -2.150  -2.715   1.119  0.00  0.00    +0.019 C 
ATOM     16  C   UNL     1      -3.061  -2.877  -0.100  0.00  0.00    +0.003 C 
ATOM     17  C   UNL     1      -2.310  -2.445  -1.361  0.00  0.00    +0.022 C 
ATOM     18  C   UNL     1      -1.926  -0.962  -1.239  0.00  0.00    +0.076 C 
BRANCH  18  19
ATOM     19  C   UNL     1      -1.058  -0.555  -2.432  0.00  0.00    +0.050 C 
BRANCH  19  20
ATOM     20  C   UNL     1      -1.891  -0.617  -3.713  0.00  0.00    +0.157 C 
BRANCH  20  21
ATOM     21  O   UNL     1      -1.062  -0.310  -4.836  0.00  0.00    -0.395 OA
ATOM     22  H   UNL     1      -1.525  -0.330  -5.684  0.00  0.00    +0.209 HD
ENDBRANCH  20  21
ENDBRANCH  19  20
ENDBRANCH  18  19
ENDBRANCH   6  13
BRANCH   5  23
ATOM     23  N   UNL     1       1.140  -2.329  -0.288  0.00  0.00    -0.356 N 
ATOM     24  H   UNL     1       1.941  -2.867  -0.391  0.00  0.00    +0.142 HD
ATOM     25  H   UNL     1       0.269  -2.754  -0.277  0.00  0.00    +0.142 HD
ENDBRANCH   5  23
TORSDOF 5
