REMARK  Name = ZINC32127941
REMARK  6 active torsions:
REMARK  status: ('A' for Active; 'I' for Inactive)
REMARK    1  A    between atoms: C_1  and  C_2
REMARK    2  A    between atoms: C_5  and  C_9
REMARK    3  A    between atoms: C_13  and  N_18
REMARK    4  A    between atoms: N_18  and  C_19
REMARK    5  A    between atoms: C_19  and  N_21
REMARK    6  A    between atoms: C_22  and  C_24
REMARK                            x       y       z     vdW  Elec       q    Type
REMARK                         _______ _______ _______ _____ _____    ______ ____
ROOT
ATOM      1  C   UNL     1      12.240  -4.801   6.131  0.00  0.00    +0.230 A 
ATOM      2  N   UNL     1      11.071  -5.313   5.841  0.00  0.00    -0.209 NA
ATOM      3  C   UNL     1      10.288  -4.339   5.310  0.00  0.00    +0.112 A 
ATOM      4  C   UNL     1       8.976  -4.312   4.831  0.00  0.00    +0.054 A 
ATOM      5  C   UNL     1       8.450  -3.131   4.340  0.00  0.00    +0.035 A 
ATOM      6  C   UNL     1       9.226  -1.973   4.317  0.00  0.00    +0.027 A 
ATOM      7  C   UNL     1      10.519  -1.990   4.793  0.00  0.00    +0.050 A 
ATOM      8  C   UNL     1      11.061  -3.166   5.289  0.00  0.00    +0.156 A 
ATOM      9  O   UNL     1      12.266  -3.495   5.806  0.00  0.00    -0.435 OA
ENDROOT
BRANCH   1  14
ATOM     10  C   UNL     1      16.629  -7.709   8.456  0.00  0.00    +0.044 C 
ATOM     11  C   UNL     1      15.479  -6.948   7.847  0.00  0.00    -0.049 A 
ATOM     12  C   UNL     1      15.622  -5.603   7.554  0.00  0.00    +0.004 A 
ATOM     13  C   UNL     1      14.574  -4.900   6.997  0.00  0.00    +0.015 A 
ATOM     14  C   UNL     1      13.367  -5.548   6.728  0.00  0.00    +0.055 A 
ATOM     15  C   UNL     1      13.227  -6.905   7.031  0.00  0.00    +0.053 A 
ATOM     16  C   UNL     1      14.287  -7.597   7.584  0.00  0.00    +0.024 A 
ATOM     17 CL   UNL     1      11.729  -7.719   6.708  0.00  0.00    -0.083 Cl
ENDBRANCH   1  14
BRANCH   5  18
ATOM     18  N   UNL     1       7.136  -3.099   3.859  0.00  0.00    -0.297 N 
ATOM     19  H   UNL     1       6.757  -3.925   3.239  0.00  0.00    +0.154 HD
BRANCH  18  20
ATOM     20  C   UNL     1       6.335  -2.057   4.155  0.00  0.00    +0.141 C 
ATOM     21  S   UNL     1       6.874  -0.842   5.234  0.00  0.00    -0.018 S 
BRANCH  20  22
ATOM     22  N   UNL     1       5.108  -1.970   3.602  0.00  0.00    -0.264 N 
ATOM     23  C   UNL     1       4.307  -0.928   3.899  0.00  0.00    +0.250 C 
ATOM     24  O   UNL     1       4.691  -0.065   4.665  0.00  0.00    -0.270 OA
ATOM     25  H   UNL     1       4.762  -2.751   2.909  0.00  0.00    +0.157 HD
BRANCH  23  26
ATOM     26  C   UNL     1       2.965  -0.834   3.293  0.00  0.00    +0.041 A 
ATOM     27  C   UNL     1       2.523  -1.824   2.413  0.00  0.00    +0.017 A 
ATOM     28  C   UNL     1       1.269  -1.734   1.849  0.00  0.00    +0.050 A 
ATOM     29  C   UNL     1       0.441  -0.662   2.152  0.00  0.00    +0.166 A 
ATOM     30  C   UNL     1       0.877   0.331   3.032  0.00  0.00    +0.167 A 
ATOM     31  C   UNL     1       2.133   0.246   3.600  0.00  0.00    +0.062 A 
ATOM     32  O   UNL     1      -0.113   1.262   3.161  0.00  0.00    -0.453 OA
ATOM     33  C   UNL     1      -1.308   0.622   2.676  0.00  0.00    +0.466 C 
ATOM     34  O   UNL     1      -0.818  -0.349   1.734  0.00  0.00    -0.453 OA
ENDBRANCH  23  26
ENDBRANCH  20  22
ENDBRANCH  18  20
ENDBRANCH   5  18
TORSDOF 5
