REMARK  Name = ZINC66522451
REMARK  6 active torsions:
REMARK  status: ('A' for Active; 'I' for Inactive)
REMARK    1  A    between atoms: C_1  and  C_2
REMARK    2  A    between atoms: C_9  and  C_10
REMARK    3  A    between atoms: C_9  and  C_11
REMARK    4  A    between atoms: C_13  and  O_15
REMARK    5  A    between atoms: O_15  and  C_16
REMARK    6  A    between atoms: C_16  and  C_18
REMARK                            x       y       z     vdW  Elec       q    Type
REMARK                         _______ _______ _______ _____ _____    ______ ____
ROOT
ATOM      1  C   UNL     1       1.136   0.239   3.480  0.00  0.00    +0.345 C 
ATOM      2  O   UNL     1       2.259  -0.217   3.390  0.00  0.00    -0.245 OA
ENDROOT
BRANCH   1   3
ATOM      3  C   UNL     1       0.721   0.934   4.707  0.00  0.00    +0.124 A 
ATOM      4  C   UNL     1       1.598   1.086   5.772  0.00  0.00    +0.033 A 
ATOM      5  C   UNL     1       1.154   1.762   6.929  0.00  0.00    +0.038 A 
ATOM      6  C   UNL     1      -0.132   2.272   7.000  0.00  0.00    +0.030 A 
ATOM      7  N   UNL     1      -0.986   2.119   5.968  0.00  0.00    -0.325 N 
ATOM      8  H   UNL     1      -1.884   2.479   6.044  0.00  0.00    +0.169 HD
ATOM      9  C   UNL     1      -0.629   1.491   4.836  0.00  0.00    +0.263 A 
ATOM     10  O   UNL     1      -1.426   1.380   3.922  0.00  0.00    -0.267 OA
ATOM     11  C   UNL     1      -0.616   3.014   8.219  0.00  0.00    +0.054 C 
ATOM     12  C   UNL     1       0.190   2.634   9.457  0.00  0.00    +0.014 C 
ATOM     13  C   UNL     1       1.682   2.859   9.179  0.00  0.00    +0.080 C 
ATOM     14  C   UNL     1       2.079   1.914   8.065  0.00  0.00    +0.165 C 
ATOM     15  O   UNL     1       3.125   1.301   8.107  0.00  0.00    -0.292 OA
ENDBRANCH   1   3
BRANCH   1  16
ATOM     16  O   UNL     1       0.271   0.106   2.454  0.00  0.00    -0.457 OA
BRANCH  16  26
ATOM     17  C   UNL     1       0.035   1.497   0.081  0.00  0.00    +0.011 C 
ATOM     18  C   UNL     1       0.032  -0.033   0.046  0.00  0.00    +0.030 C 
ATOM     19  C   UNL     1      -1.418  -0.550   0.055  0.00  0.00    +0.002 C 
ATOM     20  C   UNL     1      -1.848  -0.956   1.480  0.00  0.00    +0.008 C 
ATOM     21  C   UNL     1      -1.085  -2.269   1.207  0.00  0.00    -0.001 C 
ATOM     22  C   UNL     1      -1.475  -2.051  -0.286  0.00  0.00    -0.029 C 
ATOM     23  C   UNL     1      -0.411  -2.499  -1.289  0.00  0.00    +0.011 C 
ATOM     24  C   UNL     1      -2.878  -2.552  -0.635  0.00  0.00    +0.011 C 
ATOM     25  C   UNL     1       0.426  -2.082   1.431  0.00  0.00    +0.049 C 
ATOM     26  C   UNL     1       0.742  -0.581   1.293  0.00  0.00    +0.180 C 
ENDBRANCH  16  26
ENDBRANCH   1  16
TORSDOF 3
