REMARK  Name = ZINC06244829
REMARK  10 active torsions:
REMARK  status: ('A' for Active; 'I' for Inactive)
REMARK    1  A    between atoms: C_1  and  C_2
REMARK    2  A    between atoms: C_5  and  C_41
REMARK    3  A    between atoms: C_9  and  C_14
REMARK    4  A    between atoms: C_14  and  C_16
REMARK    5  A    between atoms: C_14  and  N_74
REMARK    6  A    between atoms: N_20  and  C_21
REMARK    7  A    between atoms: C_21  and  C_22
REMARK    8  A    between atoms: N_30  and  C_33
REMARK    9  A    between atoms: C_36  and  O_39
REMARK   10  A    between atoms: O_39  and  C_40
REMARK                            x       y       z     vdW  Elec       q    Type
REMARK                         _______ _______ _______ _____ _____    ______ ____
ROOT
ATOM      1  C   UNL     1       1.379   7.618  -0.300  0.00  0.00    +0.039 C 
ENDROOT
BRANCH   1  10
ATOM      2  C   UNL     1       2.913   3.693   2.759  0.00  0.00    +0.044 C 
ATOM      3  C   UNL     1       3.000   3.211   1.333  0.00  0.00    -0.041 A 
ATOM      4  C   UNL     1       3.421   1.939   1.064  0.00  0.00    +0.004 A 
ATOM      5  C   UNL     1       3.509   1.486  -0.245  0.00  0.00    +0.005 A 
ATOM      6  C   UNL     1       3.165   2.307  -1.298  0.00  0.00    -0.026 A 
ATOM      7  C   UNL     1       2.729   3.604  -1.048  0.00  0.00    +0.052 A 
ATOM      8  C   UNL     1       2.646   4.061   0.281  0.00  0.00    +0.002 A 
ATOM      9  C   UNL     1       2.186   5.428   0.534  0.00  0.00    +0.018 A 
ATOM     10  C   UNL     1       1.856   6.207  -0.525  0.00  0.00    +0.011 A 
ATOM     11  C   UNL     1       1.957   5.700  -1.839  0.00  0.00    +0.251 A 
ATOM     12  O   UNL     1       1.655   6.417  -2.777  0.00  0.00    -0.268 OA
ATOM     13  N   UNL     1       2.378   4.446  -2.081  0.00  0.00    -0.322 N 
ATOM     14  H   UNL     1       2.436   4.130  -2.996  0.00  0.00    +0.169 HD
ATOM     15  C   UNL     1       3.260   1.801  -2.714  0.00  0.00    +0.046 C 
ENDBRANCH   1  10
BRANCH   1  21
ATOM     16  C   UNL     1       3.646   8.423  -0.583  0.00  0.00    -0.058 C 
ATOM     17  C   UNL     1       4.531   9.352  -1.417  0.00  0.00    +0.086 C 
ATOM     18  N   UNL     1       4.060  10.736  -1.270  0.00  0.00    -0.333 N 
ATOM     19  C   UNL     1       2.665  10.865  -1.713  0.00  0.00    +0.086 C 
ATOM     20  C   UNL     1       1.779   9.936  -0.879  0.00  0.00    -0.058 C 
ATOM     21  N   UNL     1       2.250   8.546  -1.054  0.00  0.00    +0.391 N 
ATOM     22  H   UNL     1       2.211   8.303  -2.051  0.00  0.00    -0.080 HD
BRANCH  18  23
ATOM     23  C   UNL     1       4.890  11.625  -1.962  0.00  0.00    +0.030 A 
ATOM     24  C   UNL     1       4.354  12.468  -2.926  0.00  0.00    +0.027 A 
ATOM     25  C   UNL     1       5.173  13.350  -3.604  0.00  0.00    +0.047 A 
ATOM     26  C   UNL     1       6.532  13.384  -3.331  0.00  0.00    +0.120 A 
ATOM     27  C   UNL     1       7.069  12.538  -2.372  0.00  0.00    +0.047 A 
ATOM     28  C   UNL     1       6.251  11.660  -1.689  0.00  0.00    +0.027 A 
BRANCH  26  29
ATOM     29  O   UNL     1       7.339  14.248  -4.003  0.00  0.00    -0.495 OA
ATOM     30  C   UNL     1       6.719  15.091  -4.977  0.00  0.00    +0.277 C 
ENDBRANCH  26  29
ENDBRANCH  18  23
ENDBRANCH   1  21
BRANCH   1  31
ATOM     31  C   UNL     1       1.422   7.934   1.173  0.00  0.00    +0.143 A 
ATOM     32  N   UNL     1       2.496   8.085   1.910  0.00  0.00    -0.115 NA
ATOM     33  N   UNL     1       2.119   8.346   3.114  0.00  0.00    -0.023 NA
ATOM     34  N   UNL     1       0.833   8.366   3.164  0.00  0.00    -0.044 NA
ATOM     35  N   UNL     1       0.366   8.122   1.986  0.00  0.00    -0.228 N 
BRANCH  35  36
ATOM     36  C   UNL     1      -1.047   8.057   1.606  0.00  0.00    +0.178 C 
BRANCH  36  37
ATOM     37  C   UNL     1      -1.590   6.656   1.896  0.00  0.00    +0.140 C 
ATOM     38  C   UNL     1      -3.083   6.564   1.492  0.00  0.00    +0.035 C 
ATOM     39  C   UNL     1      -3.227   5.037   1.246  0.00  0.00    +0.031 C 
ATOM     40  C   UNL     1      -1.842   4.664   0.676  0.00  0.00    +0.160 C 
ATOM     41  O   UNL     1      -0.919   5.683   1.081  0.00  0.00    -0.375 OA
ENDBRANCH  36  37
ENDBRANCH  35  36
ENDBRANCH   1  31
TORSDOF 7
