REMARK  Name = ZINC63498848
REMARK  5 active torsions:
REMARK  status: ('A' for Active; 'I' for Inactive)
REMARK    1  A    between atoms: C_5  and  C_7
REMARK    2  A    between atoms: N_8  and  N_9
REMARK    3  A    between atoms: C_10  and  C_12
REMARK    4  A    between atoms: C_12  and  S_13
REMARK    5  A    between atoms: S_13  and  C_14
REMARK                            x       y       z     vdW  Elec       q    Type
REMARK                         _______ _______ _______ _____ _____    ______ ____
ROOT
ATOM      1  N   UNL     1       2.413  -4.185  -0.045  0.00  0.00    -0.206 N 
ATOM      2  C   UNL     1       3.593  -4.837  -0.061  0.00  0.00    +0.242 C 
ATOM      3  O   UNL     1       4.632  -4.210  -0.068  0.00  0.00    -0.273 OA
ATOM      4  H   UNL     1       1.583  -4.686  -0.040  0.00  0.00    +0.177 HD
ENDROOT
BRANCH   1   6
ATOM      5  C   UNL     1       1.251  -2.157  -0.022  0.00  0.00    +0.139 C 
ATOM      6  N   UNL     1       2.387  -2.784  -0.037  0.00  0.00    -0.188 NA
BRANCH   5  11
ATOM      7  C   UNL     1      -0.017   1.375   0.010  0.00  0.00    +0.001 A 
ATOM      8  C   UNL     1       1.170   2.087   0.002  0.00  0.00    +0.001 A 
ATOM      9  C   UNL     1       2.383   1.422  -0.013  0.00  0.00    +0.015 A 
ATOM     10  C   UNL     1       2.417   0.042  -0.021  0.00  0.00    +0.022 A 
ATOM     11  C   UNL     1       1.223  -0.683  -0.013  0.00  0.00    +0.008 A 
ATOM     12  C   UNL     1       0.002  -0.004   0.002  0.00  0.00    +0.010 A 
ATOM     13  I   UNL     1       4.256  -0.963  -0.046  0.00  0.00    -0.043 I 
ENDBRANCH   5  11
ENDBRANCH   1   6
BRANCH   2  14
ATOM     14  C   UNL     1       3.622  -6.343  -0.070  0.00  0.00    +0.170 C 
BRANCH  14  15
ATOM     15  S   UNL     1       5.343  -6.915  -0.091  0.00  0.00    -0.106 S 
BRANCH  15  16
ATOM     16  C   UNL     1       5.205  -8.724  -0.100  0.00  0.00    +0.236 C 
ATOM     17  N   UNL     1       4.405  -9.162  -1.250  0.00  0.00    -0.355 N 
ATOM     18  C   UNL     1       3.364  -9.791  -0.785  0.00  0.00    +0.061 A 
ATOM     19  C   UNL     1       2.220 -10.447  -1.434  0.00  0.00    +0.027 A 
ATOM     20  C   UNL     1       1.270 -11.030  -0.677  0.00  0.00    +0.002 A 
ATOM     21  C   UNL     1       1.322 -11.041   0.729  0.00  0.00    +0.002 A 
ATOM     22  C   UNL     1       2.325 -10.469   1.423  0.00  0.00    +0.027 A 
ATOM     23  C   UNL     1       3.418  -9.802   0.702  0.00  0.00    +0.061 A 
ATOM     24  N   UNL     1       4.491  -9.181   1.099  0.00  0.00    -0.355 N 
ATOM     25  H   UNL     1       4.613  -9.011  -2.185  0.00  0.00    +0.162 HD
ATOM     26  H   UNL     1       4.768  -9.044   2.019  0.00  0.00    +0.162 HD
ENDBRANCH  15  16
ENDBRANCH  14  15
ENDBRANCH   2  14
TORSDOF 5
