REMARK  Name = ZINC20836309
REMARK  13 active torsions:
REMARK  status: ('A' for Active; 'I' for Inactive)
REMARK    1  A    between atoms: C_1  and  C_2
REMARK    2  A    between atoms: C_2  and  C_35
REMARK    3  A    between atoms: C_4  and  N_10
REMARK    4  A    between atoms: C_6  and  C_8
REMARK    5  A    between atoms: C_6  and  C_9
REMARK    6  A    between atoms: C_11  and  C_13
REMARK    7  A    between atoms: C_13  and  S_14
REMARK    8  A    between atoms: S_14  and  C_15
REMARK    9  A    between atoms: N_20  and  N_21
REMARK   10  A    between atoms: C_22  and  C_23
REMARK   11  A    between atoms: C_25  and  N_32
REMARK   12  A    between atoms: C_27  and  O_29
REMARK   13  A    between atoms: O_29  and  C_30
REMARK                            x       y       z     vdW  Elec       q    Type
REMARK                         _______ _______ _______ _____ _____    ______ ____
ROOT
ATOM      1  C   UNL     1      -0.239   9.476  -3.804  0.00  0.00    +0.211 A 
ATOM      2  N   UNL     1      -0.466  10.438  -4.747  0.00  0.00    -0.186 NA
ATOM      3  C   UNL     1      -0.314  11.643  -4.106  0.00  0.00    +0.232 A 
ATOM      4  N   UNL     1      -0.006  11.378  -2.825  0.00  0.00    -0.245 N 
ATOM      5  N   UNL     1       0.033  10.105  -2.645  0.00  0.00    -0.144 NA
ATOM      6  N   UNL     1      -0.447  12.856  -4.655  0.00  0.00    -0.205 N 
ATOM      7  H   UNL     1      -0.702  12.953  -5.721  0.00  0.00    +0.177 HD
ATOM      8  H   UNL     1       0.168  12.204  -2.119  0.00  0.00    +0.192 HD
ENDROOT
BRANCH   6   9
ATOM      9  N   UNL     1      -0.275  13.913  -3.935  0.00  0.00    -0.188 NA
ATOM     10  C   UNL     1      -0.406  15.107  -4.476  0.00  0.00    +0.138 C 
BRANCH  10  11
ATOM     11  C   UNL     1      -0.217  16.267  -3.686  0.00  0.00    +0.000 A 
ATOM     12  C   UNL     1       0.111  16.147  -2.321  0.00  0.00    +0.046 A 
ATOM     13  C   UNL     1       0.292  17.265  -1.562  0.00  0.00    +0.177 A 
ATOM     14  C   UNL     1       0.156  18.531  -2.128  0.00  0.00    +0.250 A 
ATOM     15  C   UNL     1      -0.170  18.666  -3.483  0.00  0.00    +0.169 A 
ATOM     16  C   UNL     1      -0.350  17.544  -4.262  0.00  0.00    +0.059 A 
ATOM     17  O   UNL     1       0.338  19.635  -1.364  0.00  0.00    -0.282 OA
BRANCH  13  18
ATOM     18  N   UNL     1       0.637  17.133  -0.128  0.00  0.00    +0.060 N 
ATOM     19  O   UNL     1       0.767  15.938   0.410  0.00  0.00    -0.126 OA
ATOM     20  O   UNL     1       0.813  18.210   0.609  0.00  0.00    -0.126 OA
ENDBRANCH  13  18
BRANCH  15  21
ATOM     21  O   UNL     1      -0.303  19.903  -4.031  0.00  0.00    -0.491 OA
ATOM     22  C   UNL     1      -0.637  19.965  -5.419  0.00  0.00    +0.277 C 
ENDBRANCH  15  21
ENDBRANCH  10  11
ENDBRANCH   6   9
BRANCH   1  23
ATOM     23  S   UNL     1      -0.296   7.783  -4.048  0.00  0.00    -0.075 S 
BRANCH  23  24
ATOM     24  C   UNL     1       0.105   7.210  -2.379  0.00  0.00    +0.173 C 
BRANCH  24  26
ATOM     25  N   UNL     1       0.389   5.051  -1.207  0.00  0.00    -0.312 N 
ATOM     26  C   UNL     1       0.113   5.703  -2.353  0.00  0.00    +0.224 C 
ATOM     27  O   UNL     1      -0.129   5.078  -3.364  0.00  0.00    -0.275 OA
ATOM     28  H   UNL     1       0.608   5.617  -0.290  0.00  0.00    +0.149 HD
BRANCH  25  32
ATOM     29  C   UNL     1      -0.944   0.975  -2.269  0.00  0.00    -0.010 C 
ATOM     30  C   UNL     1      -1.042   1.551  -0.852  0.00  0.00    -0.072 C 
ATOM     31  C   UNL     1      -1.022   3.076  -0.918  0.00  0.00    +0.009 C 
ATOM     32  C   UNL     1       0.396   3.583  -1.181  0.00  0.00    +0.070 C 
ATOM     33  C   UNL     1       1.298   3.104  -0.042  0.00  0.00    +0.009 C 
ATOM     34  C   UNL     1       1.320   1.577  -0.002  0.00  0.00    -0.072 C 
ATOM     35  N   UNL     1      -0.012   1.005   0.008  0.00  0.00    +0.386 N 
ATOM     36  C   UNL     1       2.035   1.156   1.301  0.00  0.00    -0.010 C 
ATOM     37  C   UNL     1       2.151   1.041  -1.172  0.00  0.00    -0.010 C 
ATOM     38  C   UNL     1      -2.415   1.129  -0.282  0.00  0.00    -0.010 C 
ATOM     39  H   UNL     1      -0.328   1.088   1.058  0.00  0.00    -0.084 HD
ATOM     40  H   UNL     1       0.152  -0.053  -0.244  0.00  0.00    -0.084 HD
ENDBRANCH  25  32
ENDBRANCH  24  26
ENDBRANCH  23  24
ENDBRANCH   1  23
TORSDOF 8
