REMARK  Name = ZINC63566999
REMARK  3 active torsions:
REMARK  status: ('A' for Active; 'I' for Inactive)
REMARK    1  A    between atoms: C_4  and  N_8
REMARK    2  A    between atoms: C_9  and  C_11
REMARK    3  A    between atoms: C_11  and  N_12
REMARK                            x       y       z     vdW  Elec       q    Type
REMARK                         _______ _______ _______ _____ _____    ______ ____
ROOT
ATOM      1  N   UNL     1       3.623  -0.652  -0.036  0.00  0.00    -0.283 N 
ATOM      2  C   UNL     1       3.646  -1.996   0.058  0.00  0.00    +0.231 C 
ATOM      3  O   UNL     1       2.607  -2.622   0.065  0.00  0.00    -0.274 OA
ATOM      4  H   UNL     1       4.454  -0.156  -0.108  0.00  0.00    +0.155 HD
ENDROOT
BRANCH   1   8
ATOM      5  C   UNL     1      -0.018   1.377  -0.022  0.00  0.00    +0.021 A 
ATOM      6  C   UNL     1       1.092   1.948   0.574  0.00  0.00    +0.023 A 
ATOM      7  C   UNL     1       2.300   1.278   0.571  0.00  0.00    +0.062 A 
ATOM      8  C   UNL     1       2.400   0.029  -0.032  0.00  0.00    +0.053 A 
ATOM      9  C   UNL     1       1.284  -0.541  -0.628  0.00  0.00    +0.044 A 
ATOM     10  C   UNL     1       0.077   0.135  -0.623  0.00  0.00    +0.043 A 
ATOM     11 CL   UNL     1      -1.319  -0.578  -1.369  0.00  0.00    -0.083 Cl
ATOM     12 CL   UNL     1       3.693   1.995   1.318  0.00  0.00    -0.082 Cl
ENDBRANCH   1   8
BRANCH   2  13
ATOM     13  C   UNL     1       4.963  -2.722   0.155  0.00  0.00    +0.181 C 
BRANCH  13  14
ATOM     14  N   UNL     1       4.720  -4.168   0.247  0.00  0.00    -0.286 NA
ATOM     15  C   UNL     1       4.053  -4.511   1.512  0.00  0.00    +0.113 C 
ATOM     16  C   UNL     1       3.774  -6.015   1.551  0.00  0.00    +0.175 C 
ATOM     17  O   UNL     1       4.998  -6.733   1.367  0.00  0.00    -0.374 OA
ATOM     18  C   UNL     1       5.661  -6.421   0.140  0.00  0.00    +0.135 C 
ATOM     19  C   UNL     1       5.971  -4.923   0.104  0.00  0.00    +0.086 C 
ATOM     20  C   UNL     1       6.645  -4.579  -1.225  0.00  0.00    +0.021 C 
ATOM     21  C   UNL     1       7.951  -5.368  -1.347  0.00  0.00    +0.002 C 
ATOM     22  C   UNL     1       7.653  -6.867  -1.293  0.00  0.00    +0.003 C 
ATOM     23  C   UNL     1       6.966  -7.210   0.031  0.00  0.00    +0.033 C 
ENDBRANCH  13  14
ENDBRANCH   2  13
TORSDOF 3
