REMARK  Name = ZINC09665551
REMARK  9 active torsions:
REMARK  status: ('A' for Active; 'I' for Inactive)
REMARK    1  A    between atoms: C_1  and  C_2
REMARK    2  A    between atoms: C_5  and  C_16
REMARK    3  A    between atoms: C_7  and  N_8
REMARK    4  A    between atoms: C_9  and  C_11
REMARK    5  A    between atoms: C_16  and  O_18
REMARK    6  A    between atoms: O_18  and  C_19
REMARK    7  A    between atoms: C_19  and  C_21
REMARK    8  A    between atoms: C_19  and  C_22
REMARK    9  A    between atoms: N_24  and  C_25
REMARK                            x       y       z     vdW  Elec       q    Type
REMARK                         _______ _______ _______ _____ _____    ______ ____
ROOT
ATOM      1  C   UNL     1       0.099  -4.100  -0.384  0.00  0.00    +0.340 C 
ATOM      2  O   UNL     1       0.058  -4.675  -1.453  0.00  0.00    -0.245 OA
ENDROOT
BRANCH   1   7
ATOM      3  C   UNL     1       0.187   1.655  -0.197  0.00  0.00    +0.045 C 
ATOM      4  C   UNL     1       0.164   0.149  -0.248  0.00  0.00    -0.029 A 
ATOM      5  C   UNL     1       0.190  -0.580   0.926  0.00  0.00    +0.006 A 
ATOM      6  C   UNL     1       0.169  -1.959   0.888  0.00  0.00    +0.015 A 
ATOM      7  C   UNL     1       0.121  -2.623  -0.340  0.00  0.00    +0.061 A 
ATOM      8  C   UNL     1       0.096  -1.887  -1.525  0.00  0.00    +0.038 A 
ATOM      9  C   UNL     1       0.112  -0.502  -1.475  0.00  0.00    +0.037 A 
BRANCH   9  10
ATOM     10  N   UNL     1       0.080   0.241  -2.660  0.00  0.00    -0.279 N 
ATOM     11  C   UNL     1      -0.454  -0.293  -3.776  0.00  0.00    +0.284 C 
ATOM     12  O   UNL     1      -0.999  -1.381  -3.730  0.00  0.00    -0.266 OA
ATOM     13  H   UNL     1       0.442   1.141  -2.678  0.00  0.00    +0.155 HD
BRANCH  11  14
ATOM     14  C   UNL     1      -0.378   0.435  -5.046  0.00  0.00    +0.189 A 
ATOM     15  C   UNL     1      -0.875   0.011  -6.245  0.00  0.00    +0.054 A 
ATOM     16  C   UNL     1      -0.581   1.014  -7.182  0.00  0.00    +0.042 A 
ATOM     17  C   UNL     1       0.075   1.995  -6.521  0.00  0.00    +0.196 A 
ATOM     18  O   UNL     1       0.190   1.645  -5.234  0.00  0.00    -0.458 OA
ENDBRANCH  11  14
ENDBRANCH   9  10
ENDBRANCH   1   7
BRANCH   1  19
ATOM     19  O   UNL     1       0.125  -4.808   0.762  0.00  0.00    -0.449 OA
BRANCH  19  20
ATOM     20  C   UNL     1       0.101  -6.255   0.643  0.00  0.00    +0.259 C 
ATOM     21  C   UNL     1       1.534  -6.784   0.556  0.00  0.00    +0.062 C 
BRANCH  20  22
ATOM     22  C   UNL     1      -0.581  -6.847   1.849  0.00  0.00    +0.258 C 
ATOM     23  O   UNL     1      -1.004  -6.121   2.724  0.00  0.00    -0.271 OA
ATOM     24  N   UNL     1      -0.719  -8.184   1.957  0.00  0.00    -0.281 N 
ATOM     25  H   UNL     1      -0.320  -8.768   1.293  0.00  0.00    +0.155 HD
BRANCH  24  26
ATOM     26  C   UNL     1      -1.439  -8.729   3.027  0.00  0.00    +0.052 A 
ATOM     27  C   UNL     1      -1.396  -8.122   4.275  0.00  0.00    +0.026 A 
ATOM     28  C   UNL     1      -2.108  -8.662   5.329  0.00  0.00    +0.022 A 
ATOM     29  C   UNL     1      -2.864  -9.806   5.142  0.00  0.00    +0.042 A 
ATOM     30  C   UNL     1      -2.909 -10.413   3.900  0.00  0.00    +0.041 A 
ATOM     31  C   UNL     1      -2.203  -9.875   2.840  0.00  0.00    +0.064 A 
ATOM     32 CL   UNL     1      -2.265 -10.633   1.280  0.00  0.00    -0.082 Cl
ATOM     33 CL   UNL     1      -3.756 -10.480   6.469  0.00  0.00    -0.083 Cl
ENDBRANCH  24  26
ENDBRANCH  20  22
ENDBRANCH  19  20
ENDBRANCH   1  19
TORSDOF 7
