REMARK  Name = ZINC58353068
REMARK  9 active torsions:
REMARK  status: ('A' for Active; 'I' for Inactive)
REMARK    1  A    between atoms: C_1  and  C_2
REMARK    2  A    between atoms: C_2  and  C_3
REMARK    3  A    between atoms: C_2  and  C_4
REMARK    4  A    between atoms: C_2  and  O_5
REMARK    5  A    between atoms: O_5  and  C_6
REMARK    6  A    between atoms: C_12  and  C_15
REMARK    7  A    between atoms: N_17  and  N_18
REMARK    8  A    between atoms: C_19  and  C_21
REMARK    9  A    between atoms: C_21  and  C_22
REMARK                            x       y       z     vdW  Elec       q    Type
REMARK                         _______ _______ _______ _____ _____    ______ ____
ROOT
ATOM      1  C   UNL     1       6.303  -0.939  -3.172  0.00  0.00    +0.234 C 
ATOM      2  O   UNL     1       6.794  -1.260  -4.233  0.00  0.00    -0.274 OA
ATOM      3  N   UNL     1       7.023  -0.224  -2.285  0.00  0.00    -0.234 N 
ATOM      4  H   UNL     1       6.631   0.034  -1.436  0.00  0.00    +0.173 HD
ENDROOT
BRANCH   1  11
ATOM      5  C   UNL     1       1.952  -0.085  -1.337  0.00  0.00    +0.403 C 
ATOM      6  O   UNL     1       2.488   0.619  -0.503  0.00  0.00    -0.226 OA
ATOM      7  N   UNL     1       2.641  -0.485  -2.424  0.00  0.00    -0.267 N 
ATOM      8  C   UNL     1       2.005  -1.331  -3.443  0.00  0.00    +0.111 C 
ATOM      9  C   UNL     1       2.874  -2.573  -3.666  0.00  0.00    +0.020 C 
ATOM     10  C   UNL     1       4.300  -2.137  -4.011  0.00  0.00    +0.016 C 
ATOM     11  C   UNL     1       4.888  -1.339  -2.845  0.00  0.00    +0.094 C 
ATOM     12  C   UNL     1       4.040  -0.078  -2.616  0.00  0.00    +0.124 C 
BRANCH   5  13
ATOM     13  O   UNL     1       0.671  -0.465  -1.174  0.00  0.00    -0.445 OA
BRANCH  13  15
ATOM     14  C   UNL     1      -0.019   1.526   0.010  0.00  0.00    +0.055 C 
ATOM     15  C   UNL     1       0.002  -0.004   0.002  0.00  0.00    +0.107 C 
ATOM     16  C   UNL     1       0.742  -0.511   1.242  0.00  0.00    +0.055 C 
ATOM     17  C   UNL     1      -1.433  -0.534   0.013  0.00  0.00    +0.055 C 
ENDBRANCH  13  15
ENDBRANCH   5  13
ENDBRANCH   1  11
BRANCH   3  18
ATOM     18  N   UNL     1       8.339   0.148  -2.589  0.00  0.00    -0.234 N 
ATOM     19  C   UNL     1       9.060   0.864  -1.702  0.00  0.00    +0.233 C 
ATOM     20  O   UNL     1       8.569   1.185  -0.641  0.00  0.00    -0.274 OA
ATOM     21  H   UNL     1       8.732  -0.109  -3.438  0.00  0.00    +0.173 HD
BRANCH  19  22
ATOM     22  C   UNL     1      10.475   1.264  -2.030  0.00  0.00    +0.132 C 
BRANCH  22  23
ATOM     23  C   UNL     1      11.053   2.050  -0.881  0.00  0.00    -0.038 A 
ATOM     24  C   UNL     1      10.913   3.425  -0.845  0.00  0.00    +0.005 A 
ATOM     25  C   UNL     1      11.443   4.146   0.208  0.00  0.00    +0.020 A 
ATOM     26  C   UNL     1      12.114   3.492   1.226  0.00  0.00    +0.041 A 
ATOM     27  C   UNL     1      12.254   2.116   1.189  0.00  0.00    +0.020 A 
ATOM     28  C   UNL     1      11.719   1.395   0.138  0.00  0.00    +0.005 A 
ATOM     29 CL   UNL     1      12.780   4.398   2.549  0.00  0.00    -0.084 Cl
ENDBRANCH  22  23
ENDBRANCH  19  22
ENDBRANCH   3  18
TORSDOF 6
