REMARK  Name = ZINC02288412
REMARK  7 active torsions:
REMARK  status: ('A' for Active; 'I' for Inactive)
REMARK    1  A    between atoms: C_1  and  N_2
REMARK    2  A    between atoms: N_10  and  N_11
REMARK    3  A    between atoms: C_12  and  C_14
REMARK    4  A    between atoms: C_14  and  N_15
REMARK    5  A    between atoms: C_16  and  C_18
REMARK    6  A    between atoms: C_18  and  C_19
REMARK    7  A    between atoms: C_18  and  C_25
REMARK                            x       y       z     vdW  Elec       q    Type
REMARK                         _______ _______ _______ _____ _____    ______ ____
ROOT
ATOM      1  C   UNL     1       4.410  -5.265   0.722  0.00  0.00    +0.201 C 
ENDROOT
BRANCH   1   3
ATOM      2  N   UNL     1       1.983  -5.375   1.186  0.00  0.00    -0.205 N 
ATOM      3  C   UNL     1       3.126  -6.032   0.907  0.00  0.00    +0.249 C 
ATOM      4  O   UNL     1       3.122  -7.240   0.805  0.00  0.00    -0.272 OA
ATOM      5  H   UNL     1       1.986  -4.409   1.267  0.00  0.00    +0.177 HD
BRANCH   2  15
ATOM      6  C   UNL     1      -2.382  -2.441   2.284  0.00  0.00    +0.138 C 
ATOM      7  N   UNL     1      -1.804  -3.768   2.059  0.00  0.00    -0.269 N 
ATOM      8  C   UNL     1      -2.528  -4.955   2.100  0.00  0.00    +0.046 A 
ATOM      9  C   UNL     1      -3.874  -5.208   2.341  0.00  0.00    +0.024 A 
ATOM     10  C   UNL     1      -4.348  -6.504   2.325  0.00  0.00    +0.002 A 
ATOM     11  C   UNL     1      -3.496  -7.564   2.070  0.00  0.00    +0.001 A 
ATOM     12  C   UNL     1      -2.156  -7.332   1.828  0.00  0.00    +0.012 A 
ATOM     13  C   UNL     1      -1.669  -6.030   1.842  0.00  0.00    +0.028 A 
ATOM     14  C   UNL     1      -0.323  -5.449   1.629  0.00  0.00    +0.153 C 
ATOM     15  N   UNL     1       0.789  -6.088   1.358  0.00  0.00    -0.174 NA
ATOM     16  C   UNL     1      -0.508  -3.992   1.782  0.00  0.00    +0.271 C 
ATOM     17  O   UNL     1       0.359  -3.144   1.679  0.00  0.00    -0.268 OA
ENDBRANCH   2  15
ENDBRANCH   1   3
BRANCH   1  18
ATOM     18  N   UNL     1       5.500  -6.200   0.430  0.00  0.00    -0.306 N 
ATOM     19  C   UNL     1       6.748  -5.737   0.226  0.00  0.00    +0.225 C 
ATOM     20  O   UNL     1       6.971  -4.546   0.283  0.00  0.00    -0.275 OA
ATOM     21  H   UNL     1       5.322  -7.153   0.384  0.00  0.00    +0.149 HD
BRANCH  19  22
ATOM     22  C   UNL     1       7.869  -6.699  -0.075  0.00  0.00    +0.135 C 
BRANCH  22  23
ATOM     23  C   UNL     1       7.553  -7.461  -1.336  0.00  0.00    -0.031 A 
ATOM     24  C   UNL     1       7.189  -6.780  -2.482  0.00  0.00    +0.005 A 
ATOM     25  C   UNL     1       6.899  -7.479  -3.639  0.00  0.00    +0.000 A 
ATOM     26  C   UNL     1       6.973  -8.859  -3.649  0.00  0.00    +0.000 A 
ATOM     27  C   UNL     1       7.337  -9.540  -2.503  0.00  0.00    +0.000 A 
ATOM     28  C   UNL     1       7.632  -8.841  -1.347  0.00  0.00    +0.005 A 
ENDBRANCH  22  23
BRANCH  22  29
ATOM     29  C   UNL     1       9.153  -5.932  -0.260  0.00  0.00    -0.031 A 
ATOM     30  C   UNL     1       9.208  -4.882  -1.158  0.00  0.00    +0.005 A 
ATOM     31  C   UNL     1      10.386  -4.179  -1.328  0.00  0.00    +0.000 A 
ATOM     32  C   UNL     1      11.509  -4.525  -0.600  0.00  0.00    +0.000 A 
ATOM     33  C   UNL     1      11.454  -5.574   0.299  0.00  0.00    +0.000 A 
ATOM     34  C   UNL     1      10.275  -6.274   0.472  0.00  0.00    +0.005 A 
ENDBRANCH  22  29
ENDBRANCH  19  22
ENDBRANCH   1  18
TORSDOF 6
