REMARK  Name = ZINC31988532
REMARK  11 active torsions:
REMARK  status: ('A' for Active; 'I' for Inactive)
REMARK    1  A    between atoms: C_1  and  C_2
REMARK    2  A    between atoms: C_2  and  N_3
REMARK    3  A    between atoms: N_3  and  C_4
REMARK    4  A    between atoms: N_3  and  C_6
REMARK    5  A    between atoms: C_4  and  C_5
REMARK    6  A    between atoms: C_6  and  C_8
REMARK    7  A    between atoms: C_6  and  C_28
REMARK    8  A    between atoms: C_8  and  N_9
REMARK    9  A    between atoms: C_10  and  C_12
REMARK   10  A    between atoms: C_21  and  N_24
REMARK   11  A    between atoms: C_25  and  C_27
REMARK                            x       y       z     vdW  Elec       q    Type
REMARK                         _______ _______ _______ _____ _____    ______ ____
ROOT
ATOM      1  N   UNL     1      -1.884   2.063  -0.265  0.00  0.00    -0.316 N 
ATOM      2  C   UNL     1      -2.494   3.199  -0.660  0.00  0.00    +0.219 C 
ATOM      3  O   UNL     1      -1.834   4.132  -1.066  0.00  0.00    -0.275 OA
ATOM      4  H   UNL     1      -2.482   1.217   0.103  0.00  0.00    +0.149 HD
ENDROOT
BRANCH   2   5
ATOM      5  C   UNL     1      -3.996   3.308  -0.598  0.00  0.00    +0.049 C 
ATOM      6  C   UNL     1      -4.623   2.225  -1.479  0.00  0.00    +0.020 C 
ATOM      7  C   UNL     1      -6.147   2.336  -1.416  0.00  0.00    -0.008 C 
ATOM      8  C   UNL     1      -6.613   2.151   0.030  0.00  0.00    +0.007 C 
ATOM      9  C   UNL     1      -5.986   3.233   0.911  0.00  0.00    -0.008 C 
ATOM     10  C   UNL     1      -4.461   3.122   0.848  0.00  0.00    +0.020 C 
ATOM     11  C   UNL     1      -6.418   4.613   0.409  0.00  0.00    +0.029 C 
ATOM     12  C   UNL     1      -5.952   4.798  -1.037  0.00  0.00    +0.036 C 
ATOM     13  C   UNL     1      -6.580   3.716  -1.917  0.00  0.00    +0.029 C 
ATOM     14  C   UNL     1      -4.428   4.687  -1.100  0.00  0.00    +0.042 C 
BRANCH  12  15
ATOM     15  N   UNL     1      -6.366   6.119  -1.517  0.00  0.00    -0.310 N 
ATOM     16  C   UNL     1      -7.674   6.444  -1.552  0.00  0.00    +0.210 C 
ATOM     17  O   UNL     1      -8.508   5.644  -1.185  0.00  0.00    -0.276 OA
ATOM     18  C   UNL     1      -8.099   7.803  -2.046  0.00  0.00    +0.109 C 
ATOM     19  H   UNL     1      -5.610   6.845  -1.850  0.00  0.00    +0.149 HD
ENDBRANCH  12  15
ENDBRANCH   2   5
BRANCH   1  20
ATOM     20  C   UNL     1      -0.424   1.957  -0.325  0.00  0.00    +0.093 C 
BRANCH  20  21
ATOM     21  C   UNL     1       0.016   0.626   0.288  0.00  0.00    -0.020 C 
BRANCH  21  22
ATOM     22  C   UNL     1       1.520   0.584   0.370  0.00  0.00    -0.052 A 
ATOM     23  C   UNL     1       2.201  -0.601   0.163  0.00  0.00    +0.009 A 
ATOM     24  C   UNL     1       3.555  -0.603   0.239  0.00  0.00    +0.045 A 
ATOM     25  S   UNL     1       3.905   1.104   0.627  0.00  0.00    -0.105 S 
ATOM     26  C   UNL     1       2.225   1.707   0.654  0.00  0.00    +0.047 A 
ENDBRANCH  21  22
BRANCH  21  27
ATOM     27  N   UNL     1      -0.552   0.496   1.636  0.00  0.00    +0.385 N 
ATOM     28  H   UNL     1      -1.643   0.619   1.556  0.00  0.00    -0.081 HD
BRANCH  27  30
ATOM     29  C   UNL     1      -1.050  -1.888   1.383  0.00  0.00    -0.017 C 
ATOM     30  C   UNL     1      -0.287  -0.837   2.193  0.00  0.00    -0.081 C 
ENDBRANCH  27  30
BRANCH  27  31
ATOM     31  C   UNL     1      -0.043   1.548   2.526  0.00  0.00    -0.081 C 
ATOM     32  C   UNL     1      -0.934   2.787   2.412  0.00  0.00    -0.017 C 
ENDBRANCH  27  31
ENDBRANCH  21  27
ENDBRANCH  20  21
ENDBRANCH   1  20
TORSDOF 8
