REMARK  Name = ZINC40404961
REMARK  14 active torsions:
REMARK  status: ('A' for Active; 'I' for Inactive)
REMARK    1  A    between atoms: C_1  and  C_2
REMARK    2  A    between atoms: C_2  and  C_3
REMARK    3  A    between atoms: C_3  and  N_4
REMARK    4  A    between atoms: N_4  and  C_5
REMARK    5  A    between atoms: N_4  and  C_25
REMARK    6  A    between atoms: C_5  and  C_6
REMARK    7  A    between atoms: C_12  and  C_17
REMARK    8  A    between atoms: C_20  and  O_23
REMARK    9  A    between atoms: O_23  and  C_24
REMARK   10  A    between atoms: C_25  and  C_26
REMARK   11  A    between atoms: C_26  and  C_28
REMARK   12  A    between atoms: C_26  and  O_37
REMARK   13  A    between atoms: C_28  and  O_29
REMARK   14  A    between atoms: O_29  and  C_30
REMARK                            x       y       z     vdW  Elec       q    Type
REMARK                         _______ _______ _______ _____ _____    ______ ____
ROOT
ATOM      1  C   UNL     1       1.757  -2.487  -2.234  0.00  0.00    -0.003 C 
ENDROOT
BRANCH   1   2
ATOM      2  C   UNL     1       3.146  -1.955  -1.990  0.00  0.00    +0.094 A 
ATOM      3  N   UNL     1       4.154  -2.312  -2.827  0.00  0.00    -0.312 N 
ATOM      4  H   UNL     1       3.967  -2.906  -3.571  0.00  0.00    +0.170 HD
ATOM      5  C   UNL     1       5.408  -1.859  -2.645  0.00  0.00    +0.260 A 
ATOM      6  O   UNL     1       6.302  -2.188  -3.405  0.00  0.00    -0.267 OA
ATOM      7  C   UNL     1       5.676  -0.983  -1.544  0.00  0.00    +0.080 A 
ATOM      8  C   UNL     1       6.934  -0.366  -1.141  0.00  0.00    +0.004 A 
ATOM      9  C   UNL     1       6.945   0.438  -0.051  0.00  0.00    +0.056 A 
ATOM     10  S   UNL     1       5.250   0.409   0.501  0.00  0.00    -0.076 S 
ATOM     11  C   UNL     1       4.572  -0.670  -0.734  0.00  0.00    +0.116 A 
ATOM     12  N   UNL     1       3.358  -1.154  -0.981  0.00  0.00    -0.229 NA
BRANCH   8  13
ATOM     13  C   UNL     1       8.177  -0.614  -1.910  0.00  0.00    -0.016 A 
ATOM     14  C   UNL     1       8.553  -1.918  -2.229  0.00  0.00    +0.012 A 
ATOM     15  C   UNL     1       9.710  -2.144  -2.945  0.00  0.00    +0.046 A 
ATOM     16  C   UNL     1      10.499  -1.076  -3.348  0.00  0.00    +0.120 A 
ATOM     17  C   UNL     1      10.128   0.224  -3.032  0.00  0.00    +0.046 A 
ATOM     18  C   UNL     1       8.969   0.458  -2.321  0.00  0.00    +0.012 A 
BRANCH  16  19
ATOM     19  O   UNL     1      11.639  -1.303  -4.053  0.00  0.00    -0.495 OA
ATOM     20  C   UNL     1      12.403  -0.158  -4.436  0.00  0.00    +0.277 C 
ENDBRANCH  16  19
ENDBRANCH   8  13
ENDBRANCH   1   2
BRANCH   1  21
ATOM     21  N   UNL     1       0.844  -1.961  -1.211  0.00  0.00    +0.386 N 
ATOM     22  H   UNL     1       1.204  -2.180  -0.294  0.00  0.00    -0.081 HD
BRANCH  21  23
ATOM     23  C   UNL     1       0.733  -0.503  -1.357  0.00  0.00    -0.078 C 
BRANCH  23  25
ATOM     24  C   UNL     1      -0.101   1.591  -0.280  0.00  0.00    +0.002 C 
ATOM     25  C   UNL     1      -0.096   0.063  -0.203  0.00  0.00    -0.022 C 
ENDBRANCH  23  25
ENDBRANCH  21  23
BRANCH  21  26
ATOM     26  C   UNL     1      -0.481  -2.572  -1.377  0.00  0.00    -0.043 C 
BRANCH  26  27
ATOM     27  C   UNL     1      -0.393  -4.070  -1.078  0.00  0.00    +0.135 C 
BRANCH  27  28
ATOM     28  O   UNL     1       0.052  -4.263   0.266  0.00  0.00    -0.390 OA
ATOM     29  H   UNL     1      -0.567  -3.940   0.935  0.00  0.00    +0.210 HD
ENDBRANCH  27  28
BRANCH  27  30
ATOM     30  C   UNL     1      -1.773  -4.707  -1.255  0.00  0.00    +0.258 C 
BRANCH  30  31
ATOM     31  O   UNL     1      -1.668  -6.123  -1.091  0.00  0.00    -0.489 OA
BRANCH  31  32
ATOM     32  C   UNL     1      -2.812  -6.845  -1.218  0.00  0.00    +0.121 A 
ATOM     33  C   UNL     1      -4.010  -6.205  -1.500  0.00  0.00    +0.047 A 
ATOM     34  C   UNL     1      -5.172  -6.940  -1.628  0.00  0.00    +0.023 A 
ATOM     35  C   UNL     1      -5.142  -8.315  -1.475  0.00  0.00    +0.041 A 
ATOM     36  C   UNL     1      -3.949  -8.956  -1.193  0.00  0.00    +0.023 A 
ATOM     37  C   UNL     1      -2.783  -8.224  -1.071  0.00  0.00    +0.047 A 
ATOM     38 CL   UNL     1      -6.604  -9.237  -1.636  0.00  0.00    -0.084 Cl
ENDBRANCH  31  32
ENDBRANCH  30  31
ENDBRANCH  27  30
ENDBRANCH  26  27
ENDBRANCH  21  26
ENDBRANCH   1  21
TORSDOF 12
