REMARK  Name = ZINC25447242
REMARK  9 active torsions:
REMARK  status: ('A' for Active; 'I' for Inactive)
REMARK    1  A    between atoms: C_1  and  C_2
REMARK    2  A    between atoms: C_2  and  C_3
REMARK    3  A    between atoms: C_2  and  C_4
REMARK    4  A    between atoms: C_2  and  C_5
REMARK    5  A    between atoms: C_11  and  C_13
REMARK    6  A    between atoms: C_13  and  C_15
REMARK    7  A    between atoms: C_13  and  N_26
REMARK    8  A    between atoms: C_15  and  C_16
REMARK    9  A    between atoms: C_27  and  C_29
REMARK                            x       y       z     vdW  Elec       q    Type
REMARK                         _______ _______ _______ _____ _____    ______ ____
ROOT
ATOM      1  C   UNL     1       1.248   1.716  -0.001  0.00  0.00    +0.164 C 
ENDROOT
BRANCH   1   8
ATOM      2  C   UNL     1       3.464   5.153  -4.461  0.00  0.00    +0.056 A 
ATOM      3  C   UNL     1       2.223   5.351  -4.967  0.00  0.00    +0.072 A 
ATOM      4  S   UNL     1       1.239   4.408  -3.811  0.00  0.00    -0.060 S 
ATOM      5  C   UNL     1       2.541   3.861  -2.800  0.00  0.00    +0.165 A 
ATOM      6  N   UNL     1       3.591   4.411  -3.378  0.00  0.00    -0.229 NA
ATOM      7  N   UNL     1       2.489   3.055  -1.669  0.00  0.00    -0.263 N 
ATOM      8  C   UNL     1       1.304   2.590  -1.227  0.00  0.00    +0.239 C 
ATOM      9  O   UNL     1       0.283   2.874  -1.816  0.00  0.00    -0.273 OA
ATOM     10  H   UNL     1       3.415   2.796  -1.135  0.00  0.00    +0.157 HD
BRANCH   2  12
ATOM     11  C   UNL     1       4.715   7.268  -4.798  0.00  0.00    +0.017 C 
ATOM     12  C   UNL     1       4.672   5.772  -5.117  0.00  0.00    +0.005 C 
ATOM     13  C   UNL     1       5.940   5.101  -4.587  0.00  0.00    +0.017 C 
ATOM     14  C   UNL     1       4.586   5.576  -6.632  0.00  0.00    +0.017 C 
ENDBRANCH   2  12
ENDBRANCH   1   8
BRANCH   1  15
ATOM     15  N   UNL     1      -0.011   0.966   0.007  0.00  0.00    -0.299 N 
ATOM     16  C   UNL     1      -1.187   1.624   0.017  0.00  0.00    +0.251 C 
ATOM     17  O   UNL     1      -1.204   2.841   0.023  0.00  0.00    -0.270 OA
ATOM     18  H   UNL     1       0.004  -0.134   0.006  0.00  0.00    +0.150 HD
BRANCH  16  19
ATOM     19  C   UNL     1      -2.447   0.874   0.018  0.00  0.00    +0.074 A 
ATOM     20  C   UNL     1      -3.748   1.351   0.027  0.00  0.00    +0.021 A 
ATOM     21  C   UNL     1      -4.756   0.419   0.026  0.00  0.00    +0.008 A 
ATOM     22  C   UNL     1      -4.438  -0.902   0.017  0.00  0.00    +0.046 A 
ATOM     23  S   UNL     1      -2.704  -0.892   0.002  0.00  0.00    -0.092 S 
ENDBRANCH  16  19
ENDBRANCH   1  15
BRANCH   1  24
ATOM     24  C   UNL     1       1.329   2.589   1.253  0.00  0.00    +0.069 C 
BRANCH  24  25
ATOM     25  C   UNL     1       1.396   1.710   2.475  0.00  0.00    -0.020 A 
ATOM     26  C   UNL     1       0.363   1.333   3.245  0.00  0.00    +0.087 A 
ATOM     27  N   UNL     1       0.808   0.533   4.263  0.00  0.00    -0.360 N 
ATOM     28  H   UNL     1       0.094   0.124   4.992  0.00  0.00    +0.165 HD
ATOM     29  C   UNL     1       2.174   0.380   4.175  0.00  0.00    +0.047 A 
ATOM     30  C   UNL     1       2.602   1.111   3.051  0.00  0.00    +0.003 A 
ATOM     31  C   UNL     1       3.956   1.137   2.712  0.00  0.00    +0.010 A 
ATOM     32  C   UNL     1       4.859   0.452   3.475  0.00  0.00    +0.001 A 
ATOM     33  C   UNL     1       4.442  -0.270   4.585  0.00  0.00    +0.002 A 
ATOM     34  C   UNL     1       3.111  -0.309   4.937  0.00  0.00    +0.026 A 
ENDBRANCH  24  25
ENDBRANCH   1  24
TORSDOF 6
