REMARK  Name = ZINC07948848
REMARK  6 active torsions:
REMARK  status: ('A' for Active; 'I' for Inactive)
REMARK    1  A    between atoms: C_4  and  C_7
REMARK    2  A    between atoms: C_12  and  O_13
REMARK    3  A    between atoms: O_13  and  C_14
REMARK    4  A    between atoms: C_14  and  C_15
REMARK    5  A    between atoms: N_17  and  N_18
REMARK    6  A    between atoms: C_19  and  C_21
REMARK                            x       y       z     vdW  Elec       q    Type
REMARK                         _______ _______ _______ _____ _____    ______ ____
ROOT
ATOM      1  C   UNL     1       0.002  -0.004   0.002  0.00  0.00    +0.267 C 
ATOM      2  O   UNL     1       1.060  -0.596  -0.011  0.00  0.00    -0.271 OA
ATOM      3  N   UNL     1      -0.016   1.344   0.009  0.00  0.00    -0.231 N 
ATOM      4  H   UNL     1      -0.863   1.817   0.016  0.00  0.00    +0.173 HD
ENDROOT
BRANCH   3   5
ATOM      5  N   UNL     1       1.187   2.061   0.002  0.00  0.00    -0.229 N 
ATOM      6  C   UNL     1       1.169   3.408   0.009  0.00  0.00    +0.281 C 
ATOM      7  O   UNL     1       0.108   4.002   0.022  0.00  0.00    -0.267 OA
ATOM      8  H   UNL     1       2.034   1.587  -0.009  0.00  0.00    +0.173 HD
BRANCH   6   9
ATOM      9  C   UNL     1       2.438   4.164   0.001  0.00  0.00    +0.155 A 
ATOM     10  C   UNL     1       2.428   5.635   0.003  0.00  0.00    +0.020 A 
ATOM     11  C   UNL     1       1.254   6.381   0.023  0.00  0.00    +0.011 A 
ATOM     12  C   UNL     1       1.327   7.758   0.029  0.00  0.00    +0.001 A 
ATOM     13  C   UNL     1       2.555   8.405   0.021  0.00  0.00    +0.001 A 
ATOM     14  C   UNL     1       3.731   7.685   0.007  0.00  0.00    +0.014 A 
ATOM     15  C   UNL     1       3.679   6.295   0.000  0.00  0.00    +0.050 A 
ATOM     16  C   UNL     1       4.882   5.451  -0.016  0.00  0.00    +0.272 A 
ATOM     17  O   UNL     1       5.992   5.949  -0.024  0.00  0.00    -0.266 OA
ATOM     18  N   UNL     1       4.727   4.111  -0.021  0.00  0.00    -0.242 N 
ATOM     19  H   UNL     1       5.547   3.539  -0.033  0.00  0.00    +0.192 HD
ATOM     20  N   UNL     1       3.586   3.532  -0.013  0.00  0.00    -0.166 NA
ENDBRANCH   6   9
ENDBRANCH   3   5
BRANCH   1  21
ATOM     21  C   UNL     1      -1.293  -0.775   0.010  0.00  0.00    +0.326 C 
BRANCH  21  22
ATOM     22  O   UNL     1      -1.012  -2.176   0.000  0.00  0.00    -0.482 OA
BRANCH  22  28
ATOM     23  C   UNL     1      -1.879  -4.402  -0.009  0.00  0.00    +0.024 A 
ATOM     24  C   UNL     1      -2.979  -5.258   0.001  0.00  0.00    +0.012 A 
ATOM     25  C   UNL     1      -4.257  -4.737   0.016  0.00  0.00    +0.001 A 
ATOM     26  C   UNL     1      -4.451  -3.367   0.025  0.00  0.00    +0.004 A 
ATOM     27  C   UNL     1      -3.367  -2.509   0.021  0.00  0.00    +0.046 A 
ATOM     28  C   UNL     1      -2.078  -3.019   0.006  0.00  0.00    +0.129 A 
BRANCH  23  32
ATOM     29  C   UNL     1       2.063  -5.992  -0.072  0.00  0.00    +0.000 A 
ATOM     30  C   UNL     1       1.147  -6.458   0.854  0.00  0.00    +0.001 A 
ATOM     31  C   UNL     1      -0.134  -5.946   0.879  0.00  0.00    +0.008 A 
ATOM     32  C   UNL     1      -0.504  -4.957  -0.031  0.00  0.00    -0.014 A 
ATOM     33  C   UNL     1       0.422  -4.495  -0.966  0.00  0.00    +0.008 A 
ATOM     34  C   UNL     1       1.702  -5.011  -0.977  0.00  0.00    +0.001 A 
ENDBRANCH  23  32
ENDBRANCH  22  28
ENDBRANCH  21  22
ENDBRANCH   1  21
TORSDOF 6
