REMARK  Name = ZINC60375806
REMARK  16 active torsions:
REMARK  status: ('A' for Active; 'I' for Inactive)
REMARK    1  A    between atoms: C_1  and  C_2
REMARK    2  A    between atoms: N_6  and  C_7
REMARK    3  A    between atoms: C_7  and  C_8
REMARK    4  A    between atoms: C_8  and  C_9
REMARK    5  A    between atoms: C_9  and  C_10
REMARK    6  A    between atoms: N_12  and  C_13
REMARK    7  A    between atoms: C_17  and  S_19
REMARK    8  A    between atoms: S_19  and  N_22
REMARK    9  A    between atoms: N_22  and  C_23
REMARK   10  A    between atoms: C_23  and  C_24
REMARK   11  A    between atoms: C_24  and  N_25
REMARK   12  A    between atoms: C_26  and  O_28
REMARK   13  A    between atoms: O_28  and  C_29
REMARK   14  A    between atoms: C_29  and  C_30
REMARK   15  A    between atoms: C_29  and  C_31
REMARK   16  A    between atoms: C_29  and  C_32
REMARK                            x       y       z     vdW  Elec       q    Type
REMARK                         _______ _______ _______ _____ _____    ______ ____
ROOT
ATOM      1  C   UNL     1      -4.337   1.368   6.567  0.00  0.00    +0.035 A 
ATOM      2  C   UNL     1      -5.432   1.173   5.735  0.00  0.00    +0.023 A 
ATOM      3  C   UNL     1      -6.699   1.502   6.175  0.00  0.00    +0.004 A 
ATOM      4  C   UNL     1      -6.878   2.026   7.443  0.00  0.00    +0.028 A 
ATOM      5  C   UNL     1      -5.790   2.221   8.273  0.00  0.00    +0.107 A 
ATOM      6  C   UNL     1      -4.521   1.888   7.841  0.00  0.00    +0.051 A 
ENDROOT
BRANCH   1   9
ATOM      7  C   UNL     1      -2.719   1.213   4.830  0.00  0.00    +0.217 C 
ATOM      8  O   UNL     1      -3.555   1.582   4.033  0.00  0.00    -0.275 OA
ATOM      9  N   UNL     1      -3.052   1.035   6.124  0.00  0.00    -0.285 N 
ATOM     10  H   UNL     1      -2.402   0.676   6.747  0.00  0.00    +0.155 HD
BRANCH   7  11
ATOM     11  C   UNL     1      -1.306   0.955   4.374  0.00  0.00    +0.098 C 
BRANCH  11  12
ATOM     12  C   UNL     1      -1.196   1.230   2.873  0.00  0.00    +0.031 C 
BRANCH  12  13
ATOM     13  C   UNL     1       0.239   0.967   2.410  0.00  0.00    +0.123 C 
BRANCH  13  19
ATOM     14  C   UNL     1       0.749   3.738   1.120  0.00  0.00    +0.084 C 
ATOM     15  C   UNL     1       0.566   2.430   0.393  0.00  0.00    +0.084 A 
ATOM     16  N   UNL     1       0.601   2.268  -0.902  0.00  0.00    -0.350 N 
ATOM     17  C   UNL     1       0.400   0.975  -1.191  0.00  0.00    +0.101 A 
ATOM     18  C   UNL     1       0.233   0.309  -0.033  0.00  0.00    +0.104 A 
ATOM     19  N   UNL     1       0.344   1.231   0.973  0.00  0.00    -0.336 N 
ATOM     20  H   UNL     1       0.750   2.973  -1.552  0.00  0.00    +0.166 HD
ENDBRANCH  13  19
ENDBRANCH  12  13
ENDBRANCH  11  12
ENDBRANCH   7  11
ENDBRANCH   1   9
BRANCH   5  21
ATOM     21  S   UNL     1      -6.023   2.890   9.887  0.00  0.00    +0.059 S 
ATOM     22  O   UNL     1      -4.788   3.483  10.263  0.00  0.00    -0.153 OA
ATOM     23  O   UNL     1      -7.241   3.621   9.851  0.00  0.00    -0.153 OA
BRANCH  21  24
ATOM     24  N   UNL     1      -6.267   1.614  10.914  0.00  0.00    -0.188 NA
ATOM     25  H   UNL     1      -7.121   1.508  11.361  0.00  0.00    +0.148 HD
BRANCH  24  26
ATOM     26  C   UNL     1      -5.193   0.645  11.147  0.00  0.00    +0.124 C 
BRANCH  26  27
ATOM     27  C   UNL     1      -5.522  -0.193  12.384  0.00  0.00    +0.124 C 
BRANCH  27  28
ATOM     28  N   UNL     1      -4.447  -1.161  12.617  0.00  0.00    -0.280 N 
ATOM     29  C   UNL     1      -4.522  -2.012  13.660  0.00  0.00    +0.401 C 
ATOM     30  O   UNL     1      -5.481  -1.976  14.406  0.00  0.00    -0.226 OA
ATOM     31  H   UNL     1      -3.683  -1.190  12.022  0.00  0.00    +0.152 HD
BRANCH  29  32
ATOM     32  O   UNL     1      -3.535  -2.902  13.874  0.00  0.00    -0.445 OA
BRANCH  32  33
ATOM     33  C   UNL     1      -3.680  -3.774  14.998  0.00  0.00    +0.107 C 
ATOM     34  C   UNL     1      -4.955  -4.604  14.838  0.00  0.00    +0.055 C 
ATOM     35  C   UNL     1      -2.470  -4.707  15.079  0.00  0.00    +0.055 C 
ATOM     36  C   UNL     1      -3.770  -2.943  16.279  0.00  0.00    +0.055 C 
ENDBRANCH  32  33
ENDBRANCH  29  32
ENDBRANCH  27  28
ENDBRANCH  26  27
ENDBRANCH  24  26
ENDBRANCH  21  24
ENDBRANCH   5  21
TORSDOF 12
