REMARK  Name = ZINC09712046
REMARK  6 active torsions:
REMARK  status: ('A' for Active; 'I' for Inactive)
REMARK    1  A    between atoms: C_4  and  C_7
REMARK    2  A    between atoms: C_7  and  C_9
REMARK    3  A    between atoms: C_7  and  N_58
REMARK    4  A    between atoms: N_11  and  C_12
REMARK    5  A    between atoms: C_21  and  C_24
REMARK    6  A    between atoms: N_26  and  C_27
REMARK                            x       y       z     vdW  Elec       q    Type
REMARK                         _______ _______ _______ _____ _____    ______ ____
ROOT
ATOM      1  C   UNL     1       6.913   8.732   0.745  0.00  0.00    +0.050 C 
ENDROOT
BRANCH   1   7
ATOM      2  C   UNL     1       6.211   7.408  -1.156  0.00  0.00    -0.077 C 
ATOM      3  C   UNL     1       5.815   5.998  -1.600  0.00  0.00    -0.006 C 
ATOM      4  C   UNL     1       7.019   5.064  -1.450  0.00  0.00    +0.072 C 
ATOM      5  C   UNL     1       7.494   5.085   0.006  0.00  0.00    -0.006 C 
ATOM      6  C   UNL     1       7.840   6.522   0.403  0.00  0.00    -0.077 C 
ATOM      7  N   UNL     1       6.634   7.364   0.260  0.00  0.00    +0.390 N 
ATOM      8  H   UNL     1       5.876   6.959   0.821  0.00  0.00    -0.080 HD
BRANCH   4   9
ATOM      9  C   UNL     1       6.618   3.661  -1.828  0.00  0.00    +0.220 C 
ATOM     10  O   UNL     1       5.482   3.431  -2.186  0.00  0.00    -0.275 OA
ATOM     11  N   UNL     1       7.522   2.663  -1.770  0.00  0.00    -0.285 N 
ATOM     12  H   UNL     1       8.410   2.833  -1.419  0.00  0.00    +0.155 HD
BRANCH  11  13
ATOM     13  C   UNL     1       7.179   1.382  -2.214  0.00  0.00    +0.033 A 
ATOM     14  C   UNL     1       6.322   1.227  -3.296  0.00  0.00    +0.023 A 
ATOM     15  C   UNL     1       5.986  -0.039  -3.733  0.00  0.00    +0.002 A 
ATOM     16  C   UNL     1       6.497  -1.152  -3.091  0.00  0.00    +0.000 A 
ATOM     17  C   UNL     1       7.355  -1.002  -2.017  0.00  0.00    +0.002 A 
ATOM     18  C   UNL     1       7.696   0.262  -1.575  0.00  0.00    +0.023 A 
ENDBRANCH  11  13
ENDBRANCH   4   9
ENDBRANCH   1   7
BRANCH   1  22
ATOM     19  C   UNL     1       3.456  11.161   0.117  0.00  0.00    +0.000 A 
ATOM     20  C   UNL     1       4.710  11.649  -0.200  0.00  0.00    +0.000 A 
ATOM     21  C   UNL     1       5.829  10.862   0.003  0.00  0.00    +0.002 A 
ATOM     22  C   UNL     1       5.693   9.589   0.524  0.00  0.00    -0.052 A 
ATOM     23  C   UNL     1       4.439   9.100   0.836  0.00  0.00    +0.002 A 
ATOM     24  C   UNL     1       3.320   9.887   0.636  0.00  0.00    +0.000 A 
ENDBRANCH   1  22
BRANCH   1  25
ATOM     25  C   UNL     1       7.223   8.671   2.219  0.00  0.00    +0.208 C 
ATOM     26  O   UNL     1       6.987   7.661   2.847  0.00  0.00    -0.277 OA
ATOM     27  N   UNL     1       7.763   9.739   2.838  0.00  0.00    -0.287 N 
ATOM     28  H   UNL     1       7.894  10.568   2.351  0.00  0.00    +0.155 HD
BRANCH  27  29
ATOM     29  C   UNL     1       8.133   9.654   4.186  0.00  0.00    +0.034 A 
ATOM     30  C   UNL     1       7.330   8.965   5.085  0.00  0.00    +0.026 A 
ATOM     31  C   UNL     1       7.700   8.877   6.413  0.00  0.00    +0.040 A 
ATOM     32  C   UNL     1       8.864   9.485   6.850  0.00  0.00    +0.124 A 
ATOM     33  C   UNL     1       9.664  10.178   5.956  0.00  0.00    +0.040 A 
ATOM     34  C   UNL     1       9.300  10.263   4.627  0.00  0.00    +0.026 A 
ATOM     35  F   UNL     1       9.222   9.402   8.150  0.00  0.00    -0.205 F 
ENDBRANCH  27  29
ENDBRANCH   1  25
TORSDOF 6
