REMARK  Name = ZINC43429746
REMARK  10 active torsions:
REMARK  status: ('A' for Active; 'I' for Inactive)
REMARK    1  A    between atoms: C_1  and  C_2
REMARK    2  A    between atoms: C_2  and  C_4
REMARK    3  A    between atoms: C_2  and  N_12
REMARK    4  A    between atoms: C_7  and  O_11
REMARK    5  A    between atoms: C_9  and  O_10
REMARK    6  A    between atoms: N_12  and  CA_13
REMARK    7  A    between atoms: CA_13  and  CB_15
REMARK    8  A    between atoms: CA_13  and  C_18
REMARK    9  A    between atoms: CB_15  and  CG1_16
REMARK   10  A    between atoms: CB_15  and  CG2_17
REMARK                            x       y       z     vdW  Elec       q    Type
REMARK                         _______ _______ _______ _____ _____    ______ ____
ROOT
ATOM      1  C   UNK A   0      -0.808   1.685  -0.442  0.00  0.00    -0.009 C 
ATOM      2  C   UNK A   0      -0.452   0.225  -0.158  0.00  0.00    -0.039 C 
ENDROOT
BRANCH   2   3
ATOM      3  C   UNK A   0       0.365   0.143   1.106  0.00  0.00    -0.020 A 
ATOM      4  C   UNK A   0      -0.237  -0.224   2.294  0.00  0.00    +0.009 A 
ATOM      5  C   UNK A   0       0.509  -0.300   3.455  0.00  0.00    +0.046 A 
ATOM      6  C   UNK A   0       1.865  -0.007   3.429  0.00  0.00    +0.120 A 
ATOM      7  C   UNK A   0       2.471   0.362   2.238  0.00  0.00    +0.091 A 
ATOM      8  C   UNK A   0       1.722   0.431   1.074  0.00  0.00    +0.122 A 
BRANCH   8   9
ATOM      9  O   UNK A   0       2.314   0.786  -0.096  0.00  0.00    -0.506 OA
ATOM     10  H   UNK A   0       2.309   1.738  -0.267  0.00  0.00    +0.292 HD
ENDBRANCH   8   9
BRANCH   6  11
ATOM     11  O   UNK A   0       2.599  -0.081   4.571  0.00  0.00    -0.507 OA
ATOM     12  H   UNK A   0       2.991  -0.951   4.731  0.00  0.00    +0.292 HD
ENDBRANCH   6  11
ENDBRANCH   2   3
BRANCH   2  13
ATOM     13  N   VAL A   1      -1.685  -0.557   0.005  0.00  0.00    +0.393 N 
ATOM     14  H1  VAL A   1      -2.168  -0.254   0.837  0.00  0.00    -0.084 HD
ATOM     15  H2  VAL A   1      -2.280  -0.418  -0.799  0.00  0.00    -0.084 HD
BRANCH  13  16
ATOM     16  CA  VAL A   1      -1.350  -1.982   0.125  0.00  0.00    +0.047 C 
BRANCH  16  17
ATOM     17  CB  VAL A   1      -2.618  -2.780   0.436  0.00  0.00    -0.021 C 
ATOM     18  CG1 VAL A   1      -2.268  -4.264   0.561  0.00  0.00    +0.006 C 
ATOM     19  CG2 VAL A   1      -3.221  -2.285   1.752  0.00  0.00    +0.006 C 
ENDBRANCH  16  17
BRANCH  16  20
ATOM     20  C   VAL A   1      -0.755  -2.469  -1.171  0.00  0.00    +0.343 C 
ATOM     21  O   VAL A   1      -0.071  -3.479  -1.187  0.00  0.00    -0.248 OA
ATOM     22  OXT VAL A   1      -0.957  -1.854  -2.204  0.00  0.00    -0.248 OA
ENDBRANCH  16  20
ENDBRANCH  13  16
ENDBRANCH   2  13
TORSDOF 7
