REMARK  Name = ZINC38720093
REMARK  11 active torsions:
REMARK  status: ('A' for Active; 'I' for Inactive)
REMARK    1  A    between atoms: C_1  and  C_2
REMARK    2  A    between atoms: C_2  and  O_3
REMARK    3  A    between atoms: O_3  and  C_4
REMARK    4  A    between atoms: C_7  and  N_10
REMARK    5  A    between atoms: C_11  and  S_25
REMARK    6  A    between atoms: C_15  and  C_16
REMARK    7  A    between atoms: S_25  and  C_26
REMARK    8  A    between atoms: C_26  and  C_27
REMARK    9  A    between atoms: C_30  and  O_32
REMARK   10  A    between atoms: O_32  and  C_33
REMARK   11  A    between atoms: C_33  and  C_34
REMARK                            x       y       z     vdW  Elec       q    Type
REMARK                         _______ _______ _______ _____ _____    ______ ____
ROOT
ATOM      1  N   UNL     1      -1.988  -5.989  -0.007  0.00  0.00    -0.254 N 
ATOM      2  C   UNL     1      -3.259  -6.725   0.091  0.00  0.00    +0.241 C 
ATOM      3  N   UNL     1      -2.864  -8.142   0.029  0.00  0.00    -0.237 N 
ATOM      4  N   UNL     1      -1.469  -8.160  -0.094  0.00  0.00    -0.169 NA
ATOM      5  C   UNL     1      -0.979  -6.949  -0.120  0.00  0.00    +0.151 C 
ATOM      6  H   UNL     1      -3.453  -8.911   0.066  0.00  0.00    +0.171 HD
ENDROOT
BRANCH   5   7
ATOM      7  C   UNL     1       0.387  -6.651  -0.242  0.00  0.00    +0.022 C 
ATOM      8  C   UNL     1       1.431  -7.551  -0.455  0.00  0.00    +0.006 A 
ATOM      9  C   UNL     1       1.464  -8.954  -0.608  0.00  0.00    +0.010 A 
ATOM     10  C   UNL     1       2.651  -9.582  -0.809  0.00  0.00    +0.001 A 
ATOM     11  C   UNL     1       3.853  -8.872  -0.869  0.00  0.00    +0.002 A 
ATOM     12  C   UNL     1       3.895  -7.524  -0.731  0.00  0.00    +0.026 A 
ATOM     13  C   UNL     1       2.695  -6.798  -0.518  0.00  0.00    +0.043 A 
ATOM     14  N   UNL     1       2.472  -5.509  -0.357  0.00  0.00    -0.380 N 
ATOM     15  C   UNL     1       1.034  -5.285  -0.176  0.00  0.00    +0.152 C 
ATOM     16  H   UNL     1       3.152  -4.817  -0.360  0.00  0.00    +0.160 HD
ENDBRANCH   5   7
BRANCH   1  20
ATOM     17  C   UNL     1      -1.496  -1.850   0.029  0.00  0.00    +0.121 A 
ATOM     18  C   UNL     1      -1.411  -2.568   1.213  0.00  0.00    +0.047 A 
ATOM     19  C   UNL     1      -1.575  -3.939   1.202  0.00  0.00    +0.027 A 
ATOM     20  C   UNL     1      -1.823  -4.599   0.005  0.00  0.00    +0.038 A 
ATOM     21  C   UNL     1      -1.907  -3.879  -1.179  0.00  0.00    +0.027 A 
ATOM     22  C   UNL     1      -1.749  -2.507  -1.165  0.00  0.00    +0.047 A 
BRANCH  17  23
ATOM     23  O   UNL     1      -1.335  -0.499   0.041  0.00  0.00    -0.492 OA
BRANCH  23  25
ATOM     24  C   UNL     1      -0.925   1.623   1.121  0.00  0.00    +0.048 C 
ATOM     25  C   UNL     1      -1.076   0.112   1.306  0.00  0.00    +0.225 C 
ENDBRANCH  23  25
ENDBRANCH  17  23
ENDBRANCH   1  20
BRANCH   2  26
ATOM     26  S   UNL     1      -4.084  -6.361   1.665  0.00  0.00    -0.108 S 
BRANCH  26  27
ATOM     27  C   UNL     1      -2.894  -6.908   2.921  0.00  0.00    +0.168 C 
BRANCH  27  28
ATOM     28  C   UNL     1      -3.462  -6.659   4.294  0.00  0.00    +0.232 C 
ATOM     29  O   UNL     1      -4.562  -6.162   4.414  0.00  0.00    -0.274 OA
ATOM     30  N   UNL     1      -2.749  -6.988   5.388  0.00  0.00    -0.221 N 
ATOM     31  C   UNL     1      -3.257  -6.766   6.617  0.00  0.00    +0.407 C 
ATOM     32  O   UNL     1      -4.359  -6.268   6.737  0.00  0.00    -0.226 OA
ATOM     33  H   UNL     1      -1.869  -7.386   5.293  0.00  0.00    +0.161 HD
BRANCH  31  34
ATOM     34  O   UNL     1      -2.545  -7.095   7.710  0.00  0.00    -0.450 OA
BRANCH  34  35
ATOM     35  C   UNL     1      -3.145  -6.831   8.979  0.00  0.00    +0.230 C 
ATOM     36  C   UNL     1      -2.194  -7.269  10.095  0.00  0.00    +0.048 C 
ENDBRANCH  34  35
ENDBRANCH  31  34
ENDBRANCH  27  28
ENDBRANCH  26  27
ENDBRANCH   2  26
TORSDOF 9
