REMARK  Name = ZINC08870859
REMARK  6 active torsions:
REMARK  status: ('A' for Active; 'I' for Inactive)
REMARK    1  A    between atoms: C_7  and  N_23
REMARK    2  A    between atoms: C_9  and  S_12
REMARK    3  A    between atoms: C_10  and  O_11
REMARK    4  A    between atoms: S_12  and  C_13
REMARK    5  A    between atoms: N_23  and  S_24
REMARK    6  A    between atoms: S_24  and  C_27
REMARK                            x       y       z     vdW  Elec       q    Type
REMARK                         _______ _______ _______ _____ _____    ______ ____
ROOT
ATOM      1  C   UNL     1      -4.378   4.476   2.046  0.00  0.00    +0.001 A 
ATOM      2  C   UNL     1      -5.646   3.920   2.209  0.00  0.00    +0.001 A 
ATOM      3  C   UNL     1      -5.849   2.582   2.058  0.00  0.00    +0.012 A 
ATOM      4  C   UNL     1      -4.766   1.747   1.732  0.00  0.00    +0.026 A 
ATOM      5  C   UNL     1      -3.476   2.313   1.571  0.00  0.00    +0.008 A 
ATOM      6  C   UNL     1      -3.307   3.697   1.730  0.00  0.00    +0.010 A 
ATOM      7  C   UNL     1      -2.387   1.479   1.238  0.00  0.00    +0.057 A 
ATOM      8  C   UNL     1      -2.586   0.126   1.083  0.00  0.00    +0.044 A 
ATOM      9  C   UNL     1      -3.856  -0.433   1.247  0.00  0.00    +0.059 A 
ATOM     10  C   UNL     1      -4.941   0.361   1.569  0.00  0.00    +0.138 A 
ENDROOT
BRANCH  10  11
ATOM     11  O   UNL     1      -6.172  -0.196   1.725  0.00  0.00    -0.505 OA
ATOM     12  H   UNL     1      -6.364  -0.479   2.630  0.00  0.00    +0.292 HD
ENDBRANCH  10  11
BRANCH   7  13
ATOM     13  N   UNL     1      -1.112   2.024   1.071  0.00  0.00    -0.216 N 
ATOM     14  H   UNL     1      -0.653   2.423   1.826  0.00  0.00    +0.174 HD
BRANCH  13  15
ATOM     15  S   UNL     1      -0.385   1.990  -0.417  0.00  0.00    +0.074 S 
ATOM     16  O   UNL     1      -0.536   0.667  -0.912  0.00  0.00    -0.150 OA
ATOM     17  O   UNL     1       0.886   2.605  -0.261  0.00  0.00    -0.150 OA
BRANCH  15  18
ATOM     18  C   UNL     1      -1.324   3.037  -1.479  0.00  0.00    +0.134 A 
ATOM     19  C   UNL     1      -0.788   4.200  -1.939  0.00  0.00    +0.031 A 
ATOM     20  C   UNL     1      -1.513   5.042  -2.780  0.00  0.00    +0.003 A 
ATOM     21  C   UNL     1      -2.780   4.723  -3.166  0.00  0.00    +0.010 A 
ATOM     22  C   UNL     1      -3.364   3.530  -2.711  0.00  0.00    +0.002 A 
ATOM     23  C   UNL     1      -2.626   2.670  -1.860  0.00  0.00    +0.097 A 
ATOM     24  N   UNL     1      -3.180   1.535  -1.419  0.00  0.00    -0.253 NA
ATOM     25  C   UNL     1      -4.396   1.191  -1.767  0.00  0.00    +0.111 A 
ATOM     26  C   UNL     1      -5.173   1.988  -2.605  0.00  0.00    +0.020 A 
ATOM     27  C   UNL     1      -4.670   3.164  -3.086  0.00  0.00    +0.011 A 
ENDBRANCH  15  18
ENDBRANCH  13  15
ENDBRANCH   7  13
BRANCH   9  28
ATOM     28  S   UNL     1      -4.077  -2.169   1.042  0.00  0.00    -0.048 S 
BRANCH  28  29
ATOM     29  C   UNL     1      -4.194  -2.664   2.729  0.00  0.00    +0.172 A 
ATOM     30  N   UNL     1      -4.285  -3.957   3.164  0.00  0.00    -0.333 N 
ATOM     31  H   UNL     1      -4.298  -4.776   2.591  0.00  0.00    +0.168 HD
ATOM     32  C   UNL     1      -4.355  -3.920   4.547  0.00  0.00    +0.067 A 
ATOM     33  C   UNL     1      -4.457  -4.893   5.530  0.00  0.00    +0.028 A 
ATOM     34  C   UNL     1      -4.513  -4.523   6.858  0.00  0.00    +0.002 A 
ATOM     35  C   UNL     1      -4.469  -3.184   7.218  0.00  0.00    +0.002 A 
ATOM     36  C   UNL     1      -4.369  -2.205   6.255  0.00  0.00    +0.030 A 
ATOM     37  C   UNL     1      -4.311  -2.563   4.905  0.00  0.00    +0.090 A 
ATOM     38  N   UNL     1      -4.212  -1.848   3.754  0.00  0.00    -0.222 NA
ENDBRANCH  28  29
ENDBRANCH   9  28
TORSDOF 6
