REMARK  Name = ZINC06680499
REMARK  6 active torsions:
REMARK  status: ('A' for Active; 'I' for Inactive)
REMARK    1  A    between atoms: C_1  and  C_2
REMARK    2  A    between atoms: C_5  and  C_25
REMARK    3  A    between atoms: C_7  and  N_8
REMARK    4  A    between atoms: C_9  and  C_11
REMARK    5  A    between atoms: C_13  and  S_16
REMARK    6  A    between atoms: S_16  and  N_19
REMARK                            x       y       z     vdW  Elec       q    Type
REMARK                         _______ _______ _______ _____ _____    ______ ____
ROOT
ATOM      1  N   UNL     1       2.396   1.526  -0.013  0.00  0.00    -0.281 N 
ATOM      2  C   UNL     1       3.552   2.210  -0.122  0.00  0.00    +0.255 C 
ATOM      3  O   UNL     1       3.542   3.427  -0.115  0.00  0.00    -0.269 OA
ATOM      4  H   UNL     1       2.410   0.559   0.063  0.00  0.00    +0.155 HD
ENDROOT
BRANCH   1  11
ATOM      5  C   UNL     1       0.173   0.288   1.251  0.00  0.00    +0.045 C 
ATOM      6  C   UNL     1       0.063   1.642   0.599  0.00  0.00    -0.029 A 
ATOM      7  C   UNL     1      -1.147   2.312   0.601  0.00  0.00    +0.006 A 
ATOM      8  C   UNL     1      -1.254   3.554   0.011  0.00  0.00    +0.015 A 
ATOM      9  C   UNL     1      -0.141   4.135  -0.602  0.00  0.00    +0.065 A 
ATOM     10  C   UNL     1       1.079   3.457  -0.609  0.00  0.00    +0.038 A 
ATOM     11  C   UNL     1       1.177   2.211  -0.008  0.00  0.00    +0.037 A 
BRANCH   9  12
ATOM     12  C   UNL     1      -0.253   5.463  -1.239  0.00  0.00    +0.387 C 
ATOM     13  O   UNL     1       0.716   5.966  -1.770  0.00  0.00    -0.241 OA
ATOM     14  O   UNL     1      -1.432   6.116  -1.231  0.00  0.00    -0.241 OA
ENDBRANCH   9  12
ENDBRANCH   1  11
BRANCH   2  15
ATOM     15  C   UNL     1       4.822   1.489  -0.248  0.00  0.00    +0.076 A 
ATOM     16  C   UNL     1       6.106   1.995  -0.376  0.00  0.00    +0.049 A 
ATOM     17  C   UNL     1       7.129   1.086  -0.473  0.00  0.00    +0.113 A 
ATOM     18  C   UNL     1       6.841  -0.242  -0.452  0.00  0.00    +0.074 A 
ATOM     19  S   UNL     1       5.116  -0.271  -0.285  0.00  0.00    -0.090 S 
BRANCH  17  20
ATOM     20  S   UNL     1       8.796   1.634  -0.633  0.00  0.00    +0.061 S 
ATOM     21  O   UNL     1       8.849   2.941  -0.079  0.00  0.00    -0.153 OA
ATOM     22  O   UNL     1       9.619   0.574  -0.164  0.00  0.00    -0.153 OA
BRANCH  20  23
ATOM     23  N   UNL     1       9.107   1.793  -2.252  0.00  0.00    -0.177 NA
ATOM     24  C   UNL     1       9.644   0.666  -3.026  0.00  0.00    +0.109 C 
ATOM     25  C   UNL     1       8.732   0.427  -4.239  0.00  0.00    +0.017 C 
ATOM     26  C   UNL     1       8.600   1.729  -5.034  0.00  0.00    +0.003 C 
ATOM     27  C   UNL     1       7.958   2.804  -4.153  0.00  0.00    +0.017 C 
ATOM     28  C   UNL     1       8.856   3.067  -2.940  0.00  0.00    +0.109 C 
ENDBRANCH  20  23
ENDBRANCH  17  20
ENDBRANCH   2  15
TORSDOF 5
