REMARK  Name = ZINC29574382
REMARK  6 active torsions:
REMARK  status: ('A' for Active; 'I' for Inactive)
REMARK    1  A    between atoms: C_1  and  C_2
REMARK    2  A    between atoms: C_5  and  N_19
REMARK    3  A    between atoms: C_7  and  S_8
REMARK    4  A    between atoms: S_8  and  N_11
REMARK    5  A    between atoms: N_11  and  C_12
REMARK    6  A    between atoms: C_20  and  C_22
REMARK                            x       y       z     vdW  Elec       q    Type
REMARK                         _______ _______ _______ _____ _____    ______ ____
ROOT
ATOM      1  C   UNL     1     -10.569  -0.596  -1.218  0.00  0.00    +0.046 C 
ATOM      2  C   UNL     1      -9.410   0.310  -0.890  0.00  0.00    -0.024 A 
ATOM      3  C   UNL     1      -8.125  -0.198  -0.857  0.00  0.00    +0.007 A 
ATOM      4  C   UNL     1      -7.060   0.631  -0.562  0.00  0.00    +0.024 A 
ATOM      5  C   UNL     1      -7.283   1.975  -0.289  0.00  0.00    +0.036 A 
ATOM      6  C   UNL     1      -8.576   2.482  -0.323  0.00  0.00    +0.052 A 
ATOM      7  C   UNL     1      -9.635   1.648  -0.624  0.00  0.00    +0.113 A 
ENDROOT
BRANCH   5   8
ATOM      8  N   UNL     1      -6.208   2.816   0.015  0.00  0.00    -0.281 N 
ATOM      9  C   UNL     1      -5.008   2.612  -0.564  0.00  0.00    +0.254 C 
ATOM     10  O   UNL     1      -4.886   1.762  -1.425  0.00  0.00    -0.270 OA
ATOM     11  H   UNL     1      -6.342   3.644   0.727  0.00  0.00    +0.155 HD
BRANCH   9  12
ATOM     12  C   UNL     1      -3.848   3.418  -0.155  0.00  0.00    +0.102 A 
ATOM     13  C   UNL     1      -2.580   3.145  -0.650  0.00  0.00    +0.031 A 
ATOM     14  C   UNL     1      -1.496   3.946  -0.229  0.00  0.00    +0.037 A 
ATOM     15  C   UNL     1      -1.691   4.990   0.661  0.00  0.00    +0.030 A 
ATOM     16  N   UNL     1      -2.921   5.251   1.150  0.00  0.00    -0.325 N 
ATOM     17  H   UNL     1      -3.064   6.072   1.868  0.00  0.00    +0.169 HD
ATOM     18  C   UNL     1      -3.998   4.532   0.785  0.00  0.00    +0.261 A 
ATOM     19  O   UNL     1      -5.094   4.800   1.243  0.00  0.00    -0.267 OA
ATOM     20  C   UNL     1      -0.549   5.867   1.106  0.00  0.00    +0.054 C 
ATOM     21  C   UNL     1       0.791   5.155   0.951  0.00  0.00    +0.014 C 
ATOM     22  C   UNL     1       0.942   4.673  -0.498  0.00  0.00    +0.080 C 
ATOM     23  C   UNL     1      -0.149   3.653  -0.747  0.00  0.00    +0.165 C 
ATOM     24  O   UNL     1       0.078   2.629  -1.357  0.00  0.00    -0.292 OA
ENDBRANCH   9  12
ENDBRANCH   5   8
BRANCH   7  25
ATOM     25  S   UNL     1     -11.275   2.291  -0.667  0.00  0.00    +0.073 S 
ATOM     26  O   UNL     1     -11.178   3.674  -0.357  0.00  0.00    -0.150 OA
ATOM     27  O   UNL     1     -11.864   1.820  -1.872  0.00  0.00    -0.150 OA
BRANCH  25  28
ATOM     28  N   UNL     1     -12.111   1.585   0.576  0.00  0.00    -0.216 N 
ATOM     29  H   UNL     1     -12.943   0.898   0.359  0.00  0.00    +0.174 HD
BRANCH  28  30
ATOM     30  C   UNL     1     -11.760   1.861   1.899  0.00  0.00    +0.048 A 
ATOM     31  C   UNL     1     -10.429   1.807   2.292  0.00  0.00    +0.026 A 
ATOM     32  C   UNL     1     -10.085   2.087   3.600  0.00  0.00    +0.022 A 
ATOM     33  C   UNL     1     -11.065   2.410   4.522  0.00  0.00    +0.041 A 
ATOM     34  C   UNL     1     -12.393   2.458   4.134  0.00  0.00    +0.022 A 
ATOM     35  C   UNL     1     -12.743   2.185   2.826  0.00  0.00    +0.026 A 
ATOM     36 CL   UNL     1     -10.629   2.753   6.166  0.00  0.00    -0.084 Cl
ENDBRANCH  28  30
ENDBRANCH  25  28
ENDBRANCH   7  25
TORSDOF 5
