REMARK  Name = ZINC42041445
REMARK  2 active torsions:
REMARK  status: ('A' for Active; 'I' for Inactive)
REMARK    1  A    between atoms: C_1  and  C_2
REMARK    2  A    between atoms: C_8  and  O_13
REMARK                            x       y       z     vdW  Elec       q    Type
REMARK                         _______ _______ _______ _____ _____    ______ ____
ROOT
ATOM      1  C   UNL     1      -0.018   1.503   0.010  0.00  0.00    +0.044 C 
ATOM      2  C   UNL     1       0.002  -0.004   0.002  0.00  0.00    -0.042 A 
ATOM      3  C   UNL     1       0.006  -0.690  -1.200  0.00  0.00    +0.006 A 
ATOM      4  C   UNL     1       0.025  -2.072  -1.204  0.00  0.00    +0.040 A 
ATOM      5  C   UNL     1       0.039  -2.773  -0.013  0.00  0.00    +0.145 A 
ATOM      6  C   UNL     1       0.035  -2.088   1.202  0.00  0.00    +0.075 A 
ATOM      7  C   UNL     1       0.023  -0.699   1.190  0.00  0.00    +0.017 A 
ATOM      8  C   UNL     1       0.030  -0.261   2.637  0.00  0.00    +0.232 C 
ATOM      9  C   UNL     1       0.055  -1.560   3.415  0.00  0.00    +0.250 C 
ATOM     10  O   UNL     1       0.068  -1.676   4.622  0.00  0.00    -0.272 OA
ATOM     11  N   UNL     1       0.048  -2.559   2.517  0.00  0.00    -0.280 N 
ATOM     12  F   UNL     1       0.056  -4.124  -0.025  0.00  0.00    -0.204 F 
ATOM     13  H   UNL     1       0.061  -3.500   2.754  0.00  0.00    +0.155 HD
ENDROOT
BRANCH   8  14
ATOM     14  O   UNL     1       1.195   0.516   2.919  0.00  0.00    -0.378 OA
ATOM     15  H   UNL     1       1.251   0.824   3.834  0.00  0.00    +0.211 HD
ENDBRANCH   8  14
TORSDOF 1
