REMARK  Name = ZINC15402200
REMARK  14 active torsions:
REMARK  status: ('A' for Active; 'I' for Inactive)
REMARK    1  A    between atoms: C_1  and  C_2
REMARK    2  A    between atoms: C_2  and  C_3
REMARK    3  A    between atoms: C_3  and  C_4
REMARK    4  A    between atoms: C_4  and  N_5
REMARK    5  A    between atoms: C_6  and  N_36
REMARK    6  A    between atoms: C_7  and  N_14
REMARK    7  A    between atoms: N_14  and  C_15
REMARK    8  A    between atoms: C_15  and  C_16
REMARK    9  A    between atoms: C_22  and  C_24
REMARK   10  A    between atoms: C_24  and  N_70
REMARK   11  A    between atoms: C_28  and  C_31
REMARK   12  A    between atoms: C_31  and  O_33
REMARK   13  A    between atoms: O_33  and  C_34
REMARK   14  A    between atoms: C_34  and  C_35
REMARK                            x       y       z     vdW  Elec       q    Type
REMARK                         _______ _______ _______ _____ _____    ______ ____
ROOT
ATOM      1  N   UNL     1       2.499   4.052  -0.102  0.00  0.00    -0.261 N 
ATOM      2  C   UNL     1       1.911   5.244   0.131  0.00  0.00    +0.204 C 
ATOM      3  O   UNL     1       0.707   5.356   0.035  0.00  0.00    -0.277 OA
ENDROOT
BRANCH   1   6
ATOM      4  N   UNL     1       0.873   0.782   0.303  0.00  0.00    -0.280 N 
ATOM      5  C   UNL     1       1.654   1.882   0.570  0.00  0.00    +0.127 A 
ATOM      6  C   UNL     1       1.706   2.911  -0.348  0.00  0.00    +0.140 A 
ATOM      7  C   UNL     1       0.956   2.802  -1.534  0.00  0.00    +0.277 A 
ATOM      8  O   UNL     1       0.984   3.696  -2.362  0.00  0.00    -0.266 OA
ATOM      9  N   UNL     1       0.207   1.702  -1.747  0.00  0.00    -0.273 N 
ATOM     10  H   UNL     1      -0.323   1.622  -2.591  0.00  0.00    +0.173 HD
ATOM     11  C   UNL     1       0.164   0.712  -0.839  0.00  0.00    +0.331 A 
ATOM     12  O   UNL     1      -0.525  -0.267  -1.054  0.00  0.00    -0.246 OA
BRANCH   5  13
ATOM     13  N   UNL     1       2.374   1.956   1.738  0.00  0.00    -0.343 N 
ATOM     14  H   UNL     1       2.848   2.771   1.966  0.00  0.00    +0.144 HD
ATOM     15  H   UNL     1       2.409   1.192   2.336  0.00  0.00    +0.144 HD
ENDBRANCH   5  13
BRANCH   4  16
ATOM     16  C   UNL     1       0.808  -0.317   1.269  0.00  0.00    +0.128 C 
BRANCH  16  17
ATOM     17  C   UNL     1      -0.335  -0.063   2.254  0.00  0.00    +0.021 C 
BRANCH  17  19
ATOM     18  C   UNL     1      -1.545  -0.957   4.249  0.00  0.00    +0.004 C 
ATOM     19  C   UNL     1      -0.403  -1.211   3.263  0.00  0.00    -0.002 C 
ENDBRANCH  17  19
ENDBRANCH  16  17
ENDBRANCH   4  16
ENDBRANCH   1   6
BRANCH   1  20
ATOM     20  C   UNL     1       3.960   3.943  -0.101  0.00  0.00    +0.149 C 
BRANCH  20  21
ATOM     21  C   UNL     1       4.472   4.042  -1.515  0.00  0.00    -0.030 A 
ATOM     22  C   UNL     1       4.513   2.915  -2.316  0.00  0.00    +0.005 A 
ATOM     23  C   UNL     1       4.977   3.006  -3.614  0.00  0.00    +0.000 A 
ATOM     24  C   UNL     1       5.412   4.222  -4.109  0.00  0.00    +0.000 A 
ATOM     25  C   UNL     1       5.376   5.347  -3.307  0.00  0.00    +0.000 A 
ATOM     26  C   UNL     1       4.906   5.257  -2.010  0.00  0.00    +0.005 A 
ENDBRANCH  20  21
ENDBRANCH   1  20
BRANCH   2  27
ATOM     27  C   UNL     1       2.750   6.436   0.512  0.00  0.00    +0.019 C 
BRANCH  27  33
ATOM     28  C   UNL     1       0.923   7.533   1.660  0.00  0.00    -0.078 C 
ATOM     29  C   UNL     1       0.157   8.852   1.784  0.00  0.00    -0.018 C 
ATOM     30  C   UNL     1      -0.554   9.150   0.460  0.00  0.00    +0.011 C 
ATOM     31  C   UNL     1       0.482   9.201  -0.666  0.00  0.00    +0.081 C 
ATOM     32  C   UNL     1       1.239   7.872  -0.718  0.00  0.00    -0.064 C 
ATOM     33  N   UNL     1       1.920   7.657   0.576  0.00  0.00    +0.386 N 
ATOM     34  H   UNL     1       2.526   8.462   0.772  0.00  0.00    -0.081 HD
BRANCH  31  35
ATOM     35  C   UNL     1      -0.216   9.435  -1.981  0.00  0.00    +0.308 C 
ATOM     36  O   UNL     1      -0.115   8.624  -2.871  0.00  0.00    -0.251 OA
BRANCH  35  37
ATOM     37  O   UNL     1      -0.949  10.545  -2.164  0.00  0.00    -0.465 OA
BRANCH  37  38
ATOM     38  C   UNL     1      -1.592  10.704  -3.456  0.00  0.00    +0.229 C 
ATOM     39  C   UNL     1      -2.377  12.017  -3.476  0.00  0.00    +0.048 C 
ENDBRANCH  37  38
ENDBRANCH  35  37
ENDBRANCH  31  35
ENDBRANCH  27  33
ENDBRANCH   2  27
TORSDOF 12
