REMARK  Name = ZINC00668712
REMARK  8 active torsions:
REMARK  status: ('A' for Active; 'I' for Inactive)
REMARK    1  A    between atoms: C_1  and  C_2
REMARK    2  A    between atoms: C_7  and  N_8
REMARK    3  A    between atoms: C_9  and  C_11
REMARK    4  A    between atoms: C_12  and  C_38
REMARK    5  A    between atoms: C_16  and  C_18
REMARK    6  A    between atoms: C_21  and  S_24
REMARK    7  A    between atoms: S_24  and  C_25
REMARK    8  A    between atoms: C_29  and  C_32
REMARK                            x       y       z     vdW  Elec       q    Type
REMARK                         _______ _______ _______ _____ _____    ______ ____
ROOT
ATOM      1  C   UNL     1      -0.654  -0.512   1.252  0.00  0.00    +0.043 C 
ATOM      2  C   UNL     1      -1.907  -0.997   1.234  0.00  0.00    +0.014 C 
ATOM      3  N   UNL     1      -2.614  -1.046   0.064  0.00  0.00    -0.321 N 
ATOM      4  C   UNL     1      -1.970  -0.992  -1.143  0.00  0.00    +0.016 C 
ATOM      5  C   UNL     1      -0.715  -0.502  -1.228  0.00  0.00    +0.024 C 
ATOM      6  C   UNL     1       0.002  -0.004   0.002  0.00  0.00    +0.090 C 
ATOM      7  C   UNL     1      -0.042  -0.440  -2.460  0.00  0.00    +0.162 C 
ATOM      8  O   UNL     1       1.093  -0.008  -2.500  0.00  0.00    -0.292 OA
ATOM      9  C   UNL     1      -0.703  -0.899  -3.732  0.00  0.00    +0.088 C 
ATOM     10  C   UNL     1      -2.219  -0.719  -3.599  0.00  0.00    +0.032 C 
ATOM     11  C   UNL     1      -2.693  -1.494  -2.368  0.00  0.00    +0.059 C 
ATOM     12  C   UNL     1      -2.537  -1.491   2.511  0.00  0.00    +0.061 C 
ATOM     13  H   UNL     1      -3.711  -1.130   0.088  0.00  0.00    +0.152 HD
ENDROOT
BRANCH   6  14
ATOM     14  C   UNL     1      -0.018   1.503   0.010  0.00  0.00    -0.035 A 
ATOM     15  C   UNL     1      -1.226   2.176   0.020  0.00  0.00    +0.005 A 
ATOM     16  C   UNL     1      -1.249   3.557   0.032  0.00  0.00    +0.015 A 
ATOM     17  C   UNL     1      -0.056   4.270   0.025  0.00  0.00    +0.008 A 
ATOM     18  C   UNL     1       1.156   3.590   0.010  0.00  0.00    +0.015 A 
ATOM     19  C   UNL     1       1.171   2.209   0.003  0.00  0.00    +0.005 A 
BRANCH  17  20
ATOM     20  S   UNL     1      -0.080   6.032   0.033  0.00  0.00    -0.129 S 
ATOM     21  C   UNL     1      -1.846   6.446   0.052  0.00  0.00    +0.090 C 
ENDBRANCH  17  20
ENDBRANCH   6  14
BRANCH  10  22
ATOM     22  C   UNL     1      -2.902  -1.256  -4.830  0.00  0.00    -0.044 A 
ATOM     23  C   UNL     1      -2.735  -2.579  -5.192  0.00  0.00    +0.004 A 
ATOM     24  C   UNL     1      -3.365  -3.073  -6.319  0.00  0.00    +0.000 A 
ATOM     25  C   UNL     1      -4.156  -2.240  -7.089  0.00  0.00    +0.000 A 
ATOM     26  C   UNL     1      -4.320  -0.916  -6.729  0.00  0.00    +0.000 A 
ATOM     27  C   UNL     1      -3.693  -0.423  -5.600  0.00  0.00    +0.004 A 
ENDBRANCH  10  22
BRANCH   1  29
ATOM     28  N   UNL     1       1.318   0.003   2.507  0.00  0.00    -0.266 N 
ATOM     29  C   UNL     1       0.060  -0.481   2.474  0.00  0.00    +0.248 C 
ATOM     30  O   UNL     1      -0.461  -0.890   3.495  0.00  0.00    -0.270 OA
ATOM     31  H   UNL     1       1.789   0.373   1.584  0.00  0.00    +0.157 HD
BRANCH  28  38
ATOM     32  C   UNL     1       3.967   1.041   2.473  0.00  0.00    +0.047 C 
ATOM     33  C   UNL     1       3.318   0.534   3.735  0.00  0.00    -0.010 A 
ATOM     34  C   UNL     1       4.005   0.559   4.936  0.00  0.00    +0.008 A 
ATOM     35  C   UNL     1       3.369   0.081   6.073  0.00  0.00    +0.020 A 
ATOM     36  C   UNL     1       2.079  -0.402   5.974  0.00  0.00    +0.113 A 
ATOM     37  N   UNL     1       1.446  -0.408   4.816  0.00  0.00    -0.240 NA
ATOM     38  C   UNL     1       2.021   0.034   3.709  0.00  0.00    +0.128 A 
ENDBRANCH  28  38
ENDBRANCH   1  29
TORSDOF 5
