REMARK  Name = ZINC08790407
REMARK  5 active torsions:
REMARK  status: ('A' for Active; 'I' for Inactive)
REMARK    1  A    between atoms: C_4  and  C_7
REMARK    2  A    between atoms: C_7  and  C_8
REMARK    3  A    between atoms: C_8  and  N_9
REMARK    4  A    between atoms: C_14  and  C_31
REMARK    5  A    between atoms: C_31  and  C_32
REMARK                            x       y       z     vdW  Elec       q    Type
REMARK                         _______ _______ _______ _____ _____    ______ ____
ROOT
ATOM      1  N   UNL     1       1.289  -5.179   1.274  0.00  0.00    -0.241 N 
ATOM      2  C   UNL     1       0.056  -5.035   0.776  0.00  0.00    +0.224 C 
ATOM      3  O   UNL     1      -0.680  -5.943   0.454  0.00  0.00    -0.275 OA
ATOM      4  C   UNL     1      -0.278  -3.564   0.679  0.00  0.00    +0.073 C 
ATOM      5  C   UNL     1      -0.376  -3.160  -0.807  0.00  0.00    -0.053 C 
ATOM      6  C   UNL     1       1.573  -2.134  -0.025  0.00  0.00    +0.050 C 
ATOM      7  C   UNL     1       1.011  -2.869   1.198  0.00  0.00    +0.088 C 
ATOM      8  C   UNL     1       1.915  -4.029   1.550  0.00  0.00    +0.225 C 
ATOM      9  O   UNL     1       3.031  -3.933   2.012  0.00  0.00    -0.275 OA
ATOM     10  C   UNL     1       1.203  -0.678  -0.013  0.00  0.00    -0.026 A 
ATOM     11  C   UNL     1       0.002  -0.004   0.002  0.00  0.00    +0.004 A 
ATOM     12  C   UNL     1      -0.017   1.379   0.010  0.00  0.00    +0.002 A 
ATOM     13  C   UNL     1       1.173   2.084   0.002  0.00  0.00    +0.022 A 
ATOM     14  C   UNL     1       2.380   1.414  -0.013  0.00  0.00    +0.062 A 
ATOM     15  C   UNL     1       2.407   0.020  -0.020  0.00  0.00    +0.054 A 
ATOM     16  N   UNL     1       3.482  -0.872  -0.033  0.00  0.00    -0.285 N 
ATOM     17  C   UNL     1       3.077  -2.156  -0.036  0.00  0.00    +0.211 C 
ATOM     18  O   UNL     1       3.787  -3.140  -0.046  0.00  0.00    -0.277 OA
ATOM     19 CL   UNL     1       3.867   2.308  -0.022  0.00  0.00    -0.082 Cl
ATOM     20  H   UNL     1       4.413  -0.598  -0.039  0.00  0.00    +0.155 HD
ATOM     21  N   UNL     1       1.000  -2.817  -1.172  0.00  0.00    +0.394 N 
ATOM     22  H   UNL     1       1.006  -2.200  -1.992  0.00  0.00    -0.083 HD
ATOM     23  H   UNL     1       1.534  -3.669  -1.381  0.00  0.00    -0.083 HD
ENDROOT
BRANCH   1  24
ATOM     24  C   UNL     1       1.906  -6.490   1.496  0.00  0.00    +0.121 C 
BRANCH  24  25
ATOM     25  C   UNL     1       1.580  -6.974   2.910  0.00  0.00    +0.054 C 
BRANCH  25  29
ATOM     26  C   UNL     1       3.377 -10.794   3.558  0.00  0.00    +0.000 A 
ATOM     27  C   UNL     1       4.075  -9.641   3.865  0.00  0.00    +0.000 A 
ATOM     28  C   UNL     1       3.494  -8.405   3.655  0.00  0.00    +0.004 A 
ATOM     29  C   UNL     1       2.214  -8.321   3.139  0.00  0.00    -0.046 A 
ATOM     30  C   UNL     1       1.514  -9.475   2.838  0.00  0.00    +0.004 A 
ATOM     31  C   UNL     1       2.097 -10.711   3.043  0.00  0.00    +0.000 A 
ENDBRANCH  25  29
ENDBRANCH  24  25
ENDBRANCH   1  24
BRANCH   5  32
ATOM     32  C   UNL     1      -0.904  -4.328  -1.643  0.00  0.00    +0.020 C 
BRANCH  32  33
ATOM     33  C   UNL     1      -1.108  -3.876  -3.066  0.00  0.00    -0.049 A 
ATOM     34  C   UNL     1      -2.327  -3.354  -3.457  0.00  0.00    +0.003 A 
ATOM     35  C   UNL     1      -2.513  -2.936  -4.761  0.00  0.00    +0.000 A 
ATOM     36  C   UNL     1      -1.483  -3.046  -5.676  0.00  0.00    +0.000 A 
ATOM     37  C   UNL     1      -0.265  -3.572  -5.286  0.00  0.00    +0.000 A 
ATOM     38  C   UNL     1      -0.078  -3.987  -3.981  0.00  0.00    +0.003 A 
ENDBRANCH  32  33
ENDBRANCH   5  32
TORSDOF 5
