REMARK  Name = ZINC39678331
REMARK  5 active torsions:
REMARK  status: ('A' for Active; 'I' for Inactive)
REMARK    1  A    between atoms: C_4  and  N_30
REMARK    2  A    between atoms: C_5  and  C_7
REMARK    3  A    between atoms: C_7  and  N_8
REMARK    4  A    between atoms: C_9  and  C_11
REMARK    5  A    between atoms: C_22  and  C_24
REMARK                            x       y       z     vdW  Elec       q    Type
REMARK                         _______ _______ _______ _____ _____    ______ ____
ROOT
ATOM      1  C   UNL     1       1.964  -4.483   3.694  0.00  0.00    +0.100 C 
ATOM      2  C   UNL     1       0.687  -3.895   4.336  0.00  0.00    +0.121 C 
ATOM      3  N   UNL     1      -0.288  -5.011   4.319  0.00  0.00    -0.296 N 
ATOM      4  C   UNL     1       0.517  -6.210   4.654  0.00  0.00    +0.115 C 
ATOM      5  C   UNL     1       1.850  -6.002   3.909  0.00  0.00    -0.004 C 
ATOM      6  C   UNL     1       3.014  -6.504   4.757  0.00  0.00    -0.010 C 
ATOM      7  C   UNL     1       2.912  -8.025   4.907  0.00  0.00    -0.082 C 
ATOM      8  N   UNL     1       2.941  -8.652   3.581  0.00  0.00    +0.379 N 
ATOM      9  C   UNL     1       1.766  -8.236   2.804  0.00  0.00    -0.082 C 
ATOM     10  C   UNL     1       1.821  -6.724   2.565  0.00  0.00    -0.010 C 
ATOM     11  C   UNL     1      -1.609  -4.950   4.059  0.00  0.00    +0.247 C 
ATOM     12  O   UNL     1      -2.106  -3.908   3.680  0.00  0.00    -0.270 OA
ATOM     13  H   UNL     1       3.780  -8.372   3.096  0.00  0.00    -0.086 HD
ATOM     14  H   UNL     1       2.934  -9.656   3.685  0.00  0.00    -0.086 HD
ENDROOT
BRANCH  11  15
ATOM     15  C   UNL     1      -2.455  -6.153   4.234  0.00  0.00    +0.040 A 
ATOM     16  C   UNL     1      -2.030  -7.221   5.030  0.00  0.00    +0.033 A 
ATOM     17  C   UNL     1      -2.851  -8.323   5.167  0.00  0.00    +0.111 A 
ATOM     18  N   UNL     1      -4.019  -8.377   4.558  0.00  0.00    -0.263 NA
ATOM     19  C   UNL     1      -4.458  -7.392   3.799  0.00  0.00    +0.111 A 
ATOM     20  C   UNL     1      -3.704  -6.250   3.613  0.00  0.00    +0.033 A 
ENDBRANCH  11  15
BRANCH   1  22
ATOM     21  N   UNL     1       3.163  -3.774   1.651  0.00  0.00    -0.311 N 
ATOM     22  C   UNL     1       2.006  -4.163   2.223  0.00  0.00    +0.218 C 
ATOM     23  O   UNL     1       0.999  -4.254   1.553  0.00  0.00    -0.275 OA
ATOM     24  H   UNL     1       3.969  -3.701   2.186  0.00  0.00    +0.149 HD
BRANCH  21  25
ATOM     25  C   UNL     1       3.205  -3.463   0.220  0.00  0.00    +0.141 C 
BRANCH  25  30
ATOM     26  C   UNL     1       6.208  -1.349  -0.657  0.00  0.00    +0.000 A 
ATOM     27  C   UNL     1       7.175  -2.313  -0.876  0.00  0.00    +0.002 A 
ATOM     28  C   UNL     1       6.862  -3.651  -0.741  0.00  0.00    +0.023 A 
ATOM     29  C   UNL     1       5.573  -4.028  -0.385  0.00  0.00    +0.034 A 
ATOM     30  C   UNL     1       4.604  -3.058  -0.166  0.00  0.00    -0.009 A 
ATOM     31  C   UNL     1       4.924  -1.721  -0.302  0.00  0.00    +0.007 A 
BRANCH  29  32
ATOM     32  N   UNL     1       5.253  -5.381  -0.248  0.00  0.00    -0.330 N 
ATOM     33  C   UNL     1       4.763  -6.154  -1.398  0.00  0.00    +0.105 C 
ATOM     34  C   UNL     1       5.637  -7.402  -1.561  0.00  0.00    +0.019 C 
ATOM     35  C   UNL     1       5.659  -8.180  -0.244  0.00  0.00    +0.003 C 
ATOM     36  C   UNL     1       6.265  -7.306   0.857  0.00  0.00    +0.019 C 
ATOM     37  C   UNL     1       5.404  -6.059   1.046  0.00  0.00    +0.105 C 
ENDBRANCH  29  32
ENDBRANCH  25  30
ENDBRANCH  21  25
ENDBRANCH   1  22
TORSDOF 5
