REMARK  Name = ZINC59822247
REMARK  8 active torsions:
REMARK  status: ('A' for Active; 'I' for Inactive)
REMARK    1  A    between atoms: C_1  and  C_2
REMARK    2  A    between atoms: C_2  and  C_4
REMARK    3  A    between atoms: C_2  and  S_10
REMARK    4  A    between atoms: N_6  and  C_7
REMARK    5  A    between atoms: S_10  and  C_11
REMARK    6  A    between atoms: C_14  and  C_22
REMARK    7  A    between atoms: N_15  and  C_16
REMARK    8  A    between atoms: C_25  and  N_28
REMARK                            x       y       z     vdW  Elec       q    Type
REMARK                         _______ _______ _______ _____ _____    ______ ____
ROOT
ATOM      1  C   UNL     1       2.509  -0.029  -1.285  0.00  0.00    +0.197 A 
ATOM      2  N   UNL     1       2.982   0.650  -0.264  0.00  0.00    -0.122 NA
ATOM      3  N   UNL     1       4.231   0.896  -0.436  0.00  0.00    -0.128 NA
ATOM      4  C   UNL     1       4.635   0.391  -1.579  0.00  0.00    +0.169 A 
ATOM      5  N   UNL     1       3.546  -0.224  -2.156  0.00  0.00    -0.270 N 
ENDROOT
BRANCH   5   6
ATOM      6  C   UNL     1       3.507  -0.903  -3.382  0.00  0.00    +0.051 A 
ATOM      7  C   UNL     1       4.228  -2.078  -3.549  0.00  0.00    +0.026 A 
ATOM      8  C   UNL     1       4.187  -2.745  -4.758  0.00  0.00    +0.002 A 
ATOM      9  C   UNL     1       3.429  -2.245  -5.800  0.00  0.00    +0.000 A 
ATOM     10  C   UNL     1       2.709  -1.075  -5.636  0.00  0.00    +0.002 A 
ATOM     11  C   UNL     1       2.742  -0.406  -4.429  0.00  0.00    +0.026 A 
ENDBRANCH   5   6
BRANCH   4  12
ATOM     12  C   UNL     1       6.002   0.461  -2.136  0.00  0.00    +0.020 A 
ATOM     13  C   UNL     1       6.226   0.168  -3.482  0.00  0.00    +0.014 A 
ATOM     14  C   UNL     1       7.505   0.236  -3.997  0.00  0.00    +0.033 A 
ATOM     15  C   UNL     1       8.563   0.593  -3.181  0.00  0.00    +0.126 A 
ATOM     16  C   UNL     1       8.349   0.884  -1.845  0.00  0.00    +0.033 A 
ATOM     17  C   UNL     1       7.074   0.826  -1.320  0.00  0.00    +0.014 A 
BRANCH  15  18
ATOM     18  N   UNL     1       9.933   0.664  -3.740  0.00  0.00    +0.056 N 
ATOM     19  O   UNL     1      10.124   0.410  -4.906  0.00  0.00    -0.126 OA
ATOM     20  O   UNL     1      10.860   0.976  -3.029  0.00  0.00    -0.126 OA
ENDBRANCH  15  18
ENDBRANCH   4  12
BRANCH   1  21
ATOM     21  S   UNL     1       0.851  -0.589  -1.490  0.00  0.00    -0.073 S 
BRANCH  21  23
ATOM     22  C   UNL     1      -0.019   1.526   0.010  0.00  0.00    +0.029 C 
ATOM     23  C   UNL     1       0.002  -0.004   0.002  0.00  0.00    +0.137 C 
BRANCH  23  24
ATOM     24  C   UNL     1      -1.412  -0.526   0.013  0.00  0.00    +0.226 C 
ATOM     25  O   UNL     1      -1.927  -0.901  -1.019  0.00  0.00    -0.275 OA
ATOM     26  N   UNL     1      -2.103  -0.575   1.169  0.00  0.00    -0.312 N 
ATOM     27  H   UNL     1      -1.691  -0.275   1.994  0.00  0.00    +0.149 HD
BRANCH  26  28
ATOM     28  C   UNL     1      -3.478  -1.082   1.179  0.00  0.00    +0.073 C 
ATOM     29  C   UNL     1      -4.511  -0.306   1.998  0.00  0.00    +0.024 C 
ATOM     30  C   UNL     1      -4.006  -1.663   2.492  0.00  0.00    +0.024 C 
ENDBRANCH  26  28
ENDBRANCH  23  24
ENDBRANCH  21  23
ENDBRANCH   1  21
TORSDOF 7
