REMARK  Name = ZINC02474699
REMARK  7 active torsions:
REMARK  status: ('A' for Active; 'I' for Inactive)
REMARK    1  A    between atoms: C_1  and  C_2
REMARK    2  A    between atoms: C_2  and  C_3
REMARK    3  A    between atoms: C_3  and  C_4
REMARK    4  A    between atoms: C_4  and  N_5
REMARK    5  A    between atoms: C_6  and  C_8
REMARK    6  A    between atoms: C_13  and  C_28
REMARK    7  A    between atoms: C_16  and  C_19
REMARK                            x       y       z     vdW  Elec       q    Type
REMARK                         _______ _______ _______ _____ _____    ______ ____
ROOT
ATOM      1  C   UNL     1      -4.401  -4.410   0.020  0.00  0.00    +0.149 A 
ATOM      2  C   UNL     1      -4.783  -5.771   0.022  0.00  0.00    +0.078 A 
ATOM      3  C   UNL     1      -6.130  -5.816   0.034  0.00  0.00    +0.119 A 
ATOM      4  N   UNL     1      -6.598  -4.532   0.037  0.00  0.00    -0.238 N 
ATOM      5  N   UNL     1      -5.499  -3.675   0.035  0.00  0.00    -0.164 NA
ATOM      6  C   UNL     1      -8.023  -4.187   0.045  0.00  0.00    +0.215 C 
ATOM      7  C   UNL     1      -8.830  -5.400  -0.431  0.00  0.00    +0.063 C 
ATOM      8  C   UNL     1      -8.400  -6.650   0.344  0.00  0.00    +0.104 C 
ATOM      9  N   UNL     1      -6.981  -6.924   0.043  0.00  0.00    -0.322 N 
ATOM     10  H   UNL     1      -6.659  -7.821  -0.137  0.00  0.00    +0.148 HD
ENDROOT
BRANCH   8  11
ATOM     11  C   UNL     1      -9.247  -7.823  -0.077  0.00  0.00    -0.024 A 
ATOM     12  C   UNL     1      -8.956  -8.499  -1.247  0.00  0.00    +0.009 A 
ATOM     13  C   UNL     1      -9.729  -9.576  -1.638  0.00  0.00    +0.050 A 
ATOM     14  C   UNL     1     -10.800  -9.980  -0.857  0.00  0.00    +0.166 A 
ATOM     15  C   UNL     1     -11.093  -9.299   0.322  0.00  0.00    +0.167 A 
ATOM     16  C   UNL     1     -10.310  -8.224   0.710  0.00  0.00    +0.055 A 
ATOM     17  O   UNL     1     -12.181  -9.883   0.904  0.00  0.00    -0.453 OA
ATOM     18  C   UNL     1     -12.797 -10.669  -0.134  0.00  0.00    +0.466 C 
ATOM     19  O   UNL     1     -11.703 -10.991  -1.013  0.00  0.00    -0.453 OA
ENDBRANCH   8  11
BRANCH   1  21
ATOM     20  N   UNL     1      -2.787  -2.571   0.015  0.00  0.00    -0.310 N 
ATOM     21  C   UNL     1      -3.015  -3.899   0.010  0.00  0.00    +0.264 C 
ATOM     22  O   UNL     1      -2.081  -4.676  -0.003  0.00  0.00    -0.268 OA
ATOM     23  H   UNL     1      -3.533  -1.950   0.025  0.00  0.00    +0.149 HD
BRANCH  20  24
ATOM     24  C   UNL     1      -1.413  -2.063   0.004  0.00  0.00    +0.104 C 
BRANCH  24  25
ATOM     25  C   UNL     1      -1.433  -0.534   0.013  0.00  0.00    +0.018 C 
BRANCH  25  27
ATOM     26  C   UNL     1      -0.019   1.526   0.010  0.00  0.00    +0.004 C 
ATOM     27  C   UNL     1       0.002  -0.004   0.002  0.00  0.00    -0.002 C 
ENDBRANCH  25  27
ENDBRANCH  24  25
ENDBRANCH  20  24
ENDBRANCH   1  21
BRANCH   6  28
ATOM     28  C   UNL     1      -8.268  -3.004  -0.895  0.00  0.00    +0.412 C 
ATOM     29  F   UNL     1      -7.880  -3.352  -2.193  0.00  0.00    -0.168 F 
ATOM     30  F   UNL     1      -9.628  -2.676  -0.886  0.00  0.00    -0.168 F 
ATOM     31  F   UNL     1      -7.519  -1.903  -0.464  0.00  0.00    -0.168 F 
ENDBRANCH   6  28
TORSDOF 6
