REMARK  Name = ZINC17093711
REMARK  9 active torsions:
REMARK  status: ('A' for Active; 'I' for Inactive)
REMARK    1  A    between atoms: C_1  and  C_2
REMARK    2  A    between atoms: C_2  and  O_3
REMARK    3  A    between atoms: O_3  and  C_4
REMARK    4  A    between atoms: C_7  and  C_13
REMARK    5  A    between atoms: C_9  and  N_10
REMARK    6  A    between atoms: N_15  and  C_16
REMARK    7  A    between atoms: C_16  and  N_18
REMARK    8  A    between atoms: N_18  and  C_19
REMARK    9  A    between atoms: C_23  and  C_25
REMARK                            x       y       z     vdW  Elec       q    Type
REMARK                         _______ _______ _______ _____ _____    ______ ____
ROOT
ATOM      1  C   UNL     1       0.175  -4.211   0.517  0.00  0.00    +0.250 C 
ATOM      2  O   UNL     1      -0.852  -4.816   0.756  0.00  0.00    -0.270 OA
ATOM      3  N   UNL     1       1.306  -4.888   0.237  0.00  0.00    -0.264 N 
ATOM      4  H   UNL     1       2.126  -4.406   0.047  0.00  0.00    +0.157 HD
ENDROOT
BRANCH   1   8
ATOM      5  C   UNL     1       0.199   0.035   0.561  0.00  0.00    +0.151 A 
ATOM      6  C   UNL     1       1.367  -0.662   0.273  0.00  0.00    +0.049 A 
ATOM      7  C   UNL     1       1.363  -2.038   0.258  0.00  0.00    +0.017 A 
ATOM      8  C   UNL     1       0.183  -2.736   0.532  0.00  0.00    +0.039 A 
ATOM      9  C   UNL     1      -0.989  -2.031   0.821  0.00  0.00    +0.049 A 
ATOM     10  C   UNL     1      -0.975  -0.655   0.840  0.00  0.00    +0.168 A 
BRANCH  10  11
ATOM     11  N   UNL     1      -2.215   0.092   1.152  0.00  0.00    +0.060 N 
ATOM     12  O   UNL     1      -3.244  -0.511   1.397  0.00  0.00    -0.126 OA
ATOM     13  O   UNL     1      -2.205   1.310   1.165  0.00  0.00    -0.126 OA
ENDBRANCH  10  11
BRANCH   5  14
ATOM     14  O   UNL     1       0.206   1.392   0.576  0.00  0.00    -0.490 OA
BRANCH  14  16
ATOM     15  C   UNL     1       1.262   3.554   0.349  0.00  0.00    +0.048 C 
ATOM     16  C   UNL     1       1.448   2.037   0.286  0.00  0.00    +0.226 C 
ENDBRANCH  14  16
ENDBRANCH   5  14
ENDBRANCH   1   8
BRANCH   3  17
ATOM     17  C   UNL     1       1.299  -6.236   0.223  0.00  0.00    +0.141 C 
ATOM     18  S   UNL     1      -0.147  -7.087   0.560  0.00  0.00    -0.018 S 
BRANCH  17  19
ATOM     19  N   UNL     1       2.430  -6.913  -0.056  0.00  0.00    -0.297 N 
ATOM     20  H   UNL     1       3.229  -6.433  -0.325  0.00  0.00    +0.154 HD
BRANCH  19  21
ATOM     21  C   UNL     1       2.453  -8.309   0.042  0.00  0.00    +0.033 A 
ATOM     22  C   UNL     1       1.830  -8.940   1.114  0.00  0.00    +0.025 A 
ATOM     23  C   UNL     1       1.845 -10.318   1.214  0.00  0.00    +0.022 A 
ATOM     24  C   UNL     1       2.487 -11.078   0.256  0.00  0.00    +0.055 A 
ATOM     25  C   UNL     1       3.120 -10.453  -0.822  0.00  0.00    +0.083 A 
ATOM     26  C   UNL     1       3.099  -9.061  -0.925  0.00  0.00    +0.039 A 
ATOM     27 CL   UNL     1       2.507 -12.809   0.390  0.00  0.00    -0.083 Cl
BRANCH  25  28
ATOM     28  C   UNL     1       3.807 -11.262  -1.849  0.00  0.00    +0.388 C 
ATOM     29  O   UNL     1       3.823 -12.473  -1.758  0.00  0.00    -0.241 OA
ATOM     30  O   UNL     1       4.415 -10.656  -2.887  0.00  0.00    -0.241 OA
ENDBRANCH  25  28
ENDBRANCH  19  21
ENDBRANCH  17  19
ENDBRANCH   3  17
TORSDOF 8
