REMARK  Name = ZINC06661220
REMARK  5 active torsions:
REMARK  status: ('A' for Active; 'I' for Inactive)
REMARK    1  A    between atoms: C_8  and  C_10
REMARK    2  A    between atoms: C_13  and  C_16
REMARK    3  A    between atoms: C_16  and  N_17
REMARK    4  A    between atoms: C_18  and  C_20
REMARK    5  A    between atoms: C_21  and  C_22
REMARK                            x       y       z     vdW  Elec       q    Type
REMARK                         _______ _______ _______ _____ _____    ______ ____
ROOT
ATOM      1  C   UNL     1       3.458  -3.443  -0.048  0.00  0.00    +0.037 A 
ATOM      2  C   UNL     1       4.854  -3.475  -0.066  0.00  0.00    +0.013 A 
ATOM      3  C   UNL     1       5.512  -4.687  -0.073  0.00  0.00    +0.006 A 
ATOM      4  C   UNL     1       4.793  -5.869  -0.072  0.00  0.00    -0.030 A 
ATOM      5  C   UNL     1       3.409  -5.844  -0.059  0.00  0.00    +0.006 A 
ATOM      6  C   UNL     1       2.738  -4.639  -0.047  0.00  0.00    +0.013 A 
ENDROOT
BRANCH   1  14
ATOM      7  C   UNL     1       1.158   2.048   0.002  0.00  0.00    +0.023 A 
ATOM      8  C   UNL     1       2.377   1.389  -0.013  0.00  0.00    +0.051 A 
ATOM      9  C   UNL     1       2.373   0.002  -0.021  0.00  0.00    +0.174 A 
ATOM     10  C   UNL     1       1.146  -0.683  -0.013  0.00  0.00    +0.199 A 
ATOM     11  N   UNL     1       0.002  -0.004   0.002  0.00  0.00    -0.233 NA
ATOM     12  C   UNL     1      -0.016   1.312   0.009  0.00  0.00    +0.113 A 
ATOM     13  N   UNL     1       1.444  -2.007  -0.022  0.00  0.00    -0.189 NA
ATOM     14  C   UNL     1       2.746  -2.148  -0.035  0.00  0.00    +0.230 A 
ATOM     15  O   UNL     1       3.340  -0.940  -0.034  0.00  0.00    -0.434 OA
ENDBRANCH   1  14
BRANCH   4  16
ATOM     16  C   UNL     1       5.519  -7.190  -0.086  0.00  0.00    +0.139 C 
BRANCH  16  17
ATOM     17  N   UNL     1       5.741  -7.610  -1.472  0.00  0.00    -0.308 N 
ATOM     18  C   UNL     1       6.377  -8.770  -1.730  0.00  0.00    +0.237 C 
ATOM     19  O   UNL     1       6.767  -9.468  -0.812  0.00  0.00    -0.271 OA
ATOM     20  H   UNL     1       5.431  -7.053  -2.203  0.00  0.00    +0.149 HD
BRANCH  18  21
ATOM     21  C   UNL     1       6.592  -9.176  -3.069  0.00  0.00    +0.071 C 
ATOM     22  C   UNL     1       7.232 -10.343  -3.329  0.00  0.00    +0.051 C 
BRANCH  22  23
ATOM     23  C   UNL     1       7.447 -10.749  -4.669  0.00  0.00    +0.128 A 
ATOM     24  C   UNL     1       8.086 -11.902  -5.076  0.00  0.00    +0.049 A 
ATOM     25  C   UNL     1       8.066 -11.895  -6.479  0.00  0.00    +0.042 A 
ATOM     26  C   UNL     1       7.441 -10.761  -6.864  0.00  0.00    +0.195 A 
ATOM     27  O   UNL     1       7.070 -10.074  -5.775  0.00  0.00    -0.464 OA
ENDBRANCH  22  23
ENDBRANCH  18  21
ENDBRANCH  16  17
ENDBRANCH   4  16
TORSDOF 5
