REMARK  Name = ZINC52190519
REMARK  6 active torsions:
REMARK  status: ('A' for Active; 'I' for Inactive)
REMARK    1  A    between atoms: C_1  and  C_2
REMARK    2  A    between atoms: C_2  and  N_3
REMARK    3  A    between atoms: C_4  and  C_6
REMARK    4  A    between atoms: C_9  and  C_12
REMARK    5  A    between atoms: C_12  and  N_13
REMARK    6  A    between atoms: C_21  and  C_23
REMARK                            x       y       z     vdW  Elec       q    Type
REMARK                         _______ _______ _______ _____ _____    ______ ____
ROOT
ATOM      1  N   UNL     1       4.951  -3.806  -5.880  0.00  0.00    -0.324 N 
ATOM      2  C   UNL     1       5.807  -4.243  -6.874  0.00  0.00    +0.131 A 
ATOM      3  C   UNL     1       7.197  -4.399  -6.613  0.00  0.00    +0.051 A 
ATOM      4  C   UNL     1       7.926  -4.151  -5.359  0.00  0.00    -0.025 A 
ATOM      5  C   UNL     1       9.249  -4.376  -5.371  0.00  0.00    -0.004 A 
ATOM      6  S   UNL     1       9.609  -4.928  -7.023  0.00  0.00    -0.073 S 
ATOM      7  C   UNL     1       7.972  -4.850  -7.697  0.00  0.00    +0.114 A 
ATOM      8  N   UNL     1       7.431  -5.107  -8.872  0.00  0.00    -0.225 NA
ATOM      9  C   UNL     1       6.135  -4.944  -9.056  0.00  0.00    +0.129 A 
ATOM     10  N   UNL     1       5.346  -4.528  -8.082  0.00  0.00    -0.217 NA
ATOM     11  C   UNL     1       5.540  -5.243 -10.408  0.00  0.00    +0.088 C 
ATOM     12  C   UNL     1       9.888  -4.085  -4.040  0.00  0.00    +0.043 C 
ATOM     13  C   UNL     1       8.847  -3.226  -3.290  0.00  0.00    +0.010 C 
ATOM     14  C   UNL     1       7.532  -3.675  -3.957  0.00  0.00    +0.037 C 
ATOM     15  H   UNL     1       5.297  -3.599  -4.998  0.00  0.00    +0.148 HD
ENDROOT
BRANCH   1  16
ATOM     16  C   UNL     1       3.521  -3.655  -6.159  0.00  0.00    +0.138 C 
BRANCH  16  20
ATOM     17  C   UNL     1       1.519  -2.275  -2.641  0.00  0.00    +0.037 A 
ATOM     18  C   UNL     1       2.034  -1.359  -3.559  0.00  0.00    +0.013 A 
ATOM     19  C   UNL     1       2.679  -1.810  -4.692  0.00  0.00    +0.006 A 
ATOM     20  C   UNL     1       2.816  -3.168  -4.920  0.00  0.00    -0.030 A 
ATOM     21  C   UNL     1       2.306  -4.082  -4.014  0.00  0.00    +0.006 A 
ATOM     22  C   UNL     1       1.665  -3.644  -2.874  0.00  0.00    +0.013 A 
BRANCH  17  24
ATOM     23  N   UNL     1       0.688  -0.476  -1.203  0.00  0.00    -0.312 N 
ATOM     24  C   UNL     1       0.827  -1.799  -1.425  0.00  0.00    +0.244 C 
ATOM     25  O   UNL     1       0.383  -2.599  -0.625  0.00  0.00    -0.270 OA
ATOM     26  H   UNL     1       1.042   0.162  -1.842  0.00  0.00    +0.149 HD
BRANCH  23  28
ATOM     27  C   UNL     1      -0.019   1.526   0.010  0.00  0.00    +0.024 C 
ATOM     28  C   UNL     1       0.002  -0.004   0.002  0.00  0.00    +0.101 C 
ENDBRANCH  23  28
ENDBRANCH  17  24
ENDBRANCH  16  20
ENDBRANCH   1  16
TORSDOF 4
