REMARK  Name = ZINC05658506
REMARK  7 active torsions:
REMARK  status: ('A' for Active; 'I' for Inactive)
REMARK    1  A    between atoms: C_3  and  N_28
REMARK    2  A    between atoms: C_4  and  N_25
REMARK    3  A    between atoms: C_6  and  C_7
REMARK    4  A    between atoms: C_7  and  O_9
REMARK    5  A    between atoms: O_9  and  C_10
REMARK    6  A    between atoms: C_10  and  C_11
REMARK    7  A    between atoms: N_13  and  C_14
REMARK                            x       y       z     vdW  Elec       q    Type
REMARK                         _______ _______ _______ _____ _____    ______ ____
ROOT
ATOM      1  C   UNL     1       2.489   0.889  -0.587  0.00  0.00    +0.328 C 
ENDROOT
BRANCH   1   2
ATOM      2  C   UNL     1       3.637   1.866  -0.586  0.00  0.00    +0.255 C 
ATOM      3  O   UNL     1       3.478   2.989  -1.017  0.00  0.00    -0.272 OA
ATOM      4  N   UNL     1       4.839   1.492  -0.106  0.00  0.00    -0.278 N 
ATOM      5  H   UNL     1       4.946   0.624   0.313  0.00  0.00    +0.155 HD
BRANCH   4   6
ATOM      6  C   UNL     1       5.937   2.359  -0.212  0.00  0.00    +0.111 A 
ATOM      7  C   UNL     1       7.162   1.877  -0.657  0.00  0.00    +0.185 A 
ATOM      8  C   UNL     1       8.244   2.736  -0.767  0.00  0.00    +0.198 A 
ATOM      9  C   UNL     1       8.107   4.071  -0.423  0.00  0.00    +0.199 A 
ATOM     10  C   UNL     1       6.887   4.552   0.026  0.00  0.00    +0.198 A 
ATOM     11  C   UNL     1       5.802   3.698   0.132  0.00  0.00    +0.185 A 
ATOM     12  F   UNL     1       4.613   4.167   0.571  0.00  0.00    -0.200 F 
ATOM     13  F   UNL     1       6.757   5.854   0.361  0.00  0.00    -0.199 F 
ATOM     14  F   UNL     1       9.165   4.906  -0.525  0.00  0.00    -0.199 F 
ATOM     15  F   UNL     1       9.434   2.270  -1.206  0.00  0.00    -0.199 F 
ATOM     16  F   UNL     1       7.297   0.574  -0.987  0.00  0.00    -0.200 F 
ENDBRANCH   4   6
ENDBRANCH   1   2
BRANCH   1  17
ATOM     17  O   UNL     1       1.312   1.527  -1.150  0.00  0.00    -0.452 OA
BRANCH  17  18
ATOM     18  C   UNL     1       0.190   0.783  -1.223  0.00  0.00    +0.340 C 
ATOM     19  O   UNL     1       0.195  -0.365  -0.828  0.00  0.00    -0.245 OA
BRANCH  18  25
ATOM     20  C   UNL     1      -1.051   2.687  -2.239  0.00  0.00    +0.017 A 
ATOM     21  C   UNL     1      -2.203   3.220  -2.771  0.00  0.00    +0.026 A 
ATOM     22  C   UNL     1      -3.357   2.444  -2.849  0.00  0.00    +0.055 A 
ATOM     23  C   UNL     1      -3.347   1.128  -2.395  0.00  0.00    +0.147 A 
ATOM     24  C   UNL     1      -2.205   0.591  -1.871  0.00  0.00    +0.049 A 
ATOM     25  C   UNL     1      -1.042   1.363  -1.788  0.00  0.00    +0.061 A 
BRANCH  23  26
ATOM     26  N   UNL     1      -4.576   0.308  -2.480  0.00  0.00    +0.058 N 
ATOM     27  O   UNL     1      -4.603  -0.803  -1.981  0.00  0.00    -0.126 OA
ATOM     28  O   UNL     1      -5.561   0.744  -3.049  0.00  0.00    -0.126 OA
ENDBRANCH  23  26
BRANCH  22  29
ATOM     29  N   UNL     1      -4.522   2.985  -3.381  0.00  0.00    -0.356 N 
ATOM     30  H   UNL     1      -5.385   2.625  -3.124  0.00  0.00    +0.142 HD
ATOM     31  H   UNL     1      -4.471   3.722  -4.009  0.00  0.00    +0.142 HD
ENDBRANCH  22  29
ENDBRANCH  18  25
ENDBRANCH  17  18
ENDBRANCH   1  17
TORSDOF 7
