REMARK  Name = ZINC64110660
REMARK  5 active torsions:
REMARK  status: ('A' for Active; 'I' for Inactive)
REMARK    1  A    between atoms: C_8  and  C_28
REMARK    2  A    between atoms: N_10  and  C_16
REMARK    3  A    between atoms: C_16  and  C_17
REMARK    4  A    between atoms: N_21  and  C_22
REMARK    5  A    between atoms: C_32  and  O_34
REMARK                            x       y       z     vdW  Elec       q    Type
REMARK                         _______ _______ _______ _____ _____    ______ ____
ROOT
ATOM      1  C   UNL     1      -0.186   1.204   0.052  0.00  0.00    +0.001 A 
ATOM      2  C   UNL     1       0.967   2.000   0.017  0.00  0.00    +0.002 A 
ATOM      3  C   UNL     1       2.211   1.477  -0.021  0.00  0.00    +0.026 A 
ATOM      4  C   UNL     1       2.401   0.069  -0.029  0.00  0.00    +0.043 A 
ATOM      5  N   UNL     1       3.492  -0.665  -0.038  0.00  0.00    -0.376 N 
ATOM      6  C   UNL     1       3.103  -2.068  -0.135  0.00  0.00    +0.128 C 
ATOM      7  C   UNL     1       3.676  -2.919   1.001  0.00  0.00    +0.114 C 
ATOM      8  N   UNL     1       3.003  -4.227   0.986  0.00  0.00    -0.287 NA
ATOM      9  C   UNL     1       1.580  -4.149   1.330  0.00  0.00    +0.090 C 
ATOM     10  C   UNL     1       0.819  -3.357   0.251  0.00  0.00    +0.049 C 
ATOM     11  C   UNL     1       1.590  -2.077   0.017  0.00  0.00    -0.035 C 
ATOM     12  C   UNL     1       1.197  -0.797   0.017  0.00  0.00    -0.001 A 
ATOM     13  C   UNL     1      -0.119  -0.146   0.053  0.00  0.00    +0.010 A 
ATOM     14  H   UNL     1       4.401  -0.331   0.011  0.00  0.00    +0.160 HD
ENDROOT
BRANCH   7  15
ATOM     15  C   UNL     1       3.429  -2.235   2.321  0.00  0.00    -0.025 A 
ATOM     16  C   UNL     1       2.150  -1.835   2.663  0.00  0.00    +0.005 A 
ATOM     17  C   UNL     1       1.920  -1.208   3.874  0.00  0.00    +0.004 A 
ATOM     18  C   UNL     1       2.968  -0.979   4.745  0.00  0.00    +0.045 A 
ATOM     19  C   UNL     1       4.251  -1.379   4.404  0.00  0.00    +0.117 A 
ATOM     20  C   UNL     1       4.479  -2.014   3.191  0.00  0.00    +0.050 A 
BRANCH  19  21
ATOM     21  O   UNL     1       5.284  -1.155   5.259  0.00  0.00    -0.507 OA
ATOM     22  H   UNL     1       5.438  -1.875   5.886  0.00  0.00    +0.292 HD
ENDBRANCH  19  21
ENDBRANCH   7  15
BRANCH   8  23
ATOM     23  C   UNL     1       3.702  -5.189   1.849  0.00  0.00    +0.138 C 
BRANCH  23  24
ATOM     24  C   UNL     1       3.139  -6.568   1.622  0.00  0.00    +0.038 A 
ATOM     25  C   UNL     1       3.643  -7.500   0.787  0.00  0.00    +0.024 A 
ATOM     26  C   UNL     1       2.819  -8.640   0.878  0.00  0.00    +0.020 A 
ATOM     27  C   UNL     1       1.842  -8.363   1.765  0.00  0.00    +0.091 A 
ATOM     28  N   UNL     1       2.035  -7.093   2.230  0.00  0.00    -0.317 N 
BRANCH  28  29
ATOM     29  C   UNL     1       1.232  -6.437   3.174  0.00  0.00    +0.064 A 
ATOM     30  C   UNL     1      -0.152  -6.408   3.025  0.00  0.00    +0.029 A 
ATOM     31  C   UNL     1      -0.904  -5.747   3.983  0.00  0.00    +0.022 A 
ATOM     32  C   UNL     1      -0.260  -5.143   5.047  0.00  0.00    +0.111 A 
ATOM     33  N   UNL     1       1.053  -5.187   5.158  0.00  0.00    -0.261 NA
ATOM     34  C   UNL     1       1.804  -5.811   4.272  0.00  0.00    +0.136 A 
ENDBRANCH  28  29
ENDBRANCH  23  24
ENDBRANCH   8  23
TORSDOF 5
