REMARK  Name = ZINC04282364
REMARK  5 active torsions:
REMARK  status: ('A' for Active; 'I' for Inactive)
REMARK    1  A    between atoms: C_10  and  C_11
REMARK    2  A    between atoms: N_12  and  N_13
REMARK    3  A    between atoms: C_14  and  C_16
REMARK    4  A    between atoms: C_16  and  N_17
REMARK    5  A    between atoms: C_18  and  C_20
REMARK                            x       y       z     vdW  Elec       q    Type
REMARK                         _______ _______ _______ _____ _____    ______ ____
ROOT
ATOM      1  N   UNL     1       0.702  -0.785  -1.357  0.00  0.00    -0.206 N 
ATOM      2  C   UNL     1       0.084  -0.284  -0.269  0.00  0.00    +0.249 C 
ATOM      3  O   UNL     1      -0.399  -1.034   0.553  0.00  0.00    -0.272 OA
ATOM      4  H   UNL     1       1.089  -0.186  -2.014  0.00  0.00    +0.177 HD
ENDROOT
BRANCH   1   6
ATOM      5  C   UNL     1       1.381  -2.655  -2.588  0.00  0.00    +0.139 C 
ATOM      6  N   UNL     1       0.785  -2.172  -1.539  0.00  0.00    -0.188 NA
BRANCH   5  16
ATOM      7  C   UNL     1       0.112  -6.823   0.173  0.00  0.00    +0.001 A 
ATOM      8  C   UNL     1       0.012  -5.451   0.391  0.00  0.00    +0.001 A 
ATOM      9  C   UNL     1       0.444  -4.560  -0.546  0.00  0.00    +0.009 A 
ATOM     10  C   UNL     1       0.994  -5.029  -1.746  0.00  0.00    -0.009 A 
ATOM     11  C   UNL     1       1.096  -6.423  -1.970  0.00  0.00    -0.017 A 
ATOM     12  C   UNL     1       0.642  -7.313  -0.981  0.00  0.00    +0.008 A 
ATOM     13  C   UNL     1       1.650  -6.890  -3.174  0.00  0.00    +0.008 A 
ATOM     14  C   UNL     1       2.086  -6.017  -4.123  0.00  0.00    +0.001 A 
ATOM     15  C   UNL     1       2.000  -4.642  -3.948  0.00  0.00    +0.010 A 
ATOM     16  C   UNL     1       1.469  -4.111  -2.779  0.00  0.00    +0.002 A 
ENDBRANCH   5  16
ENDBRANCH   1   6
BRANCH   2  17
ATOM     17  C   UNL     1      -0.006   1.207  -0.073  0.00  0.00    +0.202 C 
BRANCH  17  18
ATOM     18  N   UNL     1      -0.718   1.494   1.174  0.00  0.00    -0.303 N 
ATOM     19  C   UNL     1      -0.919   2.771   1.557  0.00  0.00    +0.245 C 
ATOM     20  O   UNL     1      -0.509   3.684   0.867  0.00  0.00    -0.270 OA
ATOM     21  H   UNL     1      -1.045   0.765   1.724  0.00  0.00    +0.150 HD
BRANCH  19  22
ATOM     22  C   UNL     1      -1.636   3.059   2.813  0.00  0.00    +0.044 A 
ATOM     23  C   UNL     1      -2.003   2.028   3.664  0.00  0.00    +0.013 A 
ATOM     24  C   UNL     1      -2.678   2.293   4.849  0.00  0.00    +0.001 A 
ATOM     25  C   UNL     1      -2.998   3.568   5.208  0.00  0.00    +0.008 A 
ATOM     26  C   UNL     1      -2.645   4.645   4.376  0.00  0.00    -0.017 A 
ATOM     27  C   UNL     1      -1.952   4.395   3.167  0.00  0.00    -0.006 A 
ATOM     28  C   UNL     1      -1.606   5.469   2.336  0.00  0.00    +0.009 A 
ATOM     29  C   UNL     1      -1.930   6.740   2.705  0.00  0.00    +0.001 A 
ATOM     30  C   UNL     1      -2.608   6.989   3.897  0.00  0.00    +0.001 A 
ATOM     31  C   UNL     1      -2.964   5.969   4.726  0.00  0.00    +0.008 A 
ENDBRANCH  19  22
ENDBRANCH  17  18
ENDBRANCH   2  17
TORSDOF 5
