REMARK  Name = ZINC13968403
REMARK  8 active torsions:
REMARK  status: ('A' for Active; 'I' for Inactive)
REMARK    1  A    between atoms: C_1  and  C_2
REMARK    2  A    between atoms: C_5  and  C_38
REMARK    3  A    between atoms: N_8  and  S_10
REMARK    4  A    between atoms: S_10  and  C_13
REMARK    5  A    between atoms: C_16  and  C_19
REMARK    6  A    between atoms: C_24  and  C_27
REMARK    7  A    between atoms: C_31  and  O_36
REMARK    8  A    between atoms: O_36  and  C_37
REMARK                            x       y       z     vdW  Elec       q    Type
REMARK                         _______ _______ _______ _____ _____    ______ ____
ROOT
ATOM      1  C   UNL     1      -2.778   4.368   7.599  0.00  0.00    +0.250 C 
ATOM      2  O   UNL     1      -3.918   4.775   7.486  0.00  0.00    -0.270 OA
ATOM      3  N   UNL     1      -1.999   4.817   8.603  0.00  0.00    -0.261 N 
ATOM      4  C   UNL     1      -2.497   5.745   9.507  0.00  0.00    +0.165 A 
ATOM      5  N   UNL     1      -1.901   6.302  10.544  0.00  0.00    -0.221 NA
ATOM      6  C   UNL     1      -2.537   7.184  11.312  0.00  0.00    +0.115 A 
ATOM      7  C   UNL     1      -3.832   7.517  11.016  0.00  0.00    +0.080 A 
ATOM      8  S   UNL     1      -4.112   6.508   9.567  0.00  0.00    -0.060 S 
ATOM      9  H   UNL     1      -0.967   4.448   8.706  0.00  0.00    +0.157 HD
ENDROOT
BRANCH   6  10
ATOM     10  C   UNL     1      -1.853   7.797  12.470  0.00  0.00    +0.155 A 
ATOM     11  C   UNL     1      -0.580   7.533  12.851  0.00  0.00    +0.060 A 
ATOM     12  C   UNL     1      -0.330   8.363  14.033  0.00  0.00    +0.024 A 
ATOM     13  C   UNL     1       0.766   8.548  14.876  0.00  0.00    +0.057 A 
ATOM     14  C   UNL     1       0.669   9.426  15.938  0.00  0.00    +0.121 A 
ATOM     15  C   UNL     1      -0.515  10.121  16.164  0.00  0.00    +0.049 A 
ATOM     16  C   UNL     1      -1.603   9.944  15.336  0.00  0.00    +0.050 A 
ATOM     17  C   UNL     1      -1.526   9.066  14.263  0.00  0.00    +0.136 A 
ATOM     18  O   UNL     1      -2.405   8.697  13.307  0.00  0.00    -0.453 OA
BRANCH  14  19
ATOM     19  O   UNL     1       1.733   9.612  16.765  0.00  0.00    -0.495 OA
ATOM     20  C   UNL     1       1.563  10.535  17.843  0.00  0.00    +0.277 C 
ENDBRANCH  14  19
ENDBRANCH   6  10
BRANCH   1  24
ATOM     21  C   UNL     1      -1.253   1.526   4.835  0.00  0.00    +0.106 A 
ATOM     22  C   UNL     1      -0.452   1.981   5.867  0.00  0.00    +0.029 A 
ATOM     23  C   UNL     1      -0.939   2.909   6.765  0.00  0.00    +0.015 A 
ATOM     24  C   UNL     1      -2.247   3.379   6.637  0.00  0.00    +0.037 A 
ATOM     25  C   UNL     1      -3.052   2.912   5.597  0.00  0.00    +0.015 A 
ATOM     26  C   UNL     1      -2.551   1.989   4.702  0.00  0.00    +0.029 A 
BRANCH  21  27
ATOM     27  S   UNL     1      -0.621   0.347   3.688  0.00  0.00    +0.061 S 
ATOM     28  O   UNL     1      -1.744  -0.332   3.144  0.00  0.00    -0.153 OA
ATOM     29  O   UNL     1       0.435  -0.336   4.349  0.00  0.00    -0.153 OA
BRANCH  27  35
ATOM     30  C   UNL     1       3.619   1.586   1.189  0.00  0.00    +0.009 C 
ATOM     31  C   UNL     1       2.175   1.082   1.218  0.00  0.00    +0.002 C 
ATOM     32  C   UNL     1       1.423   1.616  -0.003  0.00  0.00    +0.009 C 
ATOM     33  C   UNL     1      -0.013   1.086   0.008  0.00  0.00    +0.002 C 
ATOM     34  C   UNL     1      -0.726   1.581   1.270  0.00  0.00    +0.112 C 
ATOM     35  N   UNL     1       0.069   1.195   2.444  0.00  0.00    -0.176 NA
ATOM     36  C   UNL     1       1.486   1.577   2.494  0.00  0.00    +0.112 C 
ATOM     37  C   UNL     1      -0.754   1.593  -1.230  0.00  0.00    +0.009 C 
ENDBRANCH  27  35
ENDBRANCH  21  27
ENDBRANCH   1  24
TORSDOF 5
