REMARK  Name = ZINC39610485
REMARK  4 active torsions:
REMARK  status: ('A' for Active; 'I' for Inactive)
REMARK    1  A    between atoms: C_6  and  C_7
REMARK    2  A    between atoms: C_7  and  N_8
REMARK    3  A    between atoms: C_9  and  C_11
REMARK    4  A    between atoms: C_22  and  C_24
REMARK                            x       y       z     vdW  Elec       q    Type
REMARK                         _______ _______ _______ _____ _____    ______ ____
ROOT
ATOM      1  C   UNL     1      -3.625  -1.441  -2.645  0.00  0.00    +0.100 C 
ATOM      2  C   UNL     1      -3.873  -0.265  -3.615  0.00  0.00    +0.121 C 
ATOM      3  N   UNL     1      -5.005  -0.710  -4.462  0.00  0.00    -0.296 N 
ATOM      4  C   UNL     1      -5.910  -1.419  -3.526  0.00  0.00    +0.115 C 
ATOM      5  C   UNL     1      -4.964  -2.196  -2.588  0.00  0.00    -0.004 C 
ATOM      6  C   UNL     1      -5.513  -2.192  -1.165  0.00  0.00    -0.010 C 
ATOM      7  C   UNL     1      -6.814  -2.998  -1.122  0.00  0.00    -0.082 C 
ATOM      8  N   UNL     1      -6.555  -4.373  -1.564  0.00  0.00    +0.379 N 
ATOM      9  C   UNL     1      -6.116  -4.374  -2.965  0.00  0.00    -0.082 C 
ATOM     10  C   UNL     1      -4.785  -3.627  -3.086  0.00  0.00    -0.010 C 
ATOM     11  C   UNL     1      -5.173  -0.516  -5.785  0.00  0.00    +0.247 C 
ATOM     12  O   UNL     1      -4.278  -0.025  -6.446  0.00  0.00    -0.270 OA
ATOM     13  H   UNL     1      -5.835  -4.781  -0.987  0.00  0.00    -0.086 HD
ATOM     14  H   UNL     1      -7.400  -4.918  -1.477  0.00  0.00    -0.086 HD
ENDROOT
BRANCH  11  15
ATOM     15  C   UNL     1      -6.446  -0.899  -6.433  0.00  0.00    +0.040 A 
ATOM     16  C   UNL     1      -7.603  -1.049  -5.668  0.00  0.00    +0.033 A 
ATOM     17  C   UNL     1      -8.789  -1.407  -6.279  0.00  0.00    +0.043 A 
ATOM     18  C   UNL     1      -8.831  -1.618  -7.646  0.00  0.00    +0.040 A 
ATOM     19  C   UNL     1      -7.685  -1.471  -8.410  0.00  0.00    +0.043 A 
ATOM     20  C   UNL     1      -6.495  -1.107  -7.812  0.00  0.00    +0.033 A 
ATOM     21 CL   UNL     1      -7.747  -1.738 -10.124  0.00  0.00    -0.083 Cl
ATOM     22 CL   UNL     1     -10.230  -1.595  -5.329  0.00  0.00    -0.083 Cl
ENDBRANCH  11  15
BRANCH   1  24
ATOM     23  N   UNL     1      -2.445  -1.649  -0.481  0.00  0.00    -0.311 N 
ATOM     24  C   UNL     1      -3.255  -0.925  -1.278  0.00  0.00    +0.218 C 
ATOM     25  O   UNL     1      -3.687   0.142  -0.895  0.00  0.00    -0.275 OA
ATOM     26  H   UNL     1      -2.099  -2.502  -0.787  0.00  0.00    +0.149 HD
BRANCH  23  27
ATOM     27  C   UNL     1      -2.085  -1.147   0.848  0.00  0.00    +0.139 C 
BRANCH  27  33
ATOM     28  C   UNL     1       0.194  -2.037   1.375  0.00  0.00    +0.008 A 
ATOM     29  C   UNL     1       1.029  -2.945   2.000  0.00  0.00    +0.040 A 
ATOM     30  C   UNL     1       0.493  -3.954   2.780  0.00  0.00    +0.142 A 
ATOM     31  C   UNL     1      -0.881  -4.054   2.935  0.00  0.00    +0.076 A 
ATOM     32  C   UNL     1      -1.714  -3.145   2.309  0.00  0.00    +0.028 A 
ATOM     33  C   UNL     1      -1.176  -2.137   1.529  0.00  0.00    -0.029 A 
ATOM     34 CL   UNL     1      -1.555  -5.319   3.914  0.00  0.00    -0.081 Cl
ATOM     35  F   UNL     1       1.308  -4.841   3.391  0.00  0.00    -0.204 F 
ENDBRANCH  27  33
ENDBRANCH  23  27
ENDBRANCH   1  24
TORSDOF 4
