REMARK  Name = ZINC21226275
REMARK  8 active torsions:
REMARK  status: ('A' for Active; 'I' for Inactive)
REMARK    1  A    between atoms: C_1  and  C_2
REMARK    2  A    between atoms: C_2  and  O_3
REMARK    3  A    between atoms: O_3  and  C_4
REMARK    4  A    between atoms: C_7  and  C_13
REMARK    5  A    between atoms: C_9  and  O_10
REMARK    6  A    between atoms: O_10  and  C_11
REMARK    7  A    between atoms: C_11  and  C_12
REMARK    8  A    between atoms: C_18  and  C_23
REMARK                            x       y       z     vdW  Elec       q    Type
REMARK                         _______ _______ _______ _____ _____    ______ ____
ROOT
ATOM      1  C   UNL     1      -1.406   2.002   0.017  0.00  0.00    +0.136 C 
ATOM      2  C   UNL     1      -0.001   1.451  -0.006  0.00  0.00    +0.036 C 
ATOM      3  C   UNL     1       1.131   2.176  -0.010  0.00  0.00    +0.017 C 
ATOM      4  C   UNL     1       2.486   1.490  -0.032  0.00  0.00    +0.059 C 
ATOM      5  C   UNL     1       2.392   0.176  -0.806  0.00  0.00    +0.033 C 
ATOM      6  C   UNL     1       1.358  -0.709  -0.100  0.00  0.00    +0.088 C 
ATOM      7  C   UNL     1       0.059   0.038  -0.033  0.00  0.00    +0.163 C 
ATOM      8  O   UNL     1      -0.979  -0.594  -0.002  0.00  0.00    -0.292 OA
ATOM      9  N   UNL     1       1.180   3.532   0.016  0.00  0.00    -0.316 N 
ATOM     10  C   UNL     1       0.412   4.372  -0.782  0.00  0.00    +0.052 A 
ATOM     11  C   UNL     1       0.972   5.200  -1.739  0.00  0.00    +0.025 A 
ATOM     12  C   UNL     1       0.152   6.047  -2.467  0.00  0.00    +0.002 A 
ATOM     13  C   UNL     1      -1.211   6.066  -2.237  0.00  0.00    +0.002 A 
ATOM     14  C   UNL     1      -1.774   5.224  -1.293  0.00  0.00    +0.025 A 
ATOM     15  C   UNL     1      -0.960   4.361  -0.579  0.00  0.00    +0.049 A 
ATOM     16  N   UNL     1      -1.492   3.419   0.300  0.00  0.00    -0.331 N 
ATOM     17  H   UNL     1       1.867   4.045   0.707  0.00  0.00    +0.152 HD
ATOM     18  H   UNL     1      -1.982   3.767   1.221  0.00  0.00    +0.147 HD
ENDROOT
BRANCH   5  19
ATOM     19  C   UNL     1       3.734  -0.511  -0.810  0.00  0.00    -0.025 A 
ATOM     20  C   UNL     1       4.345  -0.842   0.385  0.00  0.00    +0.005 A 
ATOM     21  C   UNL     1       5.575  -1.473   0.381  0.00  0.00    +0.000 A 
ATOM     22  C   UNL     1       6.195  -1.773  -0.818  0.00  0.00    +0.001 A 
ATOM     23  C   UNL     1       5.585  -1.442  -2.014  0.00  0.00    +0.020 A 
ATOM     24  C   UNL     1       4.351  -0.816  -2.010  0.00  0.00    +0.044 A 
ATOM     25 CL   UNL     1       3.580  -0.408  -3.511  0.00  0.00    -0.083 Cl
ENDBRANCH   5  19
BRANCH   1  29
ATOM     26  C   UNL     1      -3.205   1.274  -3.794  0.00  0.00    +0.162 A 
ATOM     27  C   UNL     1      -2.093   2.095  -3.695  0.00  0.00    +0.050 A 
ATOM     28  C   UNL     1      -1.517   2.333  -2.461  0.00  0.00    +0.009 A 
ATOM     29  C   UNL     1      -2.042   1.745  -1.325  0.00  0.00    -0.019 A 
ATOM     30  C   UNL     1      -3.151   0.925  -1.417  0.00  0.00    +0.055 A 
ATOM     31  C   UNL     1      -3.736   0.686  -2.650  0.00  0.00    +0.162 A 
BRANCH  26  32
ATOM     32  O   UNL     1      -3.776   1.044  -5.007  0.00  0.00    -0.489 OA
BRANCH  32  34
ATOM     33  C   UNL     1      -3.952   1.306  -7.403  0.00  0.00    +0.048 C 
ATOM     34  C   UNL     1      -3.178   1.680  -6.137  0.00  0.00    +0.226 C 
ENDBRANCH  32  34
ENDBRANCH  26  32
BRANCH  31  35
ATOM     35  O   UNL     1      -4.828  -0.119  -2.742  0.00  0.00    -0.489 OA
BRANCH  35  36
ATOM     36  C   UNL     1      -5.319  -0.688  -1.526  0.00  0.00    +0.226 C 
ATOM     37  C   UNL     1      -6.541  -1.558  -1.827  0.00  0.00    +0.048 C 
ENDBRANCH  35  36
ENDBRANCH  31  35
ENDBRANCH   1  29
TORSDOF 6
