REMARK  Name = ZINC39688471
REMARK  8 active torsions:
REMARK  status: ('A' for Active; 'I' for Inactive)
REMARK    1  A    between atoms: C_1  and  C_2
REMARK    2  A    between atoms: C_2  and  C_3
REMARK    3  A    between atoms: C_6  and  C_9
REMARK    4  A    between atoms: C_13  and  C_22
REMARK    5  A    between atoms: N_24  and  C_25
REMARK    6  A    between atoms: C_25  and  C_27
REMARK    7  A    between atoms: C_25  and  C_28
REMARK    8  A    between atoms: C_28  and  C_29
REMARK                            x       y       z     vdW  Elec       q    Type
REMARK                         _______ _______ _______ _____ _____    ______ ____
ROOT
ATOM      1  C   UNL     1      -5.060  -2.143   0.258  0.00  0.00    +0.247 C 
ATOM      2  O   UNL     1      -5.666  -2.363   1.288  0.00  0.00    -0.270 OA
ATOM      3  N   UNL     1      -5.685  -2.261  -0.930  0.00  0.00    -0.296 N 
ATOM      4  C   UNL     1      -5.090  -2.165  -2.284  0.00  0.00    +0.121 C 
ATOM      5  C   UNL     1      -5.808  -3.259  -3.105  0.00  0.00    +0.100 C 
ATOM      6  C   UNL     1      -7.143  -3.485  -2.376  0.00  0.00    -0.004 C 
ATOM      7  C   UNL     1      -7.123  -2.523  -1.178  0.00  0.00    +0.115 C 
ATOM      8  C   UNL     1      -7.241  -4.926  -1.886  0.00  0.00    -0.010 C 
ATOM      9  C   UNL     1      -8.600  -5.141  -1.214  0.00  0.00    -0.082 C 
ATOM     10  N   UNL     1      -9.673  -4.855  -2.175  0.00  0.00    +0.379 N 
ATOM     11  C   UNL     1      -9.628  -3.442  -2.570  0.00  0.00    -0.082 C 
ATOM     12  C   UNL     1      -8.312  -3.156  -3.299  0.00  0.00    -0.010 C 
ATOM     13  H   UNL     1      -9.554  -5.436  -2.991  0.00  0.00    -0.086 HD
ATOM     14  H   UNL     1     -10.565  -5.056  -1.749  0.00  0.00    -0.086 HD
ENDROOT
BRANCH   1  18
ATOM     15  C   UNL     1      -0.971  -1.001   0.401  0.00  0.00    -0.048 A 
ATOM     16  C   UNL     1      -1.577  -1.534   1.525  0.00  0.00    +0.004 A 
ATOM     17  C   UNL     1      -2.905  -1.907   1.485  0.00  0.00    +0.013 A 
ATOM     18  C   UNL     1      -3.637  -1.745   0.308  0.00  0.00    +0.037 A 
ATOM     19  C   UNL     1      -3.019  -1.206  -0.822  0.00  0.00    +0.013 A 
ATOM     20  C   UNL     1      -1.693  -0.833  -0.768  0.00  0.00    +0.004 A 
BRANCH  15  22
ATOM     21  C   UNL     1       0.582   0.895   0.780  0.00  0.00    +0.009 C 
ATOM     22  C   UNL     1       0.480  -0.596   0.452  0.00  0.00    +0.032 C 
ENDBRANCH  15  22
ENDBRANCH   1  18
BRANCH   5  23
ATOM     23  C   UNL     1      -4.993  -4.527  -3.116  0.00  0.00    +0.218 C 
ATOM     24  O   UNL     1      -4.235  -4.768  -2.201  0.00  0.00    -0.275 OA
ATOM     25  N   UNL     1      -5.106  -5.392  -4.143  0.00  0.00    -0.312 N 
ATOM     26  H   UNL     1      -5.657  -5.166  -4.909  0.00  0.00    +0.149 HD
BRANCH  25  27
ATOM     27  C   UNL     1      -4.398  -6.674  -4.103  0.00  0.00    +0.074 C 
ATOM     28  C   UNL     1      -5.264  -7.712  -3.386  0.00  0.00    +0.028 C 
BRANCH  27  29
ATOM     29  C   UNL     1      -4.114  -7.145  -5.530  0.00  0.00    +0.057 C 
BRANCH  29  30
ATOM     30  C   UNL     1      -3.170  -6.180  -6.199  0.00  0.00    -0.045 A 
ATOM     31  C   UNL     1      -3.666  -5.058  -6.837  0.00  0.00    +0.006 A 
ATOM     32  C   UNL     1      -2.800  -4.172  -7.450  0.00  0.00    +0.038 A 
ATOM     33  C   UNL     1      -1.436  -4.408  -7.426  0.00  0.00    +0.123 A 
ATOM     34  C   UNL     1      -0.941  -5.532  -6.786  0.00  0.00    +0.038 A 
ATOM     35  C   UNL     1      -1.808  -6.414  -6.169  0.00  0.00    +0.006 A 
ATOM     36  F   UNL     1      -0.589  -3.543  -8.025  0.00  0.00    -0.205 F 
ENDBRANCH  29  30
ENDBRANCH  27  29
ENDBRANCH  25  27
ENDBRANCH   5  23
TORSDOF 6
