REMARK  Name = ZINC04163802
REMARK  7 active torsions:
REMARK  status: ('A' for Active; 'I' for Inactive)
REMARK    1  A    between atoms: C_1  and  C_2
REMARK    2  A    between atoms: C_2  and  O_3
REMARK    3  A    between atoms: O_3  and  C_4
REMARK    4  A    between atoms: C_9  and  N_10
REMARK    5  A    between atoms: C_11  and  C_13
REMARK    6  A    between atoms: C_14  and  C_28
REMARK    7  A    between atoms: C_19  and  C_21
REMARK                            x       y       z     vdW  Elec       q    Type
REMARK                         _______ _______ _______ _____ _____    ______ ____
ROOT
ATOM      1  C   UNL     1      -1.046   2.778   0.113  0.00  0.00    +0.056 C 
ATOM      2  C   UNL     1       0.203   3.100   0.509  0.00  0.00    +0.019 C 
ATOM      3  N   UNL     1       1.238   2.220   0.367  0.00  0.00    -0.273 N 
ATOM      4  C   UNL     1       1.105   0.997  -0.163  0.00  0.00    +0.304 C 
ATOM      5  O   UNL     1       2.085   0.283  -0.248  0.00  0.00    -0.252 OA
ATOM      6  N   UNL     1      -0.081   0.532  -0.604  0.00  0.00    -0.288 N 
ATOM      7  C   UNL     1      -1.259   1.408  -0.500  0.00  0.00    +0.143 C 
ATOM      8  C   UNL     1       0.460   4.454   1.120  0.00  0.00    +0.061 C 
ATOM      9  H   UNL     1       2.119   2.495   0.667  0.00  0.00    +0.156 HD
ATOM     10  H   UNL     1      -0.155  -0.357  -0.985  0.00  0.00    +0.151 HD
ENDROOT
BRANCH   7  11
ATOM     11  C   UNL     1      -2.299   0.693   0.324  0.00  0.00    -0.009 A 
ATOM     12  C   UNL     1      -1.909  -0.199   1.306  0.00  0.00    +0.007 A 
ATOM     13  C   UNL     1      -2.862  -0.855   2.061  0.00  0.00    +0.000 A 
ATOM     14  C   UNL     1      -4.206  -0.620   1.836  0.00  0.00    +0.001 A 
ATOM     15  C   UNL     1      -4.597   0.271   0.855  0.00  0.00    +0.015 A 
ATOM     16  C   UNL     1      -3.643   0.932   0.101  0.00  0.00    +0.023 A 
ATOM     17 BR   UNL     1      -4.176   2.157  -1.237  0.00  0.00    -0.050 Br
ENDBRANCH   7  11
BRANCH   1  19
ATOM     18  N   UNL     1      -2.288   4.683  -0.636  0.00  0.00    -0.279 N 
ATOM     19  C   UNL     1      -2.119   3.690   0.260  0.00  0.00    +0.248 C 
ATOM     20  O   UNL     1      -2.890   3.578   1.196  0.00  0.00    -0.270 OA
ATOM     21  H   UNL     1      -1.731   4.719  -1.430  0.00  0.00    +0.155 HD
BRANCH  18  27
ATOM     22  C   UNL     1      -3.708   6.452  -1.481  0.00  0.00    +0.142 A 
ATOM     23  C   UNL     1      -4.681   7.414  -1.264  0.00  0.00    +0.047 A 
ATOM     24  C   UNL     1      -5.203   7.596   0.003  0.00  0.00    +0.004 A 
ATOM     25  C   UNL     1      -4.763   6.815   1.055  0.00  0.00    +0.002 A 
ATOM     26  C   UNL     1      -3.796   5.849   0.847  0.00  0.00    +0.027 A 
ATOM     27  C   UNL     1      -3.267   5.661  -0.422  0.00  0.00    +0.076 A 
BRANCH  22  28
ATOM     28  O   UNL     1      -3.188   6.276  -2.725  0.00  0.00    -0.490 OA
BRANCH  28  30
ATOM     29  C   UNL     1      -2.990   6.780  -5.080  0.00  0.00    +0.048 C 
ATOM     30  C   UNL     1      -3.688   7.123  -3.762  0.00  0.00    +0.226 C 
ENDBRANCH  28  30
ENDBRANCH  22  28
ENDBRANCH  18  27
ENDBRANCH   1  19
TORSDOF 5
