REMARK  Name = ZINC46132835
REMARK  8 active torsions:
REMARK  status: ('A' for Active; 'I' for Inactive)
REMARK    1  A    between atoms: C_1  and  C_2
REMARK    2  A    between atoms: C_5  and  C_9
REMARK    3  A    between atoms: C_7  and  C_8
REMARK    4  A    between atoms: C_9  and  N_11
REMARK    5  A    between atoms: N_13  and  C_14
REMARK    6  A    between atoms: C_19  and  C_20
REMARK    7  A    between atoms: N_22  and  C_23
REMARK    8  A    between atoms: C_23  and  C_24
REMARK                            x       y       z     vdW  Elec       q    Type
REMARK                         _______ _______ _______ _____ _____    ______ ____
ROOT
ATOM      1  N   UNL     1      -0.952  -5.091  -1.337  0.00  0.00    -0.143 NA
ATOM      2  C   UNL     1      -0.492  -6.332  -1.296  0.00  0.00    +0.194 C 
ATOM      3  N   UNL     1      -0.014  -6.921  -2.430  0.00  0.00    -0.328 N 
ATOM      4  N   UNL     1      -0.497  -7.022  -0.119  0.00  0.00    -0.355 N 
ATOM      5  H   UNL     1       0.298  -7.839  -2.406  0.00  0.00    +0.169 HD
ATOM      6  H   UNL     1      -0.927  -6.644   0.664  0.00  0.00    +0.162 HD
ENDROOT
BRANCH   3   7
ATOM      7  C   UNL     1       0.026  -6.200  -3.629  0.00  0.00    +0.045 A 
ATOM      8  C   UNL     1       0.195  -4.822  -3.607  0.00  0.00    +0.027 A 
ATOM      9  C   UNL     1       0.235  -4.113  -4.791  0.00  0.00    +0.022 A 
ATOM     10  C   UNL     1       0.106  -4.775  -6.000  0.00  0.00    +0.041 A 
ATOM     11  C   UNL     1      -0.062  -6.148  -6.025  0.00  0.00    +0.025 A 
ATOM     12  C   UNL     1      -0.097  -6.862  -4.843  0.00  0.00    -0.026 A 
ATOM     13  C   UNL     1      -0.275  -8.359  -4.872  0.00  0.00    +0.046 C 
ATOM     14 CL   UNL     1       0.157  -3.881  -7.487  0.00  0.00    -0.084 Cl
ENDBRANCH   3   7
BRANCH   1  15
ATOM     15  C   UNL     1      -1.247  -4.447  -0.200  0.00  0.00    +0.270 C 
ATOM     16  O   UNL     1      -1.157  -5.026   0.868  0.00  0.00    -0.268 OA
BRANCH  15  21
ATOM     17  C   UNL     1      -2.940   1.053  -0.359  0.00  0.00    +0.044 C 
ATOM     18  C   UNL     1      -2.497  -0.387  -0.318  0.00  0.00    -0.047 A 
ATOM     19  C   UNL     1      -2.192  -1.049  -1.494  0.00  0.00    +0.004 A 
ATOM     20  C   UNL     1      -1.786  -2.367  -1.462  0.00  0.00    +0.013 A 
ATOM     21  C   UNL     1      -1.682  -3.032  -0.241  0.00  0.00    +0.039 A 
ATOM     22  C   UNL     1      -1.990  -2.360   0.942  0.00  0.00    +0.016 A 
ATOM     23  C   UNL     1      -2.391  -1.040   0.897  0.00  0.00    -0.047 A 
ATOM     24  C   UNL     1      -2.718  -0.310   2.175  0.00  0.00    +0.044 C 
ENDBRANCH  15  21
ENDBRANCH   1  15
BRANCH   4  25
ATOM     25  C   UNL     1       0.147  -8.335  -0.037  0.00  0.00    +0.147 C 
BRANCH  25  26
ATOM     26  C   UNL     1      -0.106  -8.943   1.344  0.00  0.00    +0.137 C 
ATOM     27  C   UNL     1       0.609 -10.306   1.455  0.00  0.00    +0.035 C 
ATOM     28  C   UNL     1      -0.424 -11.158   2.241  0.00  0.00    +0.031 C 
ATOM     29  C   UNL     1      -1.756 -10.578   1.700  0.00  0.00    +0.160 C 
ATOM     30  O   UNL     1      -1.509  -9.172   1.523  0.00  0.00    -0.375 OA
ENDBRANCH  25  26
ENDBRANCH   4  25
TORSDOF 5
