REMARK  Name = ZINC65055160
REMARK  7 active torsions:
REMARK  status: ('A' for Active; 'I' for Inactive)
REMARK    1  A    between atoms: C_1  and  C_2
REMARK    2  A    between atoms: C_5  and  N_8
REMARK    3  A    between atoms: N_8  and  S_9
REMARK    4  A    between atoms: S_9  and  C_12
REMARK    5  A    between atoms: C_14  and  C_19
REMARK    6  A    between atoms: C_15  and  C_18
REMARK    7  A    between atoms: N_21  and  C_22
REMARK                            x       y       z     vdW  Elec       q    Type
REMARK                         _______ _______ _______ _____ _____    ______ ____
ROOT
ATOM      1  C   UNL     1       0.083  -6.731   0.939  0.00  0.00    +0.327 C 
ATOM      2  C   UNL     1      -0.076  -7.634   2.150  0.00  0.00    +0.086 C 
ATOM      3  C   UNL     1      -1.227  -8.299   1.905  0.00  0.00    +0.072 C 
ATOM      4  N   UNL     1      -1.756  -7.909   0.724  0.00  0.00    -0.157 NA
ATOM      5  N   UNL     1      -1.100  -7.050   0.123  0.00  0.00    -0.154 NA
ATOM      6  C   UNL     1      -1.835  -9.332   2.820  0.00  0.00    +0.068 C 
ENDROOT
BRANCH   2   7
ATOM      7  C   UNL     1       0.813  -7.755   3.314  0.00  0.00    +0.250 C 
ATOM      8  O   UNL     1       0.540  -8.534   4.208  0.00  0.00    -0.270 OA
ATOM      9  N   UNL     1       1.930  -7.005   3.390  0.00  0.00    -0.279 N 
ATOM     10  H   UNL     1       2.190  -6.445   2.642  0.00  0.00    +0.155 HD
BRANCH   9  11
ATOM     11  C   UNL     1       2.714  -7.034   4.550  0.00  0.00    +0.069 A 
ATOM     12  C   UNL     1       2.144  -7.380   5.767  0.00  0.00    +0.029 A 
ATOM     13  C   UNL     1       2.919  -7.408   6.910  0.00  0.00    +0.040 A 
ATOM     14  C   UNL     1       4.266  -7.091   6.843  0.00  0.00    +0.126 A 
ATOM     15  C   UNL     1       4.838  -6.744   5.631  0.00  0.00    +0.078 A 
ATOM     16  C   UNL     1       4.067  -6.721   4.483  0.00  0.00    +0.147 A 
ATOM     17  F   UNL     1       4.627  -6.388   3.299  0.00  0.00    -0.203 F 
ATOM     18  F   UNL     1       5.021  -7.119   7.962  0.00  0.00    -0.205 F 
ENDBRANCH   9  11
ENDBRANCH   2   7
BRANCH   1  19
ATOM     19  S   UNL     1       0.068  -4.986   1.434  0.00  0.00    +0.092 S 
ATOM     20  O   UNL     1       1.305  -4.638   2.041  0.00  0.00    -0.151 OA
ATOM     21  O   UNL     1      -1.164  -4.667   2.067  0.00  0.00    -0.151 OA
BRANCH  19  22
ATOM     22  N   UNL     1       0.043  -4.140   0.011  0.00  0.00    -0.100 NA
BRANCH  22  27
ATOM     23  C   UNL     1      -0.024   1.530   0.083  0.00  0.00    +0.044 C 
ATOM     24  C   UNL     1      -0.006   0.023   0.064  0.00  0.00    -0.050 A 
ATOM     25  C   UNL     1      -0.011  -0.651  -1.143  0.00  0.00    +0.005 A 
ATOM     26  C   UNL     1       0.006  -2.032  -1.164  0.00  0.00    +0.027 A 
ATOM     27  C   UNL     1       0.027  -2.743   0.029  0.00  0.00    +0.074 A 
ATOM     28  C   UNL     1       0.031  -2.062   1.240  0.00  0.00    +0.027 A 
ATOM     29  C   UNL     1       0.021  -0.681   1.254  0.00  0.00    +0.005 A 
ENDBRANCH  22  27
ENDBRANCH  19  22
ENDBRANCH   1  19
TORSDOF 5
