REMARK  Name = ZINC40825332
REMARK  8 active torsions:
REMARK  status: ('A' for Active; 'I' for Inactive)
REMARK    1  A    between atoms: C_1  and  C_2
REMARK    2  A    between atoms: C_6  and  C_7
REMARK    3  A    between atoms: C_7  and  O_9
REMARK    4  A    between atoms: O_9  and  C_10
REMARK    5  A    between atoms: N_22  and  N_23
REMARK    6  A    between atoms: N_23  and  C_24
REMARK    7  A    between atoms: C_24  and  N_26
REMARK    8  A    between atoms: N_26  and  C_27
REMARK                            x       y       z     vdW  Elec       q    Type
REMARK                         _______ _______ _______ _____ _____    ______ ____
ROOT
ATOM      1  C   UNL     1       0.177   1.970  -0.478  0.00  0.00    +0.048 C 
ATOM      2  C   UNL     1       0.235   0.471  -0.337  0.00  0.00    +0.011 A 
ATOM      3  C   UNL     1      -0.018  -0.477  -1.335  0.00  0.00    +0.042 A 
ATOM      4  C   UNL     1       0.146  -1.722  -0.774  0.00  0.00    +0.115 A 
ATOM      5  O   UNL     1       0.485  -1.556   0.502  0.00  0.00    -0.452 OA
ATOM      6  C   UNL     1       0.550  -0.236   0.791  0.00  0.00    +0.215 A 
ATOM      7  C   UNL     1      -0.048  -3.002  -1.546  0.00  0.00    +0.075 C 
ATOM      8  C   UNL     1      -0.910  -2.725  -2.781  0.00  0.00    +0.014 C 
ATOM      9  C   UNL     1      -0.325  -1.569  -3.600  0.00  0.00    +0.058 C 
ATOM     10  C   UNL     1      -0.394  -0.305  -2.757  0.00  0.00    +0.070 C 
ATOM     11  N   UNL     1      -0.756   0.840  -3.247  0.00  0.00    -0.185 NA
ENDROOT
BRANCH   6  12
ATOM     12  C   UNL     1       0.895   0.339   2.094  0.00  0.00    +0.380 C 
ATOM     13  O   UNL     1       0.918   1.547   2.238  0.00  0.00    -0.241 OA
BRANCH  12  14
ATOM     14  O   UNL     1       1.187  -0.470   3.132  0.00  0.00    -0.419 OA
BRANCH  14  15
ATOM     15  C   UNL     1       1.599   0.105   4.293  0.00  0.00    +0.150 A 
ATOM     16  C   UNL     1       2.953   0.216   4.572  0.00  0.00    +0.049 A 
ATOM     17  C   UNL     1       3.369   0.801   5.752  0.00  0.00    +0.023 A 
ATOM     18  C   UNL     1       2.436   1.276   6.657  0.00  0.00    +0.043 A 
ATOM     19  C   UNL     1       1.084   1.166   6.383  0.00  0.00    +0.043 A 
ATOM     20  C   UNL     1       0.664   0.588   5.199  0.00  0.00    +0.085 A 
ATOM     21 CL   UNL     1      -1.032   0.457   4.851  0.00  0.00    -0.080 Cl
ATOM     22 CL   UNL     1       2.962   2.010   8.140  0.00  0.00    -0.083 Cl
ENDBRANCH  14  15
ENDBRANCH  12  14
ENDBRANCH   6  12
BRANCH  11  23
ATOM     23  N   UNL     1      -1.102   0.945  -4.601  0.00  0.00    -0.218 N 
ATOM     24  H   UNL     1      -1.070   0.161  -5.171  0.00  0.00    +0.176 HD
BRANCH  23  25
ATOM     25  C   UNL     1      -1.478   2.134  -5.110  0.00  0.00    +0.154 C 
ATOM     26  S   UNL     1      -1.901   2.262  -6.764  0.00  0.00    -0.017 S 
BRANCH  25  27
ATOM     27  N   UNL     1      -1.522   3.223  -4.317  0.00  0.00    -0.296 N 
ATOM     28  H   UNL     1      -1.206   3.170  -3.402  0.00  0.00    +0.154 HD
BRANCH  27  29
ATOM     29  C   UNL     1      -2.023   4.431  -4.815  0.00  0.00    +0.033 A 
ATOM     30  C   UNL     1      -3.152   4.435  -5.624  0.00  0.00    +0.023 A 
ATOM     31  C   UNL     1      -3.644   5.629  -6.114  0.00  0.00    +0.002 A 
ATOM     32  C   UNL     1      -3.014   6.819  -5.799  0.00  0.00    +0.000 A 
ATOM     33  C   UNL     1      -1.890   6.818  -4.994  0.00  0.00    +0.002 A 
ATOM     34  C   UNL     1      -1.396   5.628  -4.496  0.00  0.00    +0.023 A 
ENDBRANCH  27  29
ENDBRANCH  25  27
ENDBRANCH  23  25
ENDBRANCH  11  23
TORSDOF 7
