REMARK  Name = ZINC35939447
REMARK  7 active torsions:
REMARK  status: ('A' for Active; 'I' for Inactive)
REMARK    1  A    between atoms: C_1  and  C_2
REMARK    2  A    between atoms: C_2  and  C_3
REMARK    3  A    between atoms: C_2  and  N_4
REMARK    4  A    between atoms: C_5  and  C_7
REMARK    5  A    between atoms: C_7  and  N_8
REMARK    6  A    between atoms: C_14  and  C_16
REMARK    7  A    between atoms: N_21  and  C_22
REMARK                            x       y       z     vdW  Elec       q    Type
REMARK                         _______ _______ _______ _____ _____    ______ ____
ROOT
ATOM      1  N   UNL     1       0.272  -1.743   4.596  0.00  0.00    -0.291 NA
ATOM      2  C   UNL     1      -0.747  -2.774   4.359  0.00  0.00    +0.104 C 
ATOM      3  C   UNL     1      -1.875  -2.618   5.385  0.00  0.00    +0.123 C 
ATOM      4  N   UNL     1      -1.284  -2.625   6.733  0.00  0.00    -0.294 N 
ATOM      5  C   UNL     1      -0.163  -1.713   7.006  0.00  0.00    +0.123 C 
ATOM      6  C   UNL     1       0.897  -1.905   5.916  0.00  0.00    +0.104 C 
ATOM      7  C   UNL     1      -1.759  -3.444   7.691  0.00  0.00    +0.266 C 
ATOM      8  O   UNL     1      -1.179  -3.533   8.757  0.00  0.00    -0.268 OA
ENDROOT
BRANCH   7   9
ATOM      9  C   UNL     1      -2.978  -4.232   7.449  0.00  0.00    +0.135 A 
ATOM     10  C   UNL     1      -3.372  -5.198   8.341  0.00  0.00    +0.081 A 
ATOM     11  S   UNL     1      -4.860  -5.795   7.551  0.00  0.00    -0.060 S 
ATOM     12  C   UNL     1      -4.812  -4.714   6.128  0.00  0.00    +0.163 A 
ATOM     13  N   UNL     1      -3.720  -4.014   6.362  0.00  0.00    -0.220 NA
ATOM     14  N   UNL     1      -5.694  -4.630   5.063  0.00  0.00    -0.294 N 
ATOM     15  H   UNL     1      -5.493  -4.052   4.311  0.00  0.00    +0.154 HD
BRANCH  14  16
ATOM     16  C   UNL     1      -6.875  -5.380   5.072  0.00  0.00    +0.034 A 
ATOM     17  C   UNL     1      -7.537  -5.620   6.269  0.00  0.00    +0.025 A 
ATOM     18  C   UNL     1      -8.703  -6.360   6.276  0.00  0.00    +0.023 A 
ATOM     19  C   UNL     1      -9.212  -6.863   5.092  0.00  0.00    +0.059 A 
ATOM     20  C   UNL     1      -8.554  -6.625   3.897  0.00  0.00    +0.061 A 
ATOM     21  C   UNL     1      -7.389  -5.881   3.884  0.00  0.00    +0.044 A 
ATOM     22 CL   UNL     1      -9.195  -7.259   2.413  0.00  0.00    -0.082 Cl
ATOM     23 CL   UNL     1     -10.678  -7.793   5.104  0.00  0.00    -0.082 Cl
ENDBRANCH  14  16
ENDBRANCH   7   9
BRANCH   1  24
ATOM     24  C   UNL     1       1.284  -1.749   3.531  0.00  0.00    +0.180 C 
BRANCH  24  26
ATOM     25  N   UNL     1       1.387  -1.273   1.106  0.00  0.00    -0.312 N 
ATOM     26  C   UNL     1       0.645  -1.339   2.229  0.00  0.00    +0.227 C 
ATOM     27  O   UNL     1      -0.537  -1.069   2.192  0.00  0.00    -0.274 OA
ATOM     28  H   UNL     1       2.332  -1.489   1.135  0.00  0.00    +0.149 HD
BRANCH  25  30
ATOM     29  C   UNL     1       0.744   0.652  -0.259  0.00  0.00    +0.027 C 
ATOM     30  C   UNL     1       0.765  -0.875  -0.160  0.00  0.00    +0.067 C 
ATOM     31  C   UNL     1       1.571  -1.450  -1.327  0.00  0.00    +0.027 C 
ENDBRANCH  25  30
ENDBRANCH  24  26
ENDBRANCH   1  24
TORSDOF 5
