REMARK  Name = ZINC32958888
REMARK  10 active torsions:
REMARK  status: ('A' for Active; 'I' for Inactive)
REMARK    1  A    between atoms: C_1  and  C_2
REMARK    2  A    between atoms: C_7  and  S_8
REMARK    3  A    between atoms: S_8  and  N_11
REMARK    4  A    between atoms: C_14  and  C_17
REMARK    5  A    between atoms: N_19  and  C_20
REMARK    6  A    between atoms: C_20  and  C_21
REMARK    7  A    between atoms: C_21  and  N_22
REMARK    8  A    between atoms: N_22  and  C_23
REMARK    9  A    between atoms: N_22  and  C_24
REMARK   10  A    between atoms: C_26  and  C_31
REMARK                            x       y       z     vdW  Elec       q    Type
REMARK                         _______ _______ _______ _____ _____    ______ ____
ROOT
ATOM      1  S   UNL     1      -2.630   4.026  -0.094  0.00  0.00    +0.061 S 
ATOM      2  O   UNL     1      -3.646   3.593   0.800  0.00  0.00    -0.153 OA
ATOM      3  O   UNL     1      -2.014   5.302   0.014  0.00  0.00    -0.153 OA
ENDROOT
BRANCH   1  10
ATOM      4  C   UNL     1      -0.107   4.137  -1.749  0.00  0.00    +0.046 C 
ATOM      5  C   UNL     1      -0.217   2.969  -0.803  0.00  0.00    -0.022 A 
ATOM      6  C   UNL     1       0.800   2.034  -0.741  0.00  0.00    +0.032 A 
ATOM      7  C   UNL     1       0.700   0.965   0.133  0.00  0.00    +0.076 A 
ATOM      8  C   UNL     1      -0.427   0.831   0.944  0.00  0.00    +0.145 A 
ATOM      9  C   UNL     1      -1.442   1.767   0.872  0.00  0.00    +0.076 A 
ATOM     10  C   UNL     1      -1.336   2.833  -0.003  0.00  0.00    +0.112 A 
ATOM     11  O   UNL     1      -0.515  -0.225   1.796  0.00  0.00    -0.478 OA
ATOM     12  C   UNL     1       0.091  -1.448   1.371  0.00  0.00    +0.256 C 
ATOM     13  C   UNL     1       1.470  -1.168   0.828  0.00  0.00    +0.258 C 
ATOM     14  O   UNL     1       2.348  -1.998   0.940  0.00  0.00    -0.271 OA
ATOM     15  N   UNL     1       1.723   0.010   0.217  0.00  0.00    -0.280 N 
ATOM     16  C   UNL     1      -0.766  -2.088   0.277  0.00  0.00    +0.062 C 
ATOM     17  H   UNL     1       2.713   0.225  -0.210  0.00  0.00    +0.155 HD
ENDBRANCH   1  10
BRANCH   1  18
ATOM     18  N   UNL     1      -3.271   3.938  -1.619  0.00  0.00    -0.177 NA
ATOM     19  C   UNL     1      -2.842   4.874  -2.667  0.00  0.00    +0.110 C 
ATOM     20  C   UNL     1      -4.075   5.551  -3.264  0.00  0.00    +0.030 C 
ATOM     21  C   UNL     1      -5.060   4.481  -3.741  0.00  0.00    +0.077 C 
ATOM     22  C   UNL     1      -5.505   3.628  -2.551  0.00  0.00    +0.030 C 
ATOM     23  C   UNL     1      -4.284   2.926  -1.947  0.00  0.00    +0.110 C 
BRANCH  21  24
ATOM     24  C   UNL     1      -6.263   5.147  -4.359  0.00  0.00    +0.216 C 
ATOM     25  O   UNL     1      -7.367   4.957  -3.893  0.00  0.00    -0.276 OA
ATOM     26  N   UNL     1      -6.112   5.952  -5.428  0.00  0.00    -0.317 N 
ATOM     27  H   UNL     1      -5.111   6.124  -5.851  0.00  0.00    +0.149 HD
BRANCH  26  28
ATOM     28  C   UNL     1      -7.281   6.599  -6.029  0.00  0.00    +0.085 C 
BRANCH  28  29
ATOM     29  C   UNL     1      -6.837   7.453  -7.219  0.00  0.00    -0.061 C 
BRANCH  29  30
ATOM     30  N   UNL     1      -8.009   8.101  -7.821  0.00  0.00    +0.377 N 
ATOM     31  C   UNL     1      -7.603   9.109  -8.810  0.00  0.00    -0.097 C 
ATOM     32  C   UNL     1      -8.911   7.108  -8.420  0.00  0.00    -0.097 C 
ATOM     33  H   UNL     1      -8.559   8.617  -7.020  0.00  0.00    -0.083 HD
ENDBRANCH  29  30
ENDBRANCH  28  29
ENDBRANCH  26  28
ENDBRANCH  21  24
ENDBRANCH   1  18
TORSDOF 6
