REMARK  Name = ZINC58941302
REMARK  6 active torsions:
REMARK  status: ('A' for Active; 'I' for Inactive)
REMARK    1  A    between atoms: C_4  and  N_7
REMARK    2  A    between atoms: C_8  and  C_10
REMARK    3  A    between atoms: C_10  and  C_11
REMARK    4  A    between atoms: N_15  and  C_29
REMARK    5  A    between atoms: N_18  and  N_19
REMARK    6  A    between atoms: C_20  and  C_22
REMARK                            x       y       z     vdW  Elec       q    Type
REMARK                         _______ _______ _______ _____ _____    ______ ____
ROOT
ATOM      1  C   UNL     1       4.721  -4.207   0.234  0.00  0.00    +0.191 C 
ATOM      2  C   UNL     1       6.039  -4.945   0.357  0.00  0.00    +0.248 C 
ATOM      3  O   UNL     1       6.875  -4.811   1.225  0.00  0.00    -0.273 OA
ATOM      4  N   UNL     1       6.088  -5.781  -0.699  0.00  0.00    -0.219 N 
ATOM      5  C   UNL     1       4.996  -5.675  -1.464  0.00  0.00    +0.164 C 
ATOM      6  S   UNL     1       4.736  -6.594  -2.884  0.00  0.00    -0.016 S 
ATOM      7  N   UNL     1       4.121  -4.764  -0.990  0.00  0.00    -0.218 N 
ENDROOT
BRANCH   4   8
ATOM      8  C   UNL     1       7.154  -6.654  -0.963  0.00  0.00    +0.043 A 
ATOM      9  C   UNL     1       7.397  -7.729  -0.120  0.00  0.00    +0.027 A 
ATOM     10  C   UNL     1       8.446  -8.588  -0.382  0.00  0.00    +0.040 A 
ATOM     11  C   UNL     1       9.256  -8.377  -1.485  0.00  0.00    +0.124 A 
ATOM     12  C   UNL     1       9.015  -7.305  -2.328  0.00  0.00    +0.040 A 
ATOM     13  C   UNL     1       7.963  -6.447  -2.072  0.00  0.00    +0.027 A 
ATOM     14  F   UNL     1      10.282  -9.218  -1.740  0.00  0.00    -0.205 F 
ENDBRANCH   4   8
BRANCH   7  15
ATOM     15  N   UNL     1       2.885  -4.415  -1.550  0.00  0.00    -0.228 N 
ATOM     16  C   UNL     1       2.839  -3.644  -2.655  0.00  0.00    +0.260 C 
ATOM     17  O   UNL     1       3.870  -3.252  -3.165  0.00  0.00    -0.269 OA
ATOM     18  H   UNL     1       2.062  -4.729  -1.143  0.00  0.00    +0.173 HD
BRANCH  16  19
ATOM     19  C   UNL     1       1.535  -3.277  -3.246  0.00  0.00    +0.038 A 
ATOM     20  C   UNL     1       0.349  -3.722  -2.659  0.00  0.00    +0.014 A 
ATOM     21  C   UNL     1      -0.864  -3.375  -3.214  0.00  0.00    +0.021 A 
ATOM     22  C   UNL     1      -0.908  -2.587  -4.352  0.00  0.00    +0.041 A 
ATOM     23  C   UNL     1       0.265  -2.143  -4.939  0.00  0.00    +0.021 A 
ATOM     24  C   UNL     1       1.485  -2.478  -4.390  0.00  0.00    +0.014 A 
ATOM     25 CL   UNL     1      -2.439  -2.155  -5.046  0.00  0.00    -0.084 Cl
ENDBRANCH  16  19
ENDBRANCH   7  15
BRANCH   1  26
ATOM     26  C   UNL     1       4.959  -2.703   0.081  0.00  0.00    +0.129 C 
BRANCH  26  28
ATOM     27  N   UNL     1       3.595  -0.651  -0.142  0.00  0.00    -0.285 N 
ATOM     28  C   UNL     1       3.633  -1.991  -0.003  0.00  0.00    +0.220 C 
ATOM     29  O   UNL     1       2.600  -2.624   0.054  0.00  0.00    -0.275 OA
ATOM     30  H   UNL     1       4.419  -0.152  -0.263  0.00  0.00    +0.155 HD
BRANCH  27  34
ATOM     31  C   UNL     1      -0.057   1.352  -0.051  0.00  0.00    +0.000 A 
ATOM     32  C   UNL     1       0.126   0.214   0.714  0.00  0.00    +0.002 A 
ATOM     33  C   UNL     1       1.335  -0.452   0.686  0.00  0.00    +0.023 A 
ATOM     34  C   UNL     1       2.369   0.021  -0.112  0.00  0.00    +0.033 A 
ATOM     35  C   UNL     1       2.182   1.164  -0.879  0.00  0.00    +0.023 A 
ATOM     36  C   UNL     1       0.970   1.826  -0.846  0.00  0.00    +0.002 A 
ENDBRANCH  27  34
ENDBRANCH  26  28
ENDBRANCH   1  26
TORSDOF 6
