REMARK  Name = ZINC21227102
REMARK  10 active torsions:
REMARK  status: ('A' for Active; 'I' for Inactive)
REMARK    1  A    between atoms: C_1  and  O_2
REMARK    2  A    between atoms: O_2  and  C_3
REMARK    3  A    between atoms: C_8  and  C_9
REMARK    4  A    between atoms: C_14  and  C_24
REMARK    5  A    between atoms: C_27  and  O_34
REMARK    6  A    between atoms: C_28  and  O_32
REMARK    7  A    between atoms: C_29  and  O_30
REMARK    8  A    between atoms: O_30  and  C_31
REMARK    9  A    between atoms: O_32  and  C_33
REMARK   10  A    between atoms: O_34  and  C_35
REMARK                            x       y       z     vdW  Elec       q    Type
REMARK                         _______ _______ _______ _____ _____    ______ ____
ROOT
ATOM      1  C   UNL     1      -3.650   5.692   3.784  0.00  0.00    +0.035 C 
ATOM      2  C   UNL     1      -3.976   4.200   3.716  0.00  0.00    +0.060 C 
ATOM      3  C   UNL     1      -3.825   3.704   2.286  0.00  0.00    +0.017 C 
ATOM      4  C   UNL     1      -2.888   4.233   1.482  0.00  0.00    +0.037 C 
ATOM      5  C   UNL     1      -2.596   3.808   0.062  0.00  0.00    +0.140 C 
ATOM      6  N   UNL     1      -3.591   2.925  -0.511  0.00  0.00    -0.331 N 
ATOM      7  C   UNL     1      -3.809   1.653   0.011  0.00  0.00    +0.049 A 
ATOM      8  C   UNL     1      -3.515   0.513  -0.722  0.00  0.00    +0.025 A 
ATOM      9  C   UNL     1      -3.703  -0.732  -0.150  0.00  0.00    +0.002 A 
ATOM     10  C   UNL     1      -4.176  -0.844   1.145  0.00  0.00    +0.002 A 
ATOM     11  C   UNL     1      -4.487   0.291   1.875  0.00  0.00    +0.025 A 
ATOM     12  C   UNL     1      -4.321   1.536   1.294  0.00  0.00    +0.052 A 
ATOM     13  N   UNL     1      -4.686   2.713   1.940  0.00  0.00    -0.316 N 
ATOM     14  C   UNL     1      -2.067   5.291   1.940  0.00  0.00    +0.163 C 
ATOM     15  O   UNL     1      -1.222   5.741   1.193  0.00  0.00    -0.292 OA
ATOM     16  C   UNL     1      -2.203   5.877   3.314  0.00  0.00    +0.088 C 
ATOM     17  H   UNL     1      -4.189   3.257  -1.372  0.00  0.00    +0.147 HD
ATOM     18  H   UNL     1      -5.757   2.811   2.170  0.00  0.00    +0.152 HD
ENDROOT
BRANCH   1  24
ATOM     19  C   UNL     1      -4.672   7.215   5.495  0.00  0.00    +0.124 A 
ATOM     20  C   UNL     1      -4.804   7.661   6.802  0.00  0.00    +0.046 A 
ATOM     21  C   UNL     1      -4.053   7.084   7.807  0.00  0.00    +0.004 A 
ATOM     22  C   UNL     1      -3.173   6.058   7.512  0.00  0.00    +0.001 A 
ATOM     23  C   UNL     1      -3.043   5.608   6.211  0.00  0.00    +0.007 A 
ATOM     24  C   UNL     1      -3.793   6.183   5.202  0.00  0.00    -0.002 A 
BRANCH  19  26
ATOM     25  C   UNL     1      -6.290   8.843   4.878  0.00  0.00    +0.277 C 
ATOM     26  O   UNL     1      -5.406   7.785   4.503  0.00  0.00    -0.495 OA
ENDBRANCH  19  26
ENDBRANCH   1  24
BRANCH   5  27
ATOM     27  C   UNL     1      -1.263   3.106   0.037  0.00  0.00    +0.023 A 
ATOM     28  C   UNL     1      -0.749   2.558   1.197  0.00  0.00    +0.013 A 
ATOM     29  C   UNL     1       0.476   1.917   1.180  0.00  0.00    +0.050 A 
ATOM     30  C   UNL     1       1.190   1.814  -0.004  0.00  0.00    +0.165 A 
ATOM     31  C   UNL     1       0.674   2.359  -1.174  0.00  0.00    +0.204 A 
ATOM     32  C   UNL     1      -0.555   3.007  -1.152  0.00  0.00    +0.170 A 
BRANCH  32  33
ATOM     33  O   UNL     1      -1.064   3.542  -2.294  0.00  0.00    -0.491 OA
ATOM     34  C   UNL     1      -0.626   4.856  -2.646  0.00  0.00    +0.277 C 
ENDBRANCH  32  33
BRANCH  31  35
ATOM     35  O   UNL     1       1.372   2.260  -2.338  0.00  0.00    -0.488 OA
ATOM     36  C   UNL     1       1.190   1.068  -3.104  0.00  0.00    +0.277 C 
ENDBRANCH  31  35
BRANCH  30  37
ATOM     37  O   UNL     1       2.393   1.180  -0.021  0.00  0.00    -0.491 OA
ATOM     38  C   UNL     1       2.861   0.644   1.218  0.00  0.00    +0.277 C 
ENDBRANCH  30  37
ENDBRANCH   5  27
TORSDOF 6
