REMARK  Name = ZINC12635443
REMARK  12 active torsions:
REMARK  status: ('A' for Active; 'I' for Inactive)
REMARK    1  A    between atoms: C_1  and  C_2
REMARK    2  A    between atoms: C_2  and  N_67
REMARK    3  A    between atoms: C_6  and  C_8
REMARK    4  A    between atoms: C_8  and  N_9
REMARK    5  A    between atoms: N_9  and  C_10
REMARK    6  A    between atoms: N_9  and  C_24
REMARK    7  A    between atoms: C_10  and  C_11
REMARK    8  A    between atoms: C_16  and  C_23
REMARK    9  A    between atoms: C_24  and  N_26
REMARK   10  A    between atoms: N_26  and  C_27
REMARK   11  A    between atoms: C_29  and  C_34
REMARK   12  A    between atoms: C_32  and  C_33
REMARK                            x       y       z     vdW  Elec       q    Type
REMARK                         _______ _______ _______ _____ _____    ______ ____
ROOT
ATOM      1  N   UNL     1      -2.184  -0.765   1.731  0.00  0.00    -0.309 N 
ENDROOT
BRANCH   1   2
ATOM      2  C   UNL     1      -2.909   0.209   2.316  0.00  0.00    +0.137 C 
ATOM      3  S   UNL     1      -3.790   1.316   1.351  0.00  0.00    -0.018 S 
BRANCH   2   4
ATOM      4  N   UNL     1      -2.942   0.311   3.659  0.00  0.00    -0.297 N 
ATOM      5  H   UNL     1      -2.383  -0.265   4.203  0.00  0.00    +0.154 HD
BRANCH   4   6
ATOM      6  C   UNL     1      -3.784   1.247   4.269  0.00  0.00    +0.036 A 
ATOM      7  C   UNL     1      -3.884   2.533   3.753  0.00  0.00    +0.027 A 
ATOM      8  C   UNL     1      -4.719   3.454   4.355  0.00  0.00    -0.049 A 
ATOM      9  C   UNL     1      -5.447   3.100   5.476  0.00  0.00    +0.004 A 
ATOM     10  C   UNL     1      -5.346   1.822   5.995  0.00  0.00    +0.005 A 
ATOM     11  C   UNL     1      -4.516   0.895   5.395  0.00  0.00    -0.029 A 
ATOM     12  C   UNL     1      -4.406  -0.497   5.962  0.00  0.00    +0.045 C 
ATOM     13  C   UNL     1      -4.832   4.847   3.793  0.00  0.00    +0.044 C 
ENDBRANCH   4   6
ENDBRANCH   2   4
ENDBRANCH   1   2
BRANCH   1  14
ATOM     14  C   UNL     1      -1.518  -1.777   2.555  0.00  0.00    +0.092 C 
BRANCH  14  18
ATOM     15  C   UNL     1       1.371  -0.021   4.045  0.00  0.00    -0.078 C 
ATOM     16  C   UNL     1       1.560  -1.445   4.611  0.00  0.00    -0.020 C 
ATOM     17  C   UNL     1       0.621  -2.337   3.774  0.00  0.00    -0.016 C 
ATOM     18  C   UNL     1      -0.057  -1.377   2.773  0.00  0.00    -0.051 C 
ATOM     19  N   UNL     1       0.047  -0.069   3.428  0.00  0.00    +0.382 N 
ATOM     20  H   UNL     1      -0.679   0.023   4.147  0.00  0.00    -0.081 HD
BRANCH  19  22
ATOM     21  C   UNL     1      -0.241   2.377   3.141  0.00  0.00    -0.017 C 
ATOM     22  C   UNL     1      -0.113   1.032   2.424  0.00  0.00    -0.082 C 
ENDBRANCH  19  22
ENDBRANCH  14  18
ENDBRANCH   1  14
BRANCH   1  23
ATOM     23  C   UNL     1      -2.061  -0.812   0.272  0.00  0.00    +0.147 C 
BRANCH  23  24
ATOM     24  C   UNL     1      -3.192  -1.626  -0.302  0.00  0.00    +0.035 A 
ATOM     25  C   UNL     1      -4.323  -1.008  -0.723  0.00  0.00    +0.020 A 
ATOM     26  C   UNL     1      -5.403  -1.827  -1.275  0.00  0.00    -0.001 A 
ATOM     27  C   UNL     1      -6.593  -1.247  -1.726  0.00  0.00    +0.010 A 
ATOM     28  C   UNL     1      -7.582  -2.039  -2.236  0.00  0.00    +0.004 A 
ATOM     29  C   UNL     1      -7.416  -3.416  -2.312  0.00  0.00    -0.048 A 
ATOM     30  C   UNL     1      -6.252  -4.009  -1.874  0.00  0.00    +0.029 A 
ATOM     31  C   UNL     1      -5.231  -3.222  -1.350  0.00  0.00    +0.049 A 
ATOM     32  N   UNL     1      -4.056  -3.789  -0.904  0.00  0.00    -0.322 N 
ATOM     33  H   UNL     1      -3.940  -4.751  -0.956  0.00  0.00    +0.169 HD
ATOM     34  C   UNL     1      -3.070  -3.029  -0.398  0.00  0.00    +0.254 A 
ATOM     35  O   UNL     1      -2.043  -3.563  -0.018  0.00  0.00    -0.268 OA
ATOM     36  C   UNL     1      -8.521  -4.270  -2.879  0.00  0.00    +0.044 C 
ENDBRANCH  23  24
ENDBRANCH   1  23
TORSDOF 8
