REMARK  Name = ZINC57937473
REMARK  2 active torsions:
REMARK  status: ('A' for Active; 'I' for Inactive)
REMARK    1  A    between atoms: C_6  and  C_7
REMARK    2  A    between atoms: C_10  and  N_15
REMARK                            x       y       z     vdW  Elec       q    Type
REMARK                         _______ _______ _______ _____ _____    ______ ____
ROOT
ATOM      1  C   UNL     1      -1.293  -0.775   0.010  0.00  0.00    +0.209 C 
ATOM      2  C   UNL     1      -1.655  -1.228   1.450  0.00  0.00    +0.079 C 
ATOM      3  C   UNL     1      -2.504  -2.490   1.151  0.00  0.00    +0.165 C 
ATOM      4  C   UNL     1      -2.115  -2.864  -0.267  0.00  0.00    +0.325 C 
ATOM      5  O   UNL     1      -2.597  -3.765  -0.912  0.00  0.00    -0.249 OA
ATOM      6  O   UNL     1      -1.148  -2.026  -0.694  0.00  0.00    -0.455 OA
ENDROOT
BRANCH   1  12
ATOM      7  C   UNL     1      -0.017   1.378   0.010  0.00  0.00    +0.010 A 
ATOM      8  C   UNL     1       1.170   2.086   0.002  0.00  0.00    +0.039 A 
ATOM      9  C   UNL     1       2.379   1.410  -0.013  0.00  0.00    +0.123 A 
ATOM     10  C   UNL     1       2.396   0.026  -0.021  0.00  0.00    +0.039 A 
ATOM     11  C   UNL     1       1.208  -0.680  -0.013  0.00  0.00    +0.010 A 
ATOM     12  C   UNL     1       0.002  -0.004   0.002  0.00  0.00    -0.007 A 
ATOM     13  F   UNL     1       3.540   2.101  -0.021  0.00  0.00    -0.205 F 
ENDBRANCH   1  12
BRANCH   3  14
ATOM     14  N   UNL     1      -2.164  -3.572   2.084  0.00  0.00    -0.318 NA
ATOM     15  H   UNL     1      -2.713  -4.398   1.895  0.00  0.00    +0.119 HD
ATOM     16  H   UNL     1      -1.177  -3.780   2.054  0.00  0.00    +0.119 HD
ENDBRANCH   3  14
TORSDOF 2
