REMARK  Name = ZINC32535196
REMARK  10 active torsions:
REMARK  status: ('A' for Active; 'I' for Inactive)
REMARK    1  A    between atoms: C_1  and  C_2
REMARK    2  A    between atoms: C_2  and  O_3
REMARK    3  A    between atoms: O_3  and  C_4
REMARK    4  A    between atoms: C_4  and  C_6
REMARK    5  A    between atoms: C_16  and  C_18
REMARK    6  A    between atoms: C_18  and  C_20
REMARK    7  A    between atoms: C_18  and  S_21
REMARK    8  A    between atoms: S_21  and  C_22
REMARK    9  A    between atoms: C_28  and  C_36
REMARK   10  A    between atoms: C_33  and  C_35
REMARK                            x       y       z     vdW  Elec       q    Type
REMARK                         _______ _______ _______ _____ _____    ______ ____
ROOT
ATOM      1  C   UNL     1       0.179   6.293   0.034  0.00  0.00    +0.060 A 
ATOM      2  C   UNL     1       1.515   5.867   0.019  0.00  0.00    +0.017 A 
ATOM      3  C   UNL     1       1.838   4.550   0.009  0.00  0.00    +0.030 A 
ATOM      4  C   UNL     1       0.833   3.550   0.013  0.00  0.00    +0.080 A 
ATOM      5  C   UNL     1      -0.508   4.006   0.028  0.00  0.00    +0.042 A 
ATOM      6  C   UNL     1      -0.839   5.332   0.039  0.00  0.00    +0.032 A 
ATOM      7  S   UNL     1      -1.423   2.482   0.021  0.00  0.00    -0.052 S 
ATOM      8  C   UNL     1      -0.017   1.379   0.010  0.00  0.00    +0.165 A 
ATOM      9  N   UNL     1       0.995   2.219   0.004  0.00  0.00    -0.225 NA
ATOM     10  N   UNL     1       0.002  -0.004   0.002  0.00  0.00    -0.264 N 
ATOM     11  C   UNL     1       1.178  -0.662  -0.012  0.00  0.00    +0.232 C 
ATOM     12  O   UNL     1       2.220  -0.041  -0.018  0.00  0.00    -0.274 OA
ATOM     13  H   UNL     1      -0.943  -0.567   0.007  0.00  0.00    +0.157 HD
ENDROOT
BRANCH   1  14
ATOM     14  C   UNL     1      -0.148   7.729   0.045  0.00  0.00    +0.339 C 
ATOM     15  O   UNL     1      -1.309   8.088   0.057  0.00  0.00    -0.245 OA
BRANCH  14  16
ATOM     16  O   UNL     1       0.841   8.646   0.040  0.00  0.00    -0.461 OA
BRANCH  16  18
ATOM     17  C   UNL     1       1.694  10.926   0.044  0.00  0.00    +0.048 C 
ATOM     18  C   UNL     1       0.445  10.042   0.051  0.00  0.00    +0.229 C 
ENDBRANCH  16  18
ENDBRANCH  14  16
ENDBRANCH   1  14
BRANCH  11  19
ATOM     19  C   UNL     1       1.199  -2.169  -0.021  0.00  0.00    +0.137 C 
ATOM     20  C   UNL     1       1.067  -2.673  -1.459  0.00  0.00    +0.029 C 
BRANCH  19  21
ATOM     21  S   UNL     1       2.760  -2.755   0.683  0.00  0.00    -0.073 S 
BRANCH  21  22
ATOM     22  C   UNL     1       2.459  -4.491   0.692  0.00  0.00    +0.197 A 
ATOM     23  N   UNL     1       1.354  -5.056   0.239  0.00  0.00    -0.122 NA
ATOM     24  N   UNL     1       1.366  -6.311   0.494  0.00  0.00    -0.129 NA
ATOM     25  C   UNL     1       2.481  -6.615   1.131  0.00  0.00    +0.162 A 
ATOM     26  N   UNL     1       3.283  -5.487   1.117  0.00  0.00    -0.270 N 
ATOM     27  C   UNL     1       4.615  -5.608   1.468  0.00  0.00    +0.061 A 
ATOM     28  C   UNL     1       5.616  -4.763   1.018  0.00  0.00    -0.026 A 
ATOM     29  C   UNL     1       6.869  -4.798   1.607  0.00  0.00    +0.005 A 
ATOM     30  C   UNL     1       7.165  -5.724   2.592  0.00  0.00    +0.001 A 
ATOM     31  C   UNL     1       6.250  -6.709   2.893  0.00  0.00    +0.010 A 
ATOM     32  C   UNL     1       5.009  -6.719   2.254  0.00  0.00    +0.002 A 
ATOM     33  C   UNL     1       4.090  -7.848   2.406  0.00  0.00    -0.038 A 
ATOM     34  C   UNL     1       2.886  -7.795   1.793  0.00  0.00    +0.052 A 
ATOM     35  C   UNL     1       4.479  -9.075   3.190  0.00  0.00    +0.044 C 
ATOM     36  C   UNL     1       5.400  -3.771  -0.094  0.00  0.00    +0.046 C 
ENDBRANCH  21  22
ENDBRANCH  19  21
ENDBRANCH  11  19
TORSDOF 6
