REMARK  Name = ZINC40549177
REMARK  8 active torsions:
REMARK  status: ('A' for Active; 'I' for Inactive)
REMARK    1  A    between atoms: C_1  and  C_2
REMARK    2  A    between atoms: C_5  and  C_9
REMARK    3  A    between atoms: C_6  and  O_8
REMARK    4  A    between atoms: C_11  and  C_15
REMARK    5  A    between atoms: N_17  and  C_18
REMARK    6  A    between atoms: C_19  and  C_27
REMARK    7  A    between atoms: N_29  and  C_30
REMARK    8  A    between atoms: C_30  and  C_31
REMARK                            x       y       z     vdW  Elec       q    Type
REMARK                         _______ _______ _______ _____ _____    ______ ____
ROOT
ATOM      1  C   UNL     1       0.103  -7.613  -1.489  0.00  0.00    +0.266 C 
ATOM      2  O   UNL     1       0.102  -7.554  -2.704  0.00  0.00    -0.268 OA
ATOM      3  N   UNL     1       0.119  -8.811  -0.873  0.00  0.00    -0.274 N 
ATOM      4  H   UNL     1       0.120  -8.859   0.096  0.00  0.00    +0.156 HD
ENDROOT
BRANCH   3   5
ATOM      5  C   UNL     1       0.134  -9.976  -1.623  0.00  0.00    +0.085 A 
ATOM      6  C   UNL     1       0.146 -11.284  -1.165  0.00  0.00    +0.069 A 
ATOM      7  C   UNL     1       0.160 -12.338  -2.166  0.00  0.00    -0.023 A 
ATOM      8  C   UNL     1       0.160 -11.889  -3.440  0.00  0.00    -0.004 A 
ATOM      9  S   UNL     1       0.134 -10.127  -3.296  0.00  0.00    -0.077 S 
ATOM     10  C   UNL     1       0.174 -12.720  -4.686  0.00  0.00    +0.043 C 
ATOM     11  C   UNL     1       0.569 -14.154  -4.304  0.00  0.00    +0.005 C 
ATOM     12  C   UNL     1      -0.267 -14.595  -3.099  0.00  0.00    +0.005 C 
ATOM     13  C   UNL     1       0.173 -13.826  -1.851  0.00  0.00    +0.037 C 
BRANCH   6  14
ATOM     14  C   UNL     1       0.145 -11.593   0.268  0.00  0.00    +0.247 C 
ATOM     15  O   UNL     1      -0.910 -11.732   0.860  0.00  0.00    -0.270 OA
ATOM     16  N   UNL     1       1.311 -11.722   0.930  0.00  0.00    -0.309 N 
ATOM     17  H   UNL     1       2.152 -11.611   0.459  0.00  0.00    +0.149 HD
BRANCH  16  18
ATOM     18  C   UNL     1       1.310 -12.030   2.362  0.00  0.00    +0.136 C 
BRANCH  18  19
ATOM     19  C   UNL     1       2.752 -12.122   2.865  0.00  0.00    +0.135 C 
ATOM     20  C   UNL     1       2.774 -12.482   4.372  0.00  0.00    +0.035 C 
ATOM     21  C   UNL     1       4.176 -13.138   4.498  0.00  0.00    +0.031 C 
ATOM     22  C   UNL     1       4.333 -13.840   3.132  0.00  0.00    +0.160 C 
ATOM     23  O   UNL     1       3.441 -13.199   2.210  0.00  0.00    -0.375 OA
ENDBRANCH  18  19
ENDBRANCH  16  18
ENDBRANCH   6  14
ENDBRANCH   3   5
BRANCH   1  26
ATOM     24  C   UNL     1       0.060  -4.260  -0.033  0.00  0.00    +0.097 A 
ATOM     25  C   UNL     1       0.070  -5.081  -1.175  0.00  0.00    +0.062 A 
ATOM     26  C   UNL     1       0.087  -6.376  -0.692  0.00  0.00    +0.121 A 
ATOM     27  N   UNL     1       0.087  -6.281   0.671  0.00  0.00    -0.272 N 
ATOM     28  H   UNL     1       0.097  -7.035   1.282  0.00  0.00    +0.189 HD
ATOM     29  N   UNL     1       0.076  -5.046   1.023  0.00  0.00    -0.173 NA
BRANCH  24  34
ATOM     30  C   UNL     1      -0.018   1.503   0.010  0.00  0.00    +0.044 C 
ATOM     31  C   UNL     1       0.002  -0.004   0.002  0.00  0.00    -0.047 A 
ATOM     32  C   UNL     1       0.006  -0.686  -1.202  0.00  0.00    +0.004 A 
ATOM     33  C   UNL     1       0.024  -2.066  -1.219  0.00  0.00    +0.014 A 
ATOM     34  C   UNL     1       0.040  -2.776  -0.020  0.00  0.00    +0.044 A 
ATOM     35  C   UNL     1       0.037  -2.084   1.194  0.00  0.00    +0.126 A 
ATOM     36  C   UNL     1       0.023  -0.698   1.197  0.00  0.00    +0.049 A 
BRANCH  35  37
ATOM     37  O   UNL     1       0.052  -2.768   2.368  0.00  0.00    -0.506 OA
ATOM     38  H   UNL     1       0.940  -2.954   2.703  0.00  0.00    +0.292 HD
ENDBRANCH  35  37
ENDBRANCH  24  34
ENDBRANCH   1  26
TORSDOF 7
