REMARK  Name = ZINC21222669
REMARK  10 active torsions:
REMARK  status: ('A' for Active; 'I' for Inactive)
REMARK    1  A    between atoms: C_1  and  C_2
REMARK    2  A    between atoms: C_2  and  O_3
REMARK    3  A    between atoms: O_3  and  C_4
REMARK    4  A    between atoms: C_6  and  C_12
REMARK    5  A    between atoms: C_9  and  O_10
REMARK    6  A    between atoms: C_23  and  C_26
REMARK    7  A    between atoms: C_29  and  O_32
REMARK    8  A    between atoms: O_32  and  C_33
REMARK    9  A    between atoms: C_33  and  C_34
REMARK   10  A    between atoms: C_33  and  C_35
REMARK                            x       y       z     vdW  Elec       q    Type
REMARK                         _______ _______ _______ _____ _____    ______ ____
ROOT
ATOM      1  C   UNL     1      -2.041   0.500   0.701  0.00  0.00    +0.063 C 
ATOM      2  C   UNL     1      -2.926   1.061   1.815  0.00  0.00    +0.109 C 
ATOM      3  C   UNL     1      -3.410   2.432   1.419  0.00  0.00    +0.218 C 
ATOM      4  O   UNL     1      -3.573   3.284   2.265  0.00  0.00    -0.275 OA
ATOM      5  N   UNL     1      -3.662   2.711   0.128  0.00  0.00    -0.289 N 
ATOM      6  C   UNL     1      -3.511   1.758  -0.847  0.00  0.00    +0.018 C 
ATOM      7  C   UNL     1      -2.739   0.673  -0.628  0.00  0.00    +0.020 C 
ATOM      8  C   UNL     1      -2.564  -0.311  -1.615  0.00  0.00    +0.162 C 
ATOM      9  O   UNL     1      -1.871  -1.280  -1.378  0.00  0.00    -0.292 OA
ATOM     10  C   UNL     1      -3.221  -0.182  -2.964  0.00  0.00    +0.088 C 
ATOM     11  C   UNL     1      -3.407   1.304  -3.286  0.00  0.00    +0.032 C 
ATOM     12  C   UNL     1      -4.223   1.948  -2.163  0.00  0.00    +0.059 C 
ATOM     13  H   UNL     1      -3.996   3.718  -0.161  0.00  0.00    +0.155 HD
ENDROOT
BRANCH   1  16
ATOM     14  C   UNL     1       1.662   1.234   0.854  0.00  0.00    +0.163 A 
ATOM     15  C   UNL     1       0.454   0.554   0.873  0.00  0.00    +0.053 A 
ATOM     16  C   UNL     1      -0.729   1.241   0.679  0.00  0.00    -0.035 A 
ATOM     17  C   UNL     1      -0.712   2.607   0.467  0.00  0.00    +0.023 A 
ATOM     18  C   UNL     1       0.490   3.292   0.447  0.00  0.00    +0.063 A 
ATOM     19  C   UNL     1       1.680   2.608   0.640  0.00  0.00    +0.173 A 
ATOM     20 BR   UNL     1       0.509   5.160   0.157  0.00  0.00    -0.046 Br
BRANCH  19  21
ATOM     21  O   UNL     1       2.863   3.280   0.622  0.00  0.00    -0.503 OA
ATOM     22  H   UNL     1       2.876   4.366   0.453  0.00  0.00    +0.292 HD
ENDBRANCH  19  21
BRANCH  14  23
ATOM     23  O   UNL     1       2.827   0.558   1.044  0.00  0.00    -0.489 OA
BRANCH  23  25
ATOM     24  C   UNL     1       4.134  -1.434   1.448  0.00  0.00    +0.048 C 
ATOM     25  C   UNL     1       2.732  -0.852   1.256  0.00  0.00    +0.226 C 
ENDBRANCH  23  25
ENDBRANCH  14  23
ENDBRANCH   1  16
BRANCH  11  26
ATOM     26  C   UNL     1      -4.143   1.449  -4.593  0.00  0.00    -0.043 A 
ATOM     27  C   UNL     1      -5.409   0.912  -4.736  0.00  0.00    +0.007 A 
ATOM     28  C   UNL     1      -6.088   1.049  -5.931  0.00  0.00    +0.046 A 
ATOM     29  C   UNL     1      -5.494   1.716  -6.992  0.00  0.00    +0.121 A 
ATOM     30  C   UNL     1      -4.222   2.250  -6.848  0.00  0.00    +0.046 A 
ATOM     31  C   UNL     1      -3.549   2.115  -5.649  0.00  0.00    +0.007 A 
BRANCH  29  32
ATOM     32  O   UNL     1      -6.158   1.847  -8.171  0.00  0.00    -0.489 OA
BRANCH  32  33
ATOM     33  C   UNL     1      -7.412   1.173  -8.288  0.00  0.00    +0.167 C 
ATOM     34  C   UNL     1      -8.519   2.050  -7.701  0.00  0.00    +0.051 C 
ATOM     35  C   UNL     1      -7.708   0.897  -9.764  0.00  0.00    +0.051 C 
ENDBRANCH  32  33
ENDBRANCH  29  32
ENDBRANCH  11  26
TORSDOF 7
