REMARK  Name = ZINC02964304
REMARK  8 active torsions:
REMARK  status: ('A' for Active; 'I' for Inactive)
REMARK    1  A    between atoms: C_1  and  C_2
REMARK    2  A    between atoms: C_5  and  C_8
REMARK    3  A    between atoms: C_8  and  N_9
REMARK    4  A    between atoms: C_10  and  C_12
REMARK    5  A    between atoms: C_12  and  S_13
REMARK    6  A    between atoms: S_13  and  C_14
REMARK    7  A    between atoms: C_24  and  C_29
REMARK    8  A    between atoms: C_29  and  C_30
REMARK                            x       y       z     vdW  Elec       q    Type
REMARK                         _______ _______ _______ _____ _____    ______ ____
ROOT
ATOM      1  C   UNL     1       2.504   6.018   0.011  0.00  0.00    +0.169 C 
ATOM      2  N   UNL     1       1.264   6.425   0.019  0.00  0.00    -0.225 NA
ATOM      3  C   UNL     1       0.936   7.742   0.035  0.00  0.00    +0.077 A 
ATOM      4  C   UNL     1      -0.398   8.157   0.050  0.00  0.00    +0.028 A 
ATOM      5  C   UNL     1      -0.693   9.503   0.059  0.00  0.00    +0.002 A 
ATOM      6  C   UNL     1       0.318  10.453   0.053  0.00  0.00    +0.001 A 
ATOM      7  C   UNL     1       1.642  10.065   0.039  0.00  0.00    +0.013 A 
ATOM      8  C   UNL     1       1.960   8.711   0.030  0.00  0.00    +0.041 A 
ATOM      9  C   UNL     1       3.365   8.248   0.014  0.00  0.00    +0.139 C 
ATOM     10  N   UNL     1       4.478   8.926   0.007  0.00  0.00    -0.255 NA
ATOM     11  C   UNL     1       5.590   7.966  -0.008  0.00  0.00    +0.198 C 
ATOM     12  C   UNL     1       4.907   6.615  -0.009  0.00  0.00    +0.252 C 
ATOM     13  O   UNL     1       5.438   5.525  -0.020  0.00  0.00    -0.272 OA
ATOM     14  N   UNL     1       3.581   6.880   0.005  0.00  0.00    -0.200 N 
ENDROOT
BRANCH   1  15
ATOM     15  S   UNL     1       2.818   4.284  -0.002  0.00  0.00    -0.080 S 
BRANCH  15  16
ATOM     16  C   UNL     1       1.120   3.657   0.011  0.00  0.00    +0.172 C 
BRANCH  16  18
ATOM     17  N   UNL     1      -0.018   1.461   0.010  0.00  0.00    -0.311 N 
ATOM     18  C   UNL     1       1.140   2.151   0.003  0.00  0.00    +0.224 C 
ATOM     19  O   UNL     1       2.199   1.558  -0.011  0.00  0.00    -0.275 OA
ATOM     20  H   UNL     1      -0.978   1.998   0.022  0.00  0.00    +0.149 HD
BRANCH  17  21
ATOM     21  C   UNL     1       0.002  -0.004   0.002  0.00  0.00    +0.139 C 
BRANCH  21  26
ATOM     22  C   UNL     1      -5.420  -2.004   0.043  0.00  0.00    +0.044 C 
ATOM     23  C   UNL     1      -4.005  -1.483   0.032  0.00  0.00    -0.050 A 
ATOM     24  C   UNL     1      -3.369  -1.237  -1.170  0.00  0.00    +0.003 A 
ATOM     25  C   UNL     1      -2.072  -0.758  -1.179  0.00  0.00    +0.005 A 
ATOM     26  C   UNL     1      -1.412  -0.526   0.013  0.00  0.00    -0.030 A 
ATOM     27  C   UNL     1      -2.047  -0.777   1.215  0.00  0.00    +0.005 A 
ATOM     28  C   UNL     1      -3.345  -1.251   1.224  0.00  0.00    +0.003 A 
ENDBRANCH  21  26
ENDBRANCH  17  21
ENDBRANCH  16  18
ENDBRANCH  15  16
ENDBRANCH   1  15
BRANCH  11  29
ATOM     29  C   UNL     1       6.433   8.142  -1.273  0.00  0.00    +0.073 C 
BRANCH  29  30
ATOM     30  C   UNL     1       7.196   9.438  -1.192  0.00  0.00    -0.020 A 
ATOM     31  C   UNL     1       6.824  10.618  -1.712  0.00  0.00    +0.087 A 
ATOM     32  N   UNL     1       7.768  11.569  -1.434  0.00  0.00    -0.360 N 
ATOM     33  H   UNL     1       7.624  12.604  -1.779  0.00  0.00    +0.165 HD
ATOM     34  C   UNL     1       8.802  11.008  -0.719  0.00  0.00    +0.047 A 
ATOM     35  C   UNL     1       8.489   9.648  -0.535  0.00  0.00    +0.003 A 
ATOM     36  C   UNL     1       9.368   8.820   0.164  0.00  0.00    +0.010 A 
ATOM     37  C   UNL     1      10.529   9.335   0.668  0.00  0.00    +0.001 A 
ATOM     38  C   UNL     1      10.842  10.675   0.490  0.00  0.00    +0.002 A 
ATOM     39  C   UNL     1       9.989  11.510  -0.198  0.00  0.00    +0.026 A 
ENDBRANCH  29  30
ENDBRANCH  11  29
TORSDOF 7
