REMARK  Name = ZINC67291622
REMARK  9 active torsions:
REMARK  status: ('A' for Active; 'I' for Inactive)
REMARK    1  A    between atoms: C_1  and  C_2
REMARK    2  A    between atoms: C_2  and  C_3
REMARK    3  A    between atoms: C_2  and  C_4
REMARK    4  A    between atoms: C_8  and  N_10
REMARK    5  A    between atoms: C_11  and  C_13
REMARK    6  A    between atoms: C_13  and  S_14
REMARK    7  A    between atoms: S_14  and  C_15
REMARK    8  A    between atoms: N_24  and  C_26
REMARK    9  A    between atoms: C_26  and  C_27
REMARK                            x       y       z     vdW  Elec       q    Type
REMARK                         _______ _______ _______ _____ _____    ______ ____
ROOT
ATOM      1  C   UNL     1      -7.364  -5.784  -4.027  0.00  0.00    +0.192 A 
ATOM      2  N   UNL     1      -6.452  -6.006  -4.963  0.00  0.00    -0.183 NA
ATOM      3  C   UNL     1      -6.707  -6.830  -5.971  0.00  0.00    +0.276 A 
ATOM      4  O   UNL     1      -5.772  -7.055  -6.927  0.00  0.00    -0.266 OA
ATOM      5  C   UNL     1      -7.950  -7.462  -6.035  0.00  0.00    +0.024 A 
ATOM      6  C   UNL     1      -8.870  -7.207  -5.043  0.00  0.00    +0.049 A 
ATOM      7  N   UNL     1      -8.549  -6.375  -4.060  0.00  0.00    -0.227 NA
ATOM      8  C   UNL     1     -10.227  -7.860  -5.043  0.00  0.00    +0.037 C 
ATOM      9  C   UNL     1     -10.520  -8.437  -6.429  0.00  0.00    -0.072 C 
ATOM     10  N   UNL     1      -9.379  -9.267  -6.846  0.00  0.00    +0.385 N 
ATOM     11  C   UNL     1      -8.248  -8.394  -7.176  0.00  0.00    -0.035 C 
ATOM     12  H   UNL     1      -9.119  -9.885  -6.092  0.00  0.00    -0.081 HD
ENDROOT
BRANCH   1  13
ATOM     13  S   UNL     1      -6.989  -4.682  -2.705  0.00  0.00    -0.077 S 
BRANCH  13  14
ATOM     14  C   UNL     1      -5.301  -4.123  -3.065  0.00  0.00    +0.173 C 
BRANCH  14  16
ATOM     15  N   UNL     1      -3.621  -2.614  -2.056  0.00  0.00    -0.285 N 
ATOM     16  C   UNL     1      -4.851  -3.162  -1.995  0.00  0.00    +0.227 C 
ATOM     17  O   UNL     1      -5.595  -2.881  -1.080  0.00  0.00    -0.275 OA
ATOM     18  H   UNL     1      -3.054  -2.778  -2.826  0.00  0.00    +0.155 HD
BRANCH  15  23
ATOM     19  C   UNL     1      -1.863   0.053  -0.235  0.00  0.00    -0.043 A 
ATOM     20  C   UNL     1      -2.252  -0.217   1.065  0.00  0.00    +0.004 A 
ATOM     21  C   UNL     1      -3.094  -1.282   1.331  0.00  0.00    +0.002 A 
ATOM     22  C   UNL     1      -3.549  -2.078   0.298  0.00  0.00    +0.023 A 
ATOM     23  C   UNL     1      -3.161  -1.809  -1.008  0.00  0.00    +0.034 A 
ATOM     24  C   UNL     1      -2.320  -0.736  -1.272  0.00  0.00    +0.027 A 
BRANCH  19  26
ATOM     25  C   UNL     1      -1.605   2.512  -0.047  0.00  0.00    +0.012 C 
ATOM     26  C   UNL     1      -0.946   1.215  -0.520  0.00  0.00    +0.013 C 
ATOM     27  C   UNL     1       0.377   1.014   0.222  0.00  0.00    +0.012 C 
ENDBRANCH  19  26
ENDBRANCH  15  23
ENDBRANCH  14  16
ENDBRANCH  13  14
ENDBRANCH   1  13
BRANCH  10  28
ATOM     28  C   UNL     1      -9.751 -10.057  -8.026  0.00  0.00    -0.043 C 
BRANCH  28  29
ATOM     29  C   UNL     1      -8.625 -10.995  -8.378  0.00  0.00    -0.064 A 
ATOM     30  C   UNL     1      -7.630 -10.585  -9.245  0.00  0.00    +0.004 A 
ATOM     31  C   UNL     1      -6.597 -11.445  -9.568  0.00  0.00    +0.038 A 
ATOM     32  C   UNL     1      -6.559 -12.717  -9.022  0.00  0.00    +0.123 A 
ATOM     33  C   UNL     1      -7.556 -13.126  -8.153  0.00  0.00    +0.038 A 
ATOM     34  C   UNL     1      -8.585 -12.263  -7.828  0.00  0.00    +0.004 A 
ATOM     35  F   UNL     1      -5.549 -13.558  -9.337  0.00  0.00    -0.205 F 
ENDBRANCH  28  29
ENDBRANCH  10  28
TORSDOF 7
