REMARK  Name = ZINC09192214
REMARK  8 active torsions:
REMARK  status: ('A' for Active; 'I' for Inactive)
REMARK    1  A    between atoms: C_1  and  C_2
REMARK    2  A    between atoms: C_5  and  N_9
REMARK    3  A    between atoms: C_6  and  C_8
REMARK    4  A    between atoms: C_10  and  C_19
REMARK    5  A    between atoms: C_13  and  S_14
REMARK    6  A    between atoms: S_14  and  C_15
REMARK    7  A    between atoms: C_15  and  C_16
REMARK    8  A    between atoms: C_24  and  O_25
REMARK                            x       y       z     vdW  Elec       q    Type
REMARK                         _______ _______ _______ _____ _____    ______ ____
ROOT
ATOM      1  N   UNL     1       0.059  -4.172  -0.021  0.00  0.00    -0.270 N 
ATOM      2  C   UNL     1      -1.026  -5.020  -0.026  0.00  0.00    +0.173 A 
ATOM      3  N   UNL     1      -0.557  -6.247  -0.032  0.00  0.00    -0.128 NA
ATOM      4  N   UNL     1       0.728  -6.226  -0.032  0.00  0.00    -0.122 NA
ATOM      5  C   UNL     1       1.161  -4.985  -0.032  0.00  0.00    +0.197 A 
ENDROOT
BRANCH   1  10
ATOM      6  C   UNL     1      -0.018   1.503   0.010  0.00  0.00    +0.044 C 
ATOM      7  C   UNL     1       0.002  -0.004   0.002  0.00  0.00    -0.050 A 
ATOM      8  C   UNL     1       0.006  -0.688  -1.200  0.00  0.00    +0.005 A 
ATOM      9  C   UNL     1       0.025  -2.068  -1.211  0.00  0.00    +0.027 A 
ATOM     10  C   UNL     1       0.041  -2.771  -0.013  0.00  0.00    +0.053 A 
ATOM     11  C   UNL     1       0.037  -2.082   1.192  0.00  0.00    -0.026 A 
ATOM     12  C   UNL     1       0.023  -0.700   1.196  0.00  0.00    +0.008 A 
ATOM     13  C   UNL     1       0.053  -2.840   2.494  0.00  0.00    +0.046 C 
ENDBRANCH   1  10
BRANCH   2  14
ATOM     14  C   UNL     1      -2.450  -4.625  -0.023  0.00  0.00    +0.062 A 
ATOM     15  C   UNL     1      -2.803  -3.275  -0.021  0.00  0.00    +0.030 A 
ATOM     16  C   UNL     1      -4.134  -2.911  -0.018  0.00  0.00    +0.019 A 
ATOM     17  C   UNL     1      -5.122  -3.882  -0.017  0.00  0.00    +0.019 A 
ATOM     18  C   UNL     1      -4.784  -5.222  -0.019  0.00  0.00    +0.047 A 
ATOM     19  C   UNL     1      -3.452  -5.603  -0.028  0.00  0.00    +0.128 A 
ATOM     20 BR   UNL     1      -4.612  -1.082  -0.015  0.00  0.00    -0.050 Br
BRANCH  19  21
ATOM     21  O   UNL     1      -3.119  -6.920  -0.036  0.00  0.00    -0.506 OA
ATOM     22  H   UNL     1      -3.022  -7.306   0.845  0.00  0.00    +0.292 HD
ENDBRANCH  19  21
ENDBRANCH   2  14
BRANCH   5  23
ATOM     23  S   UNL     1       2.844  -4.465  -0.038  0.00  0.00    -0.076 S 
BRANCH  23  24
ATOM     24  C   UNL     1       3.783  -6.017  -0.052  0.00  0.00    +0.172 C 
BRANCH  24  25
ATOM     25  C   UNL     1       5.259  -5.711  -0.059  0.00  0.00    +0.221 C 
ATOM     26  O   UNL     1       5.640  -4.560  -0.055  0.00  0.00    -0.275 OA
ATOM     27  N   UNL     1       6.155  -6.718  -0.069  0.00  0.00    -0.329 N 
ATOM     28  H   UNL     1       5.851  -7.639  -0.072  0.00  0.00    +0.145 HD
ATOM     29  H   UNL     1       7.105  -6.521  -0.074  0.00  0.00    +0.145 HD
ENDBRANCH  24  25
ENDBRANCH  23  24
ENDBRANCH   5  23
TORSDOF 6
