REMARK  Name = ZINC05055002
REMARK  9 active torsions:
REMARK  status: ('A' for Active; 'I' for Inactive)
REMARK    1  A    between atoms: C_1  and  C_2
REMARK    2  A    between atoms: C_2  and  C_3
REMARK    3  A    between atoms: C_3  and  C_5
REMARK    4  A    between atoms: C_3  and  N_6
REMARK    5  A    between atoms: C_7  and  C_9
REMARK    6  A    between atoms: C_9  and  N_10
REMARK    7  A    between atoms: C_14  and  S_20
REMARK    8  A    between atoms: S_20  and  N_23
REMARK    9  A    between atoms: N_23  and  C_24
REMARK                            x       y       z     vdW  Elec       q    Type
REMARK                         _______ _______ _______ _____ _____    ______ ____
ROOT
ATOM      1  N   UNL     1      -4.397  -3.188   0.476  0.00  0.00    -0.265 N 
ATOM      2  C   UNL     1      -5.585  -3.432   1.163  0.00  0.00    +0.091 A 
ATOM      3  C   UNL     1      -5.979  -3.246   2.479  0.00  0.00    +0.031 A 
ATOM      4  C   UNL     1      -7.260  -3.585   2.868  0.00  0.00    +0.031 A 
ATOM      5  C   UNL     1      -8.152  -4.104   1.946  0.00  0.00    +0.109 A 
ATOM      6  C   UNL     1      -7.769  -4.287   0.631  0.00  0.00    +0.077 A 
ATOM      7  C   UNL     1      -6.486  -3.949   0.232  0.00  0.00    +0.159 A 
ATOM      8  O   UNL     1      -5.841  -4.014  -0.958  0.00  0.00    -0.407 OA
ATOM      9  C   UNL     1      -4.588  -3.556  -0.806  0.00  0.00    +0.422 A 
ATOM     10  O   UNL     1      -3.755  -3.484  -1.689  0.00  0.00    -0.223 OA
ENDROOT
BRANCH   5  11
ATOM     11  S   UNL     1      -9.785  -4.534   2.451  0.00  0.00    +0.059 S 
ATOM     12  O   UNL     1     -10.069  -3.760   3.608  0.00  0.00    -0.153 OA
ATOM     13  O   UNL     1     -10.596  -4.487   1.286  0.00  0.00    -0.153 OA
BRANCH  11  14
ATOM     14  N   UNL     1      -9.746  -6.116   2.938  0.00  0.00    -0.187 NA
ATOM     15  H   UNL     1     -10.243  -6.788   2.445  0.00  0.00    +0.148 HD
BRANCH  14  16
ATOM     16  C   UNL     1      -8.961  -6.502   4.114  0.00  0.00    +0.077 C 
ATOM     17  C   UNL     1      -7.591  -7.059   3.675  0.00  0.00    +0.020 C 
ATOM     18  C   UNL     1      -7.311  -8.208   4.675  0.00  0.00    +0.002 C 
ATOM     19  C   UNL     1      -8.711  -8.840   4.871  0.00  0.00    +0.002 C 
ATOM     20  C   UNL     1      -9.673  -7.634   4.874  0.00  0.00    +0.020 C 
ENDBRANCH  14  16
ENDBRANCH  11  14
ENDBRANCH   5  11
BRANCH   1  21
ATOM     21  C   UNL     1      -3.164  -2.638   1.045  0.00  0.00    +0.224 C 
BRANCH  21  23
ATOM     22  N   UNL     1      -2.145  -0.411   1.390  0.00  0.00    -0.311 N 
ATOM     23  C   UNL     1      -3.183  -1.136   0.929  0.00  0.00    +0.233 C 
ATOM     24  O   UNL     1      -4.134  -0.579   0.422  0.00  0.00    -0.274 OA
ATOM     25  H   UNL     1      -1.385  -0.856   1.796  0.00  0.00    +0.149 HD
BRANCH  22  26
ATOM     26  C   UNL     1      -2.164   1.050   1.278  0.00  0.00    +0.070 C 
ATOM     27  C   UNL     1      -2.918   1.643   2.470  0.00  0.00    +0.028 C 
BRANCH  26  29
ATOM     28  C   UNL     1      -0.013   1.086   0.008  0.00  0.00    +0.005 C 
ATOM     29  C   UNL     1      -0.729   1.579   1.267  0.00  0.00    +0.018 C 
ENDBRANCH  26  29
ENDBRANCH  22  26
ENDBRANCH  21  23
ENDBRANCH   1  21
TORSDOF 7
