REMARK  Name = ZINC46131718
REMARK  5 active torsions:
REMARK  status: ('A' for Active; 'I' for Inactive)
REMARK    1  A    between atoms: C_6  and  C_7
REMARK    2  A    between atoms: C_7  and  N_9
REMARK    3  A    between atoms: N_11  and  C_12
REMARK    4  A    between atoms: N_20  and  C_21
REMARK    5  A    between atoms: C_21  and  C_22
REMARK                            x       y       z     vdW  Elec       q    Type
REMARK                         _______ _______ _______ _____ _____    ______ ____
ROOT
ATOM      1  N   UNL     1      -2.743  -0.046   1.604  0.00  0.00    -0.143 NA
ATOM      2  C   UNL     1      -3.571  -0.721   0.822  0.00  0.00    +0.194 C 
ATOM      3  N   UNL     1      -4.525  -0.058   0.105  0.00  0.00    -0.328 N 
ATOM      4  N   UNL     1      -3.470  -2.078   0.732  0.00  0.00    -0.355 N 
ATOM      5  H   UNL     1      -5.195  -0.557  -0.388  0.00  0.00    +0.169 HD
ATOM      6  H   UNL     1      -2.747  -2.542   1.181  0.00  0.00    +0.162 HD
ENDROOT
BRANCH   3   7
ATOM      7  C   UNL     1      -4.537   1.342   0.082  0.00  0.00    +0.043 A 
ATOM      8  C   UNL     1      -3.341   2.046   0.041  0.00  0.00    +0.028 A 
ATOM      9  C   UNL     1      -3.354   3.427   0.018  0.00  0.00    +0.042 A 
ATOM     10  C   UNL     1      -4.559   4.110   0.035  0.00  0.00    +0.142 A 
ATOM     11  C   UNL     1      -5.753   3.409   0.075  0.00  0.00    +0.078 A 
ATOM     12  C   UNL     1      -5.745   2.027   0.093  0.00  0.00    +0.048 A 
ATOM     13 CL   UNL     1      -7.262   4.267   0.097  0.00  0.00    -0.081 Cl
ATOM     14  F   UNL     1      -4.569   5.461   0.013  0.00  0.00    -0.204 F 
ENDBRANCH   3   7
BRANCH   1  15
ATOM     15  C   UNL     1      -1.946  -0.701   2.460  0.00  0.00    +0.270 C 
ATOM     16  O   UNL     1      -2.040  -1.910   2.576  0.00  0.00    -0.268 OA
BRANCH  15  22
ATOM     17  C   UNL     1      -0.843   1.429   3.131  0.00  0.00    +0.017 A 
ATOM     18  C   UNL     1       0.084   2.122   3.880  0.00  0.00    +0.050 A 
ATOM     19  C   UNL     1       0.911   1.446   4.766  0.00  0.00    +0.166 A 
ATOM     20  C   UNL     1       0.807   0.061   4.902  0.00  0.00    +0.167 A 
ATOM     21  C   UNL     1      -0.121  -0.637   4.155  0.00  0.00    +0.062 A 
ATOM     22  C   UNL     1      -0.952   0.044   3.263  0.00  0.00    +0.043 A 
ATOM     23  O   UNL     1       1.722  -0.356   5.826  0.00  0.00    -0.453 OA
ATOM     24  C   UNL     1       2.661   0.728   5.952  0.00  0.00    +0.466 C 
ATOM     25  O   UNL     1       1.890   1.893   5.604  0.00  0.00    -0.453 OA
ENDBRANCH  15  22
ENDBRANCH   1  15
BRANCH   4  26
ATOM     26  C   UNL     1      -4.456  -2.836  -0.044  0.00  0.00    +0.147 C 
BRANCH  26  27
ATOM     27  C   UNL     1      -4.192  -4.334   0.121  0.00  0.00    +0.137 C 
ATOM     28  C   UNL     1      -5.158  -5.152  -0.773  0.00  0.00    +0.035 C 
ATOM     29  C   UNL     1      -4.346  -6.462  -0.963  0.00  0.00    +0.031 C 
ATOM     30  C   UNL     1      -2.892  -5.945  -0.990  0.00  0.00    +0.160 C 
ATOM     31  O   UNL     1      -2.875  -4.663  -0.347  0.00  0.00    -0.375 OA
ENDBRANCH  26  27
ENDBRANCH   4  26
TORSDOF 5
