REMARK  Name = ZINC12362686
REMARK  9 active torsions:
REMARK  status: ('A' for Active; 'I' for Inactive)
REMARK    1  A    between atoms: C_1  and  C_2
REMARK    2  A    between atoms: C_2  and  C_3
REMARK    3  A    between atoms: C_2  and  C_4
REMARK    4  A    between atoms: C_2  and  C_5
REMARK    5  A    between atoms: C_8  and  C_11
REMARK    6  A    between atoms: C_14  and  C_16
REMARK    7  A    between atoms: N_18  and  N_19
REMARK    8  A    between atoms: C_20  and  C_21
REMARK    9  A    between atoms: C_25  and  N_27
REMARK                            x       y       z     vdW  Elec       q    Type
REMARK                         _______ _______ _______ _____ _____    ______ ____
ROOT
ATOM      1  C   UNL     1      -3.003   1.744  -1.569  0.00  0.00    +0.236 C 
ATOM      2  O   UNL     1      -3.506   0.907  -0.850  0.00  0.00    -0.274 OA
ATOM      3  N   UNL     1      -2.935   1.537  -2.900  0.00  0.00    -0.207 N 
ATOM      4  H   UNL     1      -2.533   2.207  -3.474  0.00  0.00    +0.177 HD
ENDROOT
BRANCH   1   7
ATOM      5  C   UNL     1      -2.561   3.193   0.541  0.00  0.00    +0.032 C 
ATOM      6  C   UNL     1      -1.203   2.905  -0.102  0.00  0.00    +0.022 C 
ATOM      7  C   UNL     1      -2.454   3.016  -0.976  0.00  0.00    +0.085 C 
BRANCH   5  11
ATOM      8  C   UNL     1      -4.395   0.043   2.769  0.00  0.00    -0.042 A 
ATOM      9  C   UNL     1      -4.936   1.315   2.797  0.00  0.00    +0.004 A 
ATOM     10  C   UNL     1      -4.343   2.334   2.076  0.00  0.00    +0.004 A 
ATOM     11  C   UNL     1      -3.208   2.081   1.327  0.00  0.00    -0.044 A 
ATOM     12  C   UNL     1      -2.670   0.808   1.296  0.00  0.00    +0.004 A 
ATOM     13  C   UNL     1      -3.260  -0.210   2.021  0.00  0.00    +0.004 A 
BRANCH   8  15
ATOM     14  C   UNL     1      -6.478  -1.268   3.071  0.00  0.00    +0.015 C 
ATOM     15  C   UNL     1      -5.041  -1.068   3.556  0.00  0.00    -0.013 C 
ATOM     16  C   UNL     1      -4.250  -2.362   3.355  0.00  0.00    +0.015 C 
ATOM     17  C   UNL     1      -5.051  -0.702   5.042  0.00  0.00    +0.015 C 
ENDBRANCH   8  15
ENDBRANCH   5  11
ENDBRANCH   1   7
BRANCH   3  18
ATOM     18  N   UNL     1      -3.445   0.355  -3.451  0.00  0.00    -0.188 NA
ATOM     19  C   UNL     1      -3.284   0.106  -4.715  0.00  0.00    +0.142 C 
BRANCH  19  20
ATOM     20  C   UNL     1      -2.357   0.926  -5.515  0.00  0.00    +0.043 A 
ATOM     21  C   UNL     1      -1.284   1.575  -4.900  0.00  0.00    +0.013 A 
ATOM     22  C   UNL     1      -0.419   2.340  -5.654  0.00  0.00    +0.003 A 
ATOM     23  C   UNL     1      -0.610   2.468  -7.019  0.00  0.00    +0.037 A 
ATOM     24  C   UNL     1      -1.667   1.831  -7.640  0.00  0.00    +0.173 A 
ATOM     25  C   UNL     1      -2.543   1.054  -6.898  0.00  0.00    +0.218 A 
ATOM     26  O   UNL     1      -3.579   0.423  -7.508  0.00  0.00    -0.285 OA
BRANCH  24  27
ATOM     27  N   UNL     1      -1.862   1.974  -9.100  0.00  0.00    +0.060 N 
ATOM     28  O   UNL     1      -1.091   2.652  -9.754  0.00  0.00    -0.126 OA
ATOM     29  O   UNL     1      -2.794   1.412  -9.648  0.00  0.00    -0.126 OA
ENDBRANCH  24  27
ENDBRANCH  19  20
ENDBRANCH   3  18
TORSDOF 6
