REMARK  Name = ZINC20834960
REMARK  10 active torsions:
REMARK  status: ('A' for Active; 'I' for Inactive)
REMARK    1  A    between atoms: C_1  and  C_2
REMARK    2  A    between atoms: C_5  and  C_7
REMARK    3  A    between atoms: N_8  and  N_9
REMARK    4  A    between atoms: C_12  and  S_15
REMARK    5  A    between atoms: S_15  and  C_16
REMARK    6  A    between atoms: C_16  and  C_17
REMARK    7  A    between atoms: N_19  and  C_20
REMARK    8  A    between atoms: C_23  and  S_26
REMARK    9  A    between atoms: S_26  and  N_29
REMARK   10  A    between atoms: N_29  and  C_30
REMARK                            x       y       z     vdW  Elec       q    Type
REMARK                         _______ _______ _______ _____ _____    ______ ____
ROOT
ATOM      1  C   UNL     1      -5.351  11.356  -0.471  0.00  0.00    +0.227 C 
ATOM      2  O   UNL     1      -6.379  11.734  -0.992  0.00  0.00    -0.275 OA
ATOM      3  N   UNL     1      -4.523  12.246   0.111  0.00  0.00    -0.285 N 
ATOM      4  H   UNL     1      -3.630  11.896   0.649  0.00  0.00    +0.155 HD
ENDROOT
BRANCH   3   5
ATOM      5  C   UNL     1      -4.800  13.615   0.031  0.00  0.00    +0.034 A 
ATOM      6  C   UNL     1      -3.761  14.531  -0.064  0.00  0.00    +0.025 A 
ATOM      7  C   UNL     1      -4.038  15.882  -0.149  0.00  0.00    +0.030 A 
ATOM      8  C   UNL     1      -5.348  16.323  -0.128  0.00  0.00    +0.105 A 
ATOM      9  C   UNL     1      -6.385  15.414  -0.028  0.00  0.00    +0.030 A 
ATOM     10  C   UNL     1      -6.115  14.062   0.052  0.00  0.00    +0.025 A 
BRANCH   8  11
ATOM     11  S   UNL     1      -5.697  18.047  -0.230  0.00  0.00    +0.059 S 
ATOM     12  O   UNL     1      -4.579  18.651  -0.866  0.00  0.00    -0.153 OA
ATOM     13  O   UNL     1      -7.019  18.165  -0.739  0.00  0.00    -0.153 OA
BRANCH  11  14
ATOM     14  N   UNL     1      -5.733  18.631   1.319  0.00  0.00    -0.187 NA
ATOM     15  H   UNL     1      -6.703  18.868   1.782  0.00  0.00    +0.148 HD
BRANCH  14  16
ATOM     16  C   UNL     1      -4.515  18.623   2.134  0.00  0.00    +0.077 C 
ATOM     17  C   UNL     1      -4.489  17.362   2.999  0.00  0.00    +0.020 C 
ATOM     18  C   UNL     1      -3.217  17.354   3.849  0.00  0.00    +0.002 C 
ATOM     19  C   UNL     1      -3.197  18.591   4.750  0.00  0.00    +0.000 C 
ATOM     20  C   UNL     1      -3.224  19.852   3.884  0.00  0.00    +0.002 C 
ATOM     21  C   UNL     1      -4.496  19.860   3.034  0.00  0.00    +0.020 C 
ENDBRANCH  14  16
ENDBRANCH  11  14
ENDBRANCH   8  11
ENDBRANCH   3   5
BRANCH   1  22
ATOM     22  C   UNL     1      -4.999   9.890  -0.475  0.00  0.00    +0.173 C 
BRANCH  22  23
ATOM     23  S   UNL     1      -6.302   8.958  -1.327  0.00  0.00    -0.075 S 
BRANCH  23  27
ATOM     24  N   UNL     1      -5.966   3.788  -1.845  0.00  0.00    -0.205 N 
ATOM     25  C   UNL     1      -5.651   5.091  -1.492  0.00  0.00    +0.232 A 
ATOM     26  N   UNL     1      -6.403   6.201  -1.759  0.00  0.00    -0.186 NA
ATOM     27  C   UNL     1      -5.750   7.287  -1.248  0.00  0.00    +0.211 A 
ATOM     28  N   UNL     1      -4.641   6.866  -0.688  0.00  0.00    -0.144 NA
ATOM     29  N   UNL     1      -4.581   5.475  -0.838  0.00  0.00    -0.245 N 
ATOM     30  H   UNL     1      -6.897   3.576  -2.392  0.00  0.00    +0.177 HD
ATOM     31  H   UNL     1      -3.836   4.731  -0.517  0.00  0.00    +0.192 HD
BRANCH  24  33
ATOM     32  C   UNL     1      -5.396   1.517  -1.838  0.00  0.00    +0.176 C 
ATOM     33  N   UNL     1      -5.099   2.740  -1.506  0.00  0.00    -0.184 NA
BRANCH  32  38
ATOM     34  C   UNL     1      -1.455  -0.958   0.017  0.00  0.00    +0.086 C 
ATOM     35  C   UNL     1      -2.764  -0.671  -0.672  0.00  0.00    +0.103 A 
ATOM     36  C   UNL     1      -3.568  -1.590  -1.245  0.00  0.00    +0.045 A 
ATOM     37  C   UNL     1      -4.678  -0.900  -1.769  0.00  0.00    +0.051 A 
ATOM     38  C   UNL     1      -4.489   0.421  -1.483  0.00  0.00    +0.148 A 
ATOM     39  O   UNL     1      -3.323   0.542  -0.818  0.00  0.00    -0.459 OA
ENDBRANCH  32  38
ENDBRANCH  24  33
ENDBRANCH  23  27
ENDBRANCH  22  23
ENDBRANCH   1  22
TORSDOF 9
