REMARK  Name = ZINC21229089
REMARK  7 active torsions:
REMARK  status: ('A' for Active; 'I' for Inactive)
REMARK    1  A    between atoms: C_1  and  C_2
REMARK    2  A    between atoms: C_2  and  O_3
REMARK    3  A    between atoms: O_3  and  C_4
REMARK    4  A    between atoms: C_7  and  C_12
REMARK    5  A    between atoms: C_9  and  O_10
REMARK    6  A    between atoms: O_10  and  C_11
REMARK    7  A    between atoms: C_17  and  C_27
REMARK                            x       y       z     vdW  Elec       q    Type
REMARK                         _______ _______ _______ _____ _____    ______ ____
ROOT
ATOM      1  C   UNL     1      -4.081  -1.926  -1.428  0.00  0.00    +0.032 C 
ATOM      2  C   UNL     1      -2.600  -1.998  -1.058  0.00  0.00    +0.059 C 
ATOM      3  C   UNL     1      -2.082  -0.607  -0.734  0.00  0.00    +0.017 C 
ATOM      4  C   UNL     1      -2.572   0.468  -1.374  0.00  0.00    +0.036 C 
ATOM      5  C   UNL     1      -2.131   1.897  -1.172  0.00  0.00    +0.138 C 
ATOM      6  N   UNL     1      -1.285   2.108  -0.016  0.00  0.00    -0.331 N 
ATOM      7  C   UNL     1      -0.017   1.532   0.064  0.00  0.00    +0.049 A 
ATOM      8  C   UNL     1       1.132   2.306   0.055  0.00  0.00    +0.025 A 
ATOM      9  C   UNL     1       2.369   1.685   0.050  0.00  0.00    +0.002 A 
ATOM     10  C   UNL     1       2.459   0.305   0.055  0.00  0.00    +0.002 A 
ATOM     11  C   UNL     1       1.312  -0.470   0.081  0.00  0.00    +0.025 A 
ATOM     12  C   UNL     1       0.074   0.149   0.102  0.00  0.00    +0.052 A 
ATOM     13  N   UNL     1      -1.111  -0.567   0.213  0.00  0.00    -0.316 N 
ATOM     14  C   UNL     1      -3.606   0.317  -2.329  0.00  0.00    +0.163 C 
ATOM     15  O   UNL     1      -4.018   1.304  -2.906  0.00  0.00    -0.292 OA
ATOM     16  C   UNL     1      -4.212  -1.014  -2.654  0.00  0.00    +0.088 C 
ATOM     17  H   UNL     1      -1.639   2.730   0.819  0.00  0.00    +0.147 HD
ATOM     18  H   UNL     1      -1.234  -1.129   1.151  0.00  0.00    +0.152 HD
ENDROOT
BRANCH   5  19
ATOM     19  C   UNL     1      -1.377   2.342  -2.399  0.00  0.00    +0.002 A 
ATOM     20  C   UNL     1      -0.865   1.548  -3.353  0.00  0.00    +0.089 A 
ATOM     21  N   UNL     1      -0.252   2.308  -4.313  0.00  0.00    -0.360 N 
ATOM     22  H   UNL     1       0.220   1.822  -5.180  0.00  0.00    +0.165 HD
ATOM     23  C   UNL     1      -0.350   3.642  -3.987  0.00  0.00    +0.047 A 
ATOM     24  C   UNL     1      -1.058   3.722  -2.774  0.00  0.00    +0.005 A 
ATOM     25  C   UNL     1      -1.310   4.967  -2.195  0.00  0.00    +0.010 A 
ATOM     26  C   UNL     1      -0.867   6.104  -2.811  0.00  0.00    +0.001 A 
ATOM     27  C   UNL     1      -0.167   6.030  -4.008  0.00  0.00    +0.002 A 
ATOM     28  C   UNL     1       0.093   4.811  -4.596  0.00  0.00    +0.026 A 
ENDBRANCH   5  19
BRANCH   1  32
ATOM     29  C   UNL     1      -5.527  -5.838  -2.375  0.00  0.00    +0.162 A 
ATOM     30  C   UNL     1      -4.468  -5.297  -3.086  0.00  0.00    +0.050 A 
ATOM     31  C   UNL     1      -4.006  -4.030  -2.781  0.00  0.00    +0.008 A 
ATOM     32  C   UNL     1      -4.592  -3.304  -1.760  0.00  0.00    -0.040 A 
ATOM     33  C   UNL     1      -5.649  -3.838  -1.047  0.00  0.00    +0.053 A 
ATOM     34  C   UNL     1      -6.120  -5.106  -1.351  0.00  0.00    +0.162 A 
BRANCH  34  35
ATOM     35  O   UNL     1      -7.160  -5.632  -0.651  0.00  0.00    -0.491 OA
ATOM     36  C   UNL     1      -7.720  -4.823   0.386  0.00  0.00    +0.277 C 
ENDBRANCH  34  35
BRANCH  29  37
ATOM     37  O   UNL     1      -5.986  -7.082  -2.677  0.00  0.00    -0.489 OA
BRANCH  37  39
ATOM     38  C   UNL     1      -5.979  -9.147  -3.932  0.00  0.00    +0.048 C 
ATOM     39  C   UNL     1      -5.329  -7.776  -3.740  0.00  0.00    +0.226 C 
ENDBRANCH  37  39
ENDBRANCH  29  37
ENDBRANCH   1  32
TORSDOF 5
