REMARK  Name = ZINC08845336
REMARK  11 active torsions:
REMARK  status: ('A' for Active; 'I' for Inactive)
REMARK    1  A    between atoms: C_1  and  C_2
REMARK    2  A    between atoms: C_4  and  C_10
REMARK    3  A    between atoms: C_5  and  O_9
REMARK    4  A    between atoms: C_7  and  C_8
REMARK    5  A    between atoms: N_18  and  C_31
REMARK    6  A    between atoms: C_19  and  C_21
REMARK    7  A    between atoms: C_23  and  O_29
REMARK    8  A    between atoms: C_24  and  O_28
REMARK    9  A    between atoms: O_29  and  C_30
REMARK   10  A    between atoms: C_31  and  C_32
REMARK   11  A    between atoms: C_32  and  O_33
REMARK                            x       y       z     vdW  Elec       q    Type
REMARK                         _______ _______ _______ _____ _____    ______ ____
ROOT
ATOM      1  C   UNL     1      -0.263  -2.971  -2.929  0.00  0.00    +0.102 A 
ATOM      2  C   UNL     1       0.018  -4.340  -2.869  0.00  0.00    +0.035 A 
ATOM      3  C   UNL     1       0.062  -4.773  -4.180  0.00  0.00    +0.126 A 
ATOM      4  N   UNL     1      -0.187  -3.674  -4.952  0.00  0.00    -0.272 N 
ATOM      5  H   UNL     1      -0.221  -3.670  -5.921  0.00  0.00    +0.189 HD
ATOM      6  N   UNL     1      -0.377  -2.647  -4.203  0.00  0.00    -0.173 NA
ATOM      7  C   UNL     1       0.355  -6.211  -4.187  0.00  0.00    +0.266 C 
ATOM      8  O   UNL     1       0.461  -6.893  -5.188  0.00  0.00    -0.268 OA
ATOM      9  N   UNL     1       0.490  -6.668  -2.929  0.00  0.00    -0.283 N 
ATOM     10  C   UNL     1       0.292  -5.542  -2.007  0.00  0.00    +0.141 C 
ENDROOT
BRANCH   1  14
ATOM     11  C   UNL     1       1.376  -1.255   1.463  0.00  0.00    +0.044 C 
ATOM     12  C   UNL     1       0.372  -1.224   0.339  0.00  0.00    -0.047 A 
ATOM     13  C   UNL     1       0.515  -2.080  -0.734  0.00  0.00    +0.017 A 
ATOM     14  C   UNL     1      -0.412  -2.053  -1.773  0.00  0.00    +0.044 A 
ATOM     15  C   UNL     1      -1.483  -1.156  -1.722  0.00  0.00    +0.126 A 
ATOM     16  C   UNL     1      -1.615  -0.303  -0.639  0.00  0.00    +0.049 A 
ATOM     17  C   UNL     1      -0.692  -0.342   0.390  0.00  0.00    -0.044 A 
ATOM     18  C   UNL     1      -0.843   0.584   1.569  0.00  0.00    +0.044 C 
BRANCH  15  19
ATOM     19  O   UNL     1      -2.392  -1.122  -2.731  0.00  0.00    -0.506 OA
ATOM     20  H   UNL     1      -3.180  -1.659  -2.569  0.00  0.00    +0.292 HD
ENDBRANCH  15  19
ENDBRANCH   1  14
BRANCH  10  21
ATOM     21  C   UNL     1      -0.885  -5.811  -1.105  0.00  0.00    -0.018 A 
ATOM     22  C   UNL     1      -0.802  -5.516   0.244  0.00  0.00    +0.055 A 
ATOM     23  C   UNL     1      -1.883  -5.763   1.075  0.00  0.00    +0.163 A 
ATOM     24  C   UNL     1      -3.050  -6.308   0.550  0.00  0.00    +0.173 A 
ATOM     25  C   UNL     1      -3.127  -6.602  -0.802  0.00  0.00    +0.063 A 
ATOM     26  C   UNL     1      -2.046  -6.348  -1.628  0.00  0.00    +0.025 A 
ATOM     27 BR   UNL     1      -4.711  -7.344  -1.521  0.00  0.00    -0.046 Br
BRANCH  24  28
ATOM     28  O   UNL     1      -4.113  -6.553   1.362  0.00  0.00    -0.503 OA
ATOM     29  H   UNL     1      -4.729  -5.812   1.438  0.00  0.00    +0.292 HD
ENDBRANCH  24  28
BRANCH  23  30
ATOM     30  O   UNL     1      -1.802  -5.473   2.401  0.00  0.00    -0.491 OA
ATOM     31  C   UNL     1      -0.573  -4.915   2.870  0.00  0.00    +0.277 C 
ENDBRANCH  23  30
ENDBRANCH  10  21
BRANCH   9  32
ATOM     32  C   UNL     1       0.783  -8.050  -2.544  0.00  0.00    +0.137 C 
BRANCH  32  33
ATOM     33  C   UNL     1       2.298  -8.245  -2.458  0.00  0.00    +0.175 C 
BRANCH  33  34
ATOM     34  O   UNL     1       2.822  -7.439  -1.400  0.00  0.00    -0.393 OA
ATOM     35  H   UNL     1       3.780  -7.513  -1.287  0.00  0.00    +0.209 HD
ENDBRANCH  33  34
ENDBRANCH  32  33
ENDBRANCH   9  32
TORSDOF 8
