REMARK  Name = ZINC33033359
REMARK  8 active torsions:
REMARK  status: ('A' for Active; 'I' for Inactive)
REMARK    1  A    between atoms: C_1  and  C_2
REMARK    2  A    between atoms: C_5  and  S_9
REMARK    3  A    between atoms: C_7  and  C_8
REMARK    4  A    between atoms: S_9  and  N_12
REMARK    5  A    between atoms: N_12  and  C_13
REMARK    6  A    between atoms: C_15  and  C_25
REMARK    7  A    between atoms: C_18  and  N_19
REMARK    8  A    between atoms: C_31  and  C_34
REMARK                            x       y       z     vdW  Elec       q    Type
REMARK                         _______ _______ _______ _____ _____    ______ ____
ROOT
ATOM      1  C   UNL     1      -6.331  -0.760  -2.853  0.00  0.00    +0.070 A 
ATOM      2  C   UNL     1      -4.968  -0.535  -2.857  0.00  0.00    +0.039 A 
ATOM      3  C   UNL     1      -4.384   0.218  -1.833  0.00  0.00    +0.039 A 
ATOM      4  C   UNL     1      -5.181   0.734  -0.807  0.00  0.00    +0.015 A 
ATOM      5  C   UNL     1      -6.540   0.511  -0.810  0.00  0.00    +0.026 A 
ATOM      6  C   UNL     1      -7.122  -0.236  -1.827  0.00  0.00    +0.052 A 
ENDROOT
BRANCH   3   7
ATOM      7  C   UNL     1      -2.929   0.462  -1.833  0.00  0.00    +0.247 C 
ATOM      8  O   UNL     1      -2.286   0.302  -0.813  0.00  0.00    -0.270 OA
ATOM      9  N   UNL     1      -2.313   0.862  -2.963  0.00  0.00    -0.297 N 
ATOM     10  C   UNL     1      -3.062   0.983  -4.221  0.00  0.00    +0.108 C 
ATOM     11  C   UNL     1      -2.847   2.390  -4.788  0.00  0.00    +0.019 C 
ATOM     12  C   UNL     1      -1.346   2.659  -4.922  0.00  0.00    +0.006 C 
ATOM     13  C   UNL     1      -0.690   2.589  -3.541  0.00  0.00    +0.003 C 
ATOM     14  C   UNL     1      -0.880   1.185  -2.959  0.00  0.00    +0.111 C 
ATOM     15  C   UNL     1       0.805   2.891  -3.670  0.00  0.00    +0.009 C 
ENDBRANCH   3   7
BRANCH   6  16
ATOM     16  N   UNL     1      -8.497  -0.464  -1.823  0.00  0.00    -0.332 N 
ATOM     17  C   UNL     1      -9.097  -0.045  -0.548  0.00  0.00    +0.086 C 
ATOM     18  C   UNL     1     -10.589  -0.384  -0.554  0.00  0.00    -0.063 C 
ATOM     19  N   UNL     1     -11.238   0.293  -1.686  0.00  0.00    +0.381 N 
ATOM     20  C   UNL     1     -10.639  -0.127  -2.960  0.00  0.00    -0.063 C 
ATOM     21  C   UNL     1      -9.146   0.212  -2.955  0.00  0.00    +0.086 C 
ATOM     22  H   UNL     1     -12.309   0.041  -1.698  0.00  0.00    -0.086 HD
ATOM     23  H   UNL     1     -11.119   1.381  -1.580  0.00  0.00    -0.086 HD
ENDBRANCH   6  16
BRANCH   1  24
ATOM     24  N   UNL     1      -6.920  -1.514  -3.876  0.00  0.00    -0.214 N 
ATOM     25  H   UNL     1      -7.350  -1.008  -4.753  0.00  0.00    +0.174 HD
BRANCH  24  26
ATOM     26  S   UNL     1      -6.968  -3.165  -3.766  0.00  0.00    +0.072 S 
ATOM     27  O   UNL     1      -7.649  -3.630  -4.924  0.00  0.00    -0.150 OA
ATOM     28  O   UNL     1      -5.653  -3.589  -3.435  0.00  0.00    -0.150 OA
BRANCH  26  33
ATOM     29  C   UNL     1     -10.464  -4.539   0.956  0.00  0.00    +0.044 C 
ATOM     30  C   UNL     1      -9.591  -4.196  -0.224  0.00  0.00    -0.047 A 
ATOM     31  C   UNL     1     -10.150  -4.057  -1.481  0.00  0.00    +0.005 A 
ATOM     32  C   UNL     1      -9.349  -3.743  -2.562  0.00  0.00    +0.029 A 
ATOM     33  C   UNL     1      -7.989  -3.566  -2.387  0.00  0.00    +0.109 A 
ATOM     34  C   UNL     1      -7.429  -3.709  -1.132  0.00  0.00    +0.032 A 
ATOM     35  C   UNL     1      -8.231  -4.019  -0.049  0.00  0.00    -0.046 A 
ATOM     36  C   UNL     1      -7.622  -4.171   1.321  0.00  0.00    +0.044 C 
ENDBRANCH  26  33
ENDBRANCH  24  26
ENDBRANCH   1  24
TORSDOF 5
