REMARK  Name = ZINC01589621
REMARK  6 active torsions:
REMARK  status: ('A' for Active; 'I' for Inactive)
REMARK    1  A    between atoms: C_1  and  C_2
REMARK    2  A    between atoms: N_4  and  C_5
REMARK    3  A    between atoms: C_8  and  S_11
REMARK    4  A    between atoms: S_11  and  N_14
REMARK    5  A    between atoms: N_14  and  N_15
REMARK    6  A    between atoms: N_17  and  C_25
REMARK                            x       y       z     vdW  Elec       q    Type
REMARK                         _______ _______ _______ _____ _____    ______ ____
ROOT
ATOM      1  S   UNL     1      -1.197   1.467   0.695  0.00  0.00    +0.087 S 
ATOM      2  O   UNL     1      -0.786   2.475  -0.218  0.00  0.00    -0.149 OA
ATOM      3  O   UNL     1      -2.195   0.508   0.374  0.00  0.00    -0.149 OA
ENDROOT
BRANCH   1   7
ATOM      4  C   UNL     1       2.524  -0.865   1.804  0.00  0.00    +0.033 A 
ATOM      5  C   UNL     1       1.272  -1.454   1.923  0.00  0.00    +0.025 A 
ATOM      6  C   UNL     1       0.139  -0.740   1.586  0.00  0.00    +0.030 A 
ATOM      7  C   UNL     1       0.250   0.561   1.131  0.00  0.00    +0.110 A 
ATOM      8  C   UNL     1       1.495   1.151   1.011  0.00  0.00    +0.030 A 
ATOM      9  C   UNL     1       2.632   0.442   1.346  0.00  0.00    +0.025 A 
BRANCH   4  13
ATOM     10  C   UNL     1       4.915  -3.711   2.392  0.00  0.00    +0.109 C 
ATOM     11  C   UNL     1       3.732  -2.911   1.910  0.00  0.00    +0.214 C 
ATOM     12  O   UNL     1       2.833  -3.461   1.310  0.00  0.00    -0.276 OA
ATOM     13  N   UNL     1       3.674  -1.585   2.144  0.00  0.00    -0.286 N 
ATOM     14  H   UNL     1       4.429  -1.131   2.550  0.00  0.00    +0.155 HD
ENDBRANCH   4  13
ENDBRANCH   1   7
BRANCH   1  15
ATOM     15  N   UNL     1      -1.715   2.248   2.061  0.00  0.00    -0.134 N 
ATOM     16  H   UNL     1      -2.598   2.067   2.418  0.00  0.00    +0.197 HD
BRANCH  15  17
ATOM     17  N   UNL     1      -0.876   3.171   2.700  0.00  0.00    -0.141 NA
ATOM     18  C   UNL     1      -1.324   3.873   3.701  0.00  0.00    +0.192 A 
ATOM     19  N   UNL     1      -2.625   3.995   4.163  0.00  0.00    -0.321 N 
ATOM     20  C   UNL     1      -2.889   4.801   5.261  0.00  0.00    +0.057 A 
ATOM     21  C   UNL     1      -4.135   5.037   5.864  0.00  0.00    +0.027 A 
ATOM     22  C   UNL     1      -4.248   5.871   6.952  0.00  0.00    +0.002 A 
ATOM     23  C   UNL     1      -3.141   6.505   7.487  0.00  0.00    +0.001 A 
ATOM     24  C   UNL     1      -1.899   6.290   6.913  0.00  0.00    +0.017 A 
ATOM     25  C   UNL     1      -1.786   5.456   5.826  0.00  0.00    +0.039 A 
ATOM     26  S   UNL     1      -0.420   4.927   4.822  0.00  0.00    -0.048 S 
ATOM     27  C   UNL     1      -3.714   3.274   3.500  0.00  0.00    +0.151 C 
ENDBRANCH  15  17
ENDBRANCH   1  15
TORSDOF 4
