REMARK  Name = ZINC27025721
REMARK  6 active torsions:
REMARK  status: ('A' for Active; 'I' for Inactive)
REMARK    1  A    between atoms: C_4  and  C_7
REMARK    2  A    between atoms: C_7  and  C_9
REMARK    3  A    between atoms: C_11  and  C_23
REMARK    4  A    between atoms: C_17  and  C_18
REMARK    5  A    between atoms: C_17  and  O_22
REMARK    6  A    between atoms: C_26  and  C_28
REMARK                            x       y       z     vdW  Elec       q    Type
REMARK                         _______ _______ _______ _____ _____    ______ ____
ROOT
ATOM      1  C   UNL     1      -1.127   3.014   0.731  0.00  0.00    +0.147 C 
ATOM      2  C   UNL     1      -0.008   3.794   0.034  0.00  0.00    +0.156 C 
ATOM      3  N   UNL     1       1.208   2.979   0.017  0.00  0.00    -0.289 N 
ATOM      4  C   UNL     1       1.149   1.639  -0.000  0.00  0.00    +0.302 C 
ATOM      5  O   UNL     1       2.189   1.009  -0.024  0.00  0.00    -0.253 OA
ATOM      6  N   UNL     1      -0.011   0.966   0.007  0.00  0.00    -0.264 N 
ATOM      7  C   UNL     1      -1.297   1.665   0.017  0.00  0.00    +0.243 C 
ATOM      8  H   UNL     1       2.195   3.464   0.019  0.00  0.00    +0.151 HD
ATOM      9  H   UNL     1       0.017  -0.134   0.006  0.00  0.00    +0.153 HD
ENDROOT
BRANCH   2  10
ATOM     10  C   UNL     1      -0.421   4.110  -1.381  0.00  0.00    +0.127 A 
ATOM     11  C   UNL     1      -0.901   5.293  -1.813  0.00  0.00    +0.047 A 
ATOM     12  C   UNL     1      -1.158   5.155  -3.192  0.00  0.00    +0.050 A 
ATOM     13  C   UNL     1      -0.816   3.883  -3.529  0.00  0.00    +0.137 A 
ATOM     14  O   UNL     1      -0.365   3.263  -2.421  0.00  0.00    -0.458 OA
BRANCH  13  15
ATOM     15  C   UNL     1      -0.916   3.286  -4.877  0.00  0.00    +0.037 A 
ATOM     16  C   UNL     1       0.176   2.615  -5.429  0.00  0.00    +0.033 A 
ATOM     17  C   UNL     1       0.076   2.059  -6.689  0.00  0.00    +0.042 A 
ATOM     18  C   UNL     1      -1.105   2.166  -7.404  0.00  0.00    +0.021 A 
ATOM     19  C   UNL     1      -2.191   2.830  -6.863  0.00  0.00    +0.022 A 
ATOM     20  C   UNL     1      -2.106   3.386  -5.602  0.00  0.00    +0.052 A 
ATOM     21 CL   UNL     1      -3.472   4.213  -4.922  0.00  0.00    -0.083 Cl
ATOM     22 CL   UNL     1       1.433   1.224  -7.377  0.00  0.00    -0.084 Cl
ENDBRANCH  13  15
ENDBRANCH   2  10
BRANCH   7  23
ATOM     23  C   UNL     1      -2.333   0.821   0.762  0.00  0.00    +0.436 C 
ATOM     24  F   UNL     1      -1.906   0.612   2.078  0.00  0.00    -0.166 F 
ATOM     25  F   UNL     1      -3.561   1.490   0.770  0.00  0.00    -0.166 F 
ATOM     26  F   UNL     1      -2.479  -0.413   0.118  0.00  0.00    -0.166 F 
ENDBRANCH   7  23
BRANCH   1  27
ATOM     27  C   UNL     1      -0.760   2.784   2.175  0.00  0.00    +0.173 C 
ATOM     28  O   UNL     1      -0.146   1.788   2.493  0.00  0.00    -0.292 OA
BRANCH  27  32
ATOM     29  C   UNL     1      -1.875   5.622   5.123  0.00  0.00    +0.000 A 
ATOM     30  C   UNL     1      -1.174   4.487   5.491  0.00  0.00    +0.001 A 
ATOM     31  C   UNL     1      -0.808   3.559   4.538  0.00  0.00    +0.011 A 
ATOM     32  C   UNL     1      -1.147   3.769   3.198  0.00  0.00    +0.018 A 
ATOM     33  C   UNL     1      -1.850   4.921   2.834  0.00  0.00    +0.011 A 
ATOM     34  C   UNL     1      -2.214   5.837   3.799  0.00  0.00    +0.001 A 
ENDBRANCH  27  32
ENDBRANCH   1  27
BRANCH   7  35
ATOM     35  O   UNL     1      -1.732   1.883  -1.326  0.00  0.00    -0.364 OA
ATOM     36  H   UNL     1      -1.908   1.026  -1.993  0.00  0.00    +0.212 HD
ENDBRANCH   7  35
TORSDOF 6
