REMARK  Name = ZINC41761497
REMARK  4 active torsions:
REMARK  status: ('A' for Active; 'I' for Inactive)
REMARK    1  A    between atoms: C_1  and  C_2
REMARK    2  A    between atoms: C_8  and  N_10
REMARK    3  A    between atoms: N_10  and  C_11
REMARK    4  A    between atoms: C_11  and  C_16
REMARK                            x       y       z     vdW  Elec       q    Type
REMARK                         _______ _______ _______ _____ _____    ______ ____
ROOT
ATOM      1  N   UNL     1       1.502  -0.065   1.960  0.00  0.00    +0.392 N 
ATOM      2  H   UNL     1       1.437  -0.192   0.961  0.00  0.00    -0.084 HD
ATOM      3  H   UNL     1       1.363   0.908   2.185  0.00  0.00    -0.084 HD
ENDROOT
BRANCH   1  10
ATOM      4  C   UNL     1      -1.203   0.939   2.236  0.00  0.00    +0.006 C 
ATOM      5  C   UNL     1      -0.898  -0.546   2.028  0.00  0.00    -0.028 C 
ATOM      6  C   UNL     1      -1.971  -1.389   2.720  0.00  0.00    +0.002 C 
ATOM      7  C   UNL     1      -1.979  -1.075   4.218  0.00  0.00    +0.000 C 
ATOM      8  C   UNL     1      -0.609  -1.403   4.815  0.00  0.00    -0.002 C 
ATOM      9  C   UNL     1       0.464  -0.560   4.122  0.00  0.00    -0.015 C 
ATOM     10  C   UNL     1       0.472  -0.874   2.625  0.00  0.00    -0.067 C 
ENDBRANCH   1  10
BRANCH   1  11
ATOM     11  C   UNL     1       2.831  -0.489   2.421  0.00  0.00    +0.036 C 
ATOM     12  C   UNL     1       3.079   0.019   3.852  0.00  0.00    -0.001 C 
ATOM     13  C   UNL     1       4.314   0.941   3.784  0.00  0.00    -0.001 C 
ATOM     14  C   UNL     1       4.358   1.410   2.309  0.00  0.00    -0.001 C 
ATOM     15  C   UNL     1       3.924   0.141   1.534  0.00  0.00    -0.001 C 
BRANCH  11  16
ATOM     16  C   UNL     1       2.936  -1.992   2.381  0.00  0.00    +0.345 C 
ATOM     17  O   UNL     1       2.543  -2.604   1.402  0.00  0.00    -0.248 OA
ATOM     18  O   UNL     1       3.413  -2.595   3.327  0.00  0.00    -0.248 OA
ENDBRANCH  11  16
ENDBRANCH   1  11
TORSDOF 3
