REMARK  Name = ZINC16565542
REMARK  6 active torsions:
REMARK  status: ('A' for Active; 'I' for Inactive)
REMARK    1  A    between atoms: C_4  and  N_28
REMARK    2  A    between atoms: C_5  and  N_7
REMARK    3  A    between atoms: N_10  and  C_13
REMARK    4  A    between atoms: C_13  and  C_14
REMARK    5  A    between atoms: N_16  and  C_17
REMARK    6  A    between atoms: C_18  and  C_25
REMARK                            x       y       z     vdW  Elec       q    Type
REMARK                         _______ _______ _______ _____ _____    ______ ____
ROOT
ATOM      1  C   UNL     1       4.160  -6.335  -1.003  0.00  0.00    +0.232 C 
ATOM      2  O   UNL     1       3.268  -6.255  -1.822  0.00  0.00    -0.274 OA
ATOM      3  N   UNL     1       5.104  -7.288  -1.127  0.00  0.00    -0.278 N 
ATOM      4  H   UNL     1       5.817  -7.353  -0.473  0.00  0.00    +0.155 HD
ENDROOT
BRANCH   3   5
ATOM      5  C   UNL     1       5.057  -8.177  -2.191  0.00  0.00    +0.084 A 
ATOM      6  C   UNL     1       5.929  -9.212  -2.473  0.00  0.00    +0.068 A 
ATOM      7  C   UNL     1       5.656 -10.012  -3.666  0.00  0.00    -0.023 A 
ATOM      8  C   UNL     1       4.565  -9.622  -4.349  0.00  0.00    -0.004 A 
ATOM      9  S   UNL     1       3.925  -8.248  -3.426  0.00  0.00    -0.077 S 
ATOM     10  C   UNL     1       4.332 -10.474  -5.568  0.00  0.00    +0.043 C 
ATOM     11  C   UNL     1       5.677 -11.197  -5.801  0.00  0.00    +0.010 C 
ATOM     12  C   UNL     1       6.279 -11.209  -4.381  0.00  0.00    +0.037 C 
BRANCH   6  13
ATOM     13  C   UNL     1       7.080  -9.497  -1.611  0.00  0.00    +0.244 C 
ATOM     14  O   UNL     1       6.966 -10.271  -0.678  0.00  0.00    -0.270 OA
ATOM     15  N   UNL     1       8.265  -8.902  -1.851  0.00  0.00    -0.325 N 
ATOM     16  H   UNL     1       8.356  -8.285  -2.594  0.00  0.00    +0.145 HD
ATOM     17  H   UNL     1       9.027  -9.090  -1.280  0.00  0.00    +0.145 HD
ENDBRANCH   6  13
ENDBRANCH   3   5
BRANCH   1  18
ATOM     18  C   UNL     1       4.211  -5.369   0.152  0.00  0.00    +0.181 C 
BRANCH  18  22
ATOM     19  N   UNL     1       1.665  -2.037  -0.023  0.00  0.00    -0.326 N 
ATOM     20  C   UNL     1       1.668  -2.811   1.228  0.00  0.00    +0.120 C 
ATOM     21  C   UNL     1       2.958  -3.636   1.287  0.00  0.00    +0.104 C 
ATOM     22  N   UNL     1       3.080  -4.436   0.062  0.00  0.00    -0.291 NA
ATOM     23  C   UNL     1       3.198  -3.579  -1.125  0.00  0.00    +0.104 C 
ATOM     24  C   UNL     1       1.912  -2.753  -1.284  0.00  0.00    +0.120 C 
BRANCH  19  29
ATOM     25  C   UNL     1       2.257   1.589   0.026  0.00  0.00    +0.002 A 
ATOM     26  C   UNL     1       0.959   2.066   0.005  0.00  0.00    +0.002 A 
ATOM     27  C   UNL     1      -0.105   1.183  -0.026  0.00  0.00    +0.034 A 
ATOM     28  C   UNL     1       0.126  -0.178  -0.036  0.00  0.00    +0.147 A 
ATOM     29  C   UNL     1       1.428  -0.661  -0.014  0.00  0.00    +0.060 A 
ATOM     30  C   UNL     1       2.495   0.229   0.017  0.00  0.00    +0.025 A 
BRANCH  28  31
ATOM     31  N   UNL     1      -1.014  -1.123  -0.068  0.00  0.00    +0.058 N 
ATOM     32  O   UNL     1      -2.146  -0.707   0.018  0.00  0.00    -0.126 OA
ATOM     33  O   UNL     1      -0.812  -2.309  -0.181  0.00  0.00    -0.126 OA
ENDBRANCH  28  31
ENDBRANCH  19  29
ENDBRANCH  18  22
ENDBRANCH   1  18
TORSDOF 6
