REMARK  Name = ZINC18350921
REMARK  11 active torsions:
REMARK  status: ('A' for Active; 'I' for Inactive)
REMARK    1  A    between atoms: C_1  and  C_2
REMARK    2  A    between atoms: C_2  and  C_27
REMARK    3  A    between atoms: N_5  and  C_9
REMARK    4  A    between atoms: C_9  and  C_10
REMARK    5  A    between atoms: N_12  and  C_13
REMARK    6  A    between atoms: C_13  and  C_15
REMARK    7  A    between atoms: C_13  and  C_22
REMARK    8  A    between atoms: C_30  and  C_33
REMARK    9  A    between atoms: C_33  and  C_34
REMARK   10  A    between atoms: C_33  and  C_35
REMARK   11  A    between atoms: C_33  and  C_36
REMARK                            x       y       z     vdW  Elec       q    Type
REMARK                         _______ _______ _______ _____ _____    ______ ____
ROOT
ATOM      1  C   UNL     1      -0.814   2.035  -1.183  0.00  0.00    +0.047 C 
ATOM      2  C   UNL     1      -0.018   1.503   0.010  0.00  0.00    +0.135 C 
ATOM      3  C   UNL     1      -0.594   2.021   1.313  0.00  0.00    +0.251 C 
ATOM      4  O   UNL     1      -1.710   1.830   1.748  0.00  0.00    -0.272 OA
ATOM      5  N   UNL     1       0.391   2.740   1.887  0.00  0.00    -0.215 N 
ATOM      6  C   UNL     1       1.498   2.747   1.135  0.00  0.00    +0.310 C 
ATOM      7  O   UNL     1       2.520   3.328   1.443  0.00  0.00    -0.252 OA
ATOM      8  N   UNL     1       1.353   2.040   0.000  0.00  0.00    -0.281 N 
ATOM      9  H   UNL     1       2.022   1.909  -0.691  0.00  0.00    +0.152 HD
ENDROOT
BRANCH   2  10
ATOM     10  C   UNL     1       0.002  -0.004   0.002  0.00  0.00    -0.015 A 
ATOM     11  C   UNL     1      -1.001  -0.712   0.637  0.00  0.00    +0.006 A 
ATOM     12  C   UNL     1      -0.984  -2.095   0.626  0.00  0.00    +0.004 A 
ATOM     13  C   UNL     1       0.040  -2.768  -0.013  0.00  0.00    -0.042 A 
ATOM     14  C   UNL     1       1.045  -2.060  -0.644  0.00  0.00    +0.004 A 
ATOM     15  C   UNL     1       1.027  -0.678  -0.636  0.00  0.00    +0.006 A 
BRANCH  13  16
ATOM     16  C   UNL     1       0.061  -4.275  -0.020  0.00  0.00    -0.013 C 
ATOM     17  C   UNL     1       1.342  -4.771   0.653  0.00  0.00    +0.015 C 
ATOM     18  C   UNL     1      -1.155  -4.806   0.742  0.00  0.00    +0.015 C 
ATOM     19  C   UNL     1       0.017  -4.778  -1.465  0.00  0.00    +0.015 C 
ENDBRANCH  13  16
ENDBRANCH   2  10
BRANCH   5  20
ATOM     20  C   UNL     1       0.266   3.428   3.174  0.00  0.00    +0.213 C 
BRANCH  20  21
ATOM     21  C   UNL     1      -0.239   4.830   2.946  0.00  0.00    +0.232 C 
ATOM     22  O   UNL     1      -0.470   5.216   1.820  0.00  0.00    -0.274 OA
ATOM     23  N   UNL     1      -0.432   5.655   3.995  0.00  0.00    -0.303 N 
ATOM     24  H   UNL     1      -0.247   5.346   4.895  0.00  0.00    +0.150 HD
BRANCH  23  25
ATOM     25  C   UNL     1      -0.922   7.017   3.774  0.00  0.00    +0.140 C 
BRANCH  25  26
ATOM     26  C   UNL     1      -0.490   7.899   4.917  0.00  0.00    -0.022 A 
ATOM     27  C   UNL     1      -0.526   7.417   6.213  0.00  0.00    +0.008 A 
ATOM     28  C   UNL     1      -0.125   8.222   7.261  0.00  0.00    +0.038 A 
ATOM     29  C   UNL     1       0.304   9.516   7.016  0.00  0.00    +0.123 A 
ATOM     30  C   UNL     1       0.335   9.999   5.718  0.00  0.00    +0.038 A 
ATOM     31  C   UNL     1      -0.062   9.190   4.671  0.00  0.00    +0.008 A 
ATOM     32  F   UNL     1       0.692  10.306   8.041  0.00  0.00    -0.205 F 
ENDBRANCH  25  26
BRANCH  25  33
ATOM     33  C   UNL     1      -2.427   7.003   3.692  0.00  0.00    +0.014 A 
ATOM     34  C   UNL     1      -3.244   7.698   2.864  0.00  0.00    +0.013 A 
ATOM     35  C   UNL     1      -4.611   7.524   2.969  0.00  0.00    +0.008 A 
ATOM     36  C   UNL     1      -5.095   6.663   3.897  0.00  0.00    +0.045 A 
ATOM     37  S   UNL     1      -3.596   6.060   4.657  0.00  0.00    -0.099 S 
ENDBRANCH  25  33
ENDBRANCH  23  25
ENDBRANCH  20  21
ENDBRANCH   5  20
TORSDOF 7
