REMARK  Name = ZINC27573756
REMARK  10 active torsions:
REMARK  status: ('A' for Active; 'I' for Inactive)
REMARK    1  A    between atoms: C_1  and  C_2
REMARK    2  A    between atoms: N_5  and  C_8
REMARK    3  A    between atoms: C_8  and  C_10
REMARK    4  A    between atoms: C_8  and  C_31
REMARK    5  A    between atoms: C_10  and  N_11
REMARK    6  A    between atoms: C_12  and  C_14
REMARK    7  A    between atoms: C_14  and  C_16
REMARK    8  A    between atoms: C_14  and  N_27
REMARK    9  A    between atoms: C_16  and  C_17
REMARK   10  A    between atoms: C_28  and  C_30
REMARK                            x       y       z     vdW  Elec       q    Type
REMARK                         _______ _______ _______ _____ _____    ______ ____
ROOT
ATOM      1  N   UNL     1      -0.195   0.070   0.028  0.00  0.00    -0.315 N 
ATOM      2  C   UNL     1      -0.325   1.409   0.110  0.00  0.00    +0.234 C 
ATOM      3  O   UNL     1      -1.423   1.904   0.253  0.00  0.00    -0.274 OA
ATOM      4  H   UNL     1       0.801  -0.379  -0.107  0.00  0.00    +0.149 HD
ENDROOT
BRANCH   1   5
ATOM      5  C   UNL     1      -1.379  -0.788   0.120  0.00  0.00    +0.094 C 
BRANCH   5   6
ATOM      6  C   UNL     1      -0.957  -2.254  -0.001  0.00  0.00    -0.013 C 
BRANCH   6  11
ATOM      7  C   UNL     1       2.330  -3.938   4.362  0.00  0.00    +0.007 C 
ATOM      8  C   UNL     1       1.146  -3.737   3.414  0.00  0.00    -0.018 C 
ATOM      9  C   UNL     1       1.512  -4.254   2.020  0.00  0.00    -0.015 C 
ATOM     10  C   UNL     1       0.347  -3.995   1.063  0.00  0.00    -0.078 C 
ATOM     11  N   UNL     1       0.064  -2.555   1.012  0.00  0.00    +0.386 N 
ATOM     12  C   UNL     1      -0.336  -2.045   2.330  0.00  0.00    -0.078 C 
ATOM     13  C   UNL     1       0.809  -2.246   3.325  0.00  0.00    -0.015 C 
ATOM     14  H   UNL     1       0.992  -2.041   0.722  0.00  0.00    -0.081 HD
ENDBRANCH   6  11
BRANCH   6  15
ATOM     15  C   UNL     1      -2.155  -3.141   0.215  0.00  0.00    -0.022 A 
ATOM     16  C   UNL     1      -2.847  -3.877  -0.689  0.00  0.00    +0.009 A 
ATOM     17  C   UNL     1      -3.925  -4.628  -0.258  0.00  0.00    +0.008 A 
ATOM     18  C   UNL     1      -4.264  -4.598   1.054  0.00  0.00    +0.045 A 
ATOM     19  S   UNL     1      -3.038  -3.490   1.728  0.00  0.00    -0.103 S 
ENDBRANCH   6  15
ENDBRANCH   5   6
ENDBRANCH   1   5
BRANCH   2  20
ATOM     20  C   UNL     1       0.893   2.291   0.016  0.00  0.00    +0.163 C 
BRANCH  20  21
ATOM     21  N   UNL     1       0.590   3.604   0.591  0.00  0.00    -0.304 N 
ATOM     22  C   UNL     1      -0.398   4.357   0.069  0.00  0.00    +0.211 C 
ATOM     23  O   UNL     1      -1.037   3.947  -0.877  0.00  0.00    -0.276 OA
ATOM     24  C   UNL     1      -0.710   5.707   0.661  0.00  0.00    +0.109 C 
ATOM     25  H   UNL     1       1.170   3.975   1.449  0.00  0.00    +0.149 HD
ENDBRANCH  20  21
BRANCH  20  26
ATOM     26  C   UNL     1       1.291   2.457  -1.452  0.00  0.00    +0.069 C 
BRANCH  26  27
ATOM     27  C   UNL     1       2.577   3.237  -1.539  0.00  0.00    -0.020 A 
ATOM     28  C   UNL     1       2.698   4.560  -1.732  0.00  0.00    +0.087 A 
ATOM     29  N   UNL     1       4.021   4.910  -1.752  0.00  0.00    -0.360 N 
ATOM     30  H   UNL     1       4.309   5.962  -1.895  0.00  0.00    +0.165 HD
ATOM     31  C   UNL     1       4.804   3.791  -1.576  0.00  0.00    +0.047 A 
ATOM     32  C   UNL     1       3.934   2.694  -1.435  0.00  0.00    +0.003 A 
ATOM     33  C   UNL     1       4.454   1.414  -1.240  0.00  0.00    +0.010 A 
ATOM     34  C   UNL     1       5.808   1.232  -1.187  0.00  0.00    +0.001 A 
ATOM     35  C   UNL     1       6.670   2.311  -1.327  0.00  0.00    +0.002 A 
ATOM     36  C   UNL     1       6.178   3.583  -1.520  0.00  0.00    +0.026 A 
ENDBRANCH  26  27
ENDBRANCH  20  26
ENDBRANCH   2  20
TORSDOF 8
