REMARK  Name = ZINC08917647
REMARK  7 active torsions:
REMARK  status: ('A' for Active; 'I' for Inactive)
REMARK    1  A    between atoms: C_1  and  C_2
REMARK    2  A    between atoms: C_2  and  C_3
REMARK    3  A    between atoms: C_12  and  C_14
REMARK    4  A    between atoms: N_16  and  C_17
REMARK    5  A    between atoms: C_18  and  C_26
REMARK    6  A    between atoms: N_28  and  C_29
REMARK    7  A    between atoms: C_29  and  C_30
REMARK                            x       y       z     vdW  Elec       q    Type
REMARK                         _______ _______ _______ _____ _____    ______ ____
ROOT
ATOM      1  C   UNL     1      -1.287  -0.733   0.011  0.00  0.00    +0.284 C 
ATOM      2  O   UNL     1      -2.334  -0.117   0.025  0.00  0.00    -0.266 OA
ATOM      3  N   UNL     1      -1.299  -2.081   0.004  0.00  0.00    -0.273 N 
ATOM      4  H   UNL     1      -0.463  -2.573  -0.007  0.00  0.00    +0.156 HD
ENDROOT
BRANCH   1  14
ATOM      5  C   UNL     1       4.870   1.059  -0.040  0.00  0.00    -0.047 A 
ATOM      6  C   UNL     1       4.752  -0.324  -0.046  0.00  0.00    +0.007 A 
ATOM      7  C   UNL     1       3.512  -0.924  -0.037  0.00  0.00    +0.047 A 
ATOM      8  C   UNL     1       2.362  -0.140  -0.021  0.00  0.00    +0.139 A 
ATOM      9  C   UNL     1       2.491   1.259  -0.015  0.00  0.00    +0.064 A 
ATOM     10  C   UNL     1       3.755   1.849  -0.024  0.00  0.00    +0.019 A 
ATOM     11  C   UNL     1       1.263   2.076   0.001  0.00  0.00    +0.193 A 
ATOM     12  O   UNL     1       1.306   3.294   0.007  0.00  0.00    -0.287 OA
ATOM     13  C   UNL     1      -0.016   1.351   0.009  0.00  0.00    +0.103 A 
ATOM     14  C   UNL     1       0.002  -0.004   0.002  0.00  0.00    +0.194 A 
ATOM     15  O   UNL     1       1.142  -0.710  -0.013  0.00  0.00    -0.450 OA
BRANCH   5  17
ATOM     16  C   UNL     1       6.686   1.916  -1.496  0.00  0.00    +0.009 C 
ATOM     17  C   UNL     1       6.237   1.694  -0.050  0.00  0.00    +0.032 C 
ENDBRANCH   5  17
ENDBRANCH   1  14
BRANCH   3  18
ATOM     18  C   UNL     1      -2.503  -2.763   0.012  0.00  0.00    +0.085 A 
ATOM     19  C   UNL     1      -2.719  -4.135   0.001  0.00  0.00    +0.069 A 
ATOM     20  C   UNL     1      -4.095  -4.598   0.019  0.00  0.00    -0.023 A 
ATOM     21  C   UNL     1      -5.030  -3.623   0.032  0.00  0.00    -0.004 A 
ATOM     22  S   UNL     1      -4.109  -2.112   0.031  0.00  0.00    -0.077 S 
ATOM     23  C   UNL     1      -6.518  -3.799   0.045  0.00  0.00    +0.043 C 
ATOM     24  C   UNL     1      -6.837  -5.251  -0.337  0.00  0.00    +0.005 C 
ATOM     25  C   UNL     1      -5.945  -6.185   0.486  0.00  0.00    +0.005 C 
ATOM     26  C   UNL     1      -4.494  -6.069   0.016  0.00  0.00    +0.037 C 
BRANCH  19  27
ATOM     27  C   UNL     1      -1.598  -5.080  -0.023  0.00  0.00    +0.247 C 
ATOM     28  O   UNL     1      -1.120  -5.483   1.021  0.00  0.00    -0.270 OA
ATOM     29  N   UNL     1      -1.098  -5.502  -1.201  0.00  0.00    -0.312 N 
ATOM     30  H   UNL     1      -1.479  -5.181  -2.033  0.00  0.00    +0.149 HD
BRANCH  29  31
ATOM     31  C   UNL     1       0.022  -6.447  -1.225  0.00  0.00    +0.101 C 
ATOM     32  C   UNL     1       0.393  -6.761  -2.675  0.00  0.00    +0.024 C 
ENDBRANCH  29  31
ENDBRANCH  19  27
ENDBRANCH   3  18
TORSDOF 5
