REMARK  Name = ZINC39362788
REMARK  8 active torsions:
REMARK  status: ('A' for Active; 'I' for Inactive)
REMARK    1  A    between atoms: C_1  and  C_2
REMARK    2  A    between atoms: C_5  and  N_9
REMARK    3  A    between atoms: C_10  and  C_12
REMARK    4  A    between atoms: C_12  and  S_13
REMARK    5  A    between atoms: S_13  and  C_14
REMARK    6  A    between atoms: C_17  and  C_27
REMARK    7  A    between atoms: N_19  and  C_20
REMARK    8  A    between atoms: C_27  and  C_28
REMARK                            x       y       z     vdW  Elec       q    Type
REMARK                         _______ _______ _______ _____ _____    ______ ____
ROOT
ATOM      1  C   UNL     1       0.627  -8.709   2.630  0.00  0.00    +0.180 C 
ATOM      2  N   UNL     1       0.623  -9.316   1.492  0.00  0.00    -0.162 NA
ATOM      3  N   UNL     1       0.713 -10.704   1.651  0.00  0.00    -0.246 N 
ATOM      4  C   UNL     1       0.780 -10.948   3.102  0.00  0.00    +0.187 C 
ATOM      5  N   UNL     1       0.726  -9.599   3.690  0.00  0.00    -0.258 N 
ATOM      6  H   UNL     1       0.727 -11.372   0.947  0.00  0.00    +0.170 HD
ENDROOT
BRANCH   5   7
ATOM      7  C   UNL     1       0.763  -9.277   5.051  0.00  0.00    +0.038 A 
ATOM      8  C   UNL     1       1.917  -9.508   5.789  0.00  0.00    +0.026 A 
ATOM      9  C   UNL     1       1.952  -9.190   7.132  0.00  0.00    +0.040 A 
ATOM     10  C   UNL     1       0.837  -8.641   7.744  0.00  0.00    +0.124 A 
ATOM     11  C   UNL     1      -0.315  -8.411   7.011  0.00  0.00    +0.040 A 
ATOM     12  C   UNL     1      -0.352  -8.722   5.665  0.00  0.00    +0.026 A 
ATOM     13  F   UNL     1       0.873  -8.332   9.059  0.00  0.00    -0.205 F 
ENDBRANCH   5   7
BRANCH   1  14
ATOM     14  S   UNL     1       0.528  -6.959   2.816  0.00  0.00    -0.079 S 
BRANCH  14  15
ATOM     15  C   UNL     1       0.420  -6.343   1.114  0.00  0.00    +0.173 C 
BRANCH  15  17
ATOM     16  N   UNL     1       0.239  -4.157  -0.030  0.00  0.00    -0.285 N 
ATOM     17  C   UNL     1       0.329  -4.839   1.129  0.00  0.00    +0.227 C 
ATOM     18  O   UNL     1       0.336  -4.241   2.185  0.00  0.00    -0.275 OA
ATOM     19  H   UNL     1       0.158  -4.636  -0.870  0.00  0.00    +0.155 HD
BRANCH  16  24
ATOM     20  C   UNL     1       0.337   1.516   0.001  0.00  0.00    +0.045 C 
ATOM     21  C   UNL     1       0.311   0.009  -0.008  0.00  0.00    -0.032 A 
ATOM     22  C   UNL     1       1.038  -0.699   0.932  0.00  0.00    +0.006 A 
ATOM     23  C   UNL     1       1.016  -2.080   0.927  0.00  0.00    +0.023 A 
ATOM     24  C   UNL     1       0.263  -2.758  -0.023  0.00  0.00    +0.035 A 
ATOM     25  C   UNL     1      -0.466  -2.045  -0.966  0.00  0.00    +0.043 A 
ATOM     26  C   UNL     1      -0.444  -0.663  -0.952  0.00  0.00    +0.046 A 
ATOM     27 CL   UNL     1      -1.360   0.230  -2.126  0.00  0.00    -0.083 Cl
ENDBRANCH  16  24
ENDBRANCH  15  17
ENDBRANCH  14  15
ENDBRANCH   1  14
BRANCH   4  28
ATOM     28  C   UNL     1      -0.412 -11.791   3.561  0.00  0.00    +0.097 C 
BRANCH  28  29
ATOM     29  C   UNL     1      -0.310 -13.171   2.965  0.00  0.00    +0.029 A 
ATOM     30  N   UNL     1      -0.787 -13.412   1.705  0.00  0.00    -0.311 N 
ATOM     31  C   UNL     1      -0.701 -14.640   1.163  0.00  0.00    +0.327 A 
ATOM     32  O   UNL     1      -1.131 -14.832   0.042  0.00  0.00    -0.247 OA
ATOM     33  N   UNL     1      -0.145 -15.659   1.844  0.00  0.00    -0.275 N 
ATOM     34  C   UNL     1       0.337 -15.463   3.088  0.00  0.00    +0.254 A 
ATOM     35  O   UNL     1       0.840 -16.384   3.704  0.00  0.00    -0.268 OA
ATOM     36  C   UNL     1       0.257 -14.174   3.668  0.00  0.00    +0.091 A 
ATOM     37  H   UNL     1      -0.091 -16.539   1.438  0.00  0.00    +0.173 HD
ATOM     38  H   UNL     1      -1.192 -12.690   1.198  0.00  0.00    +0.170 HD
ENDBRANCH  28  29
ENDBRANCH   4  28
TORSDOF 7
