REMARK  Name = ZINC06442456
REMARK  7 active torsions:
REMARK  status: ('A' for Active; 'I' for Inactive)
REMARK    1  A    between atoms: C_1  and  C_2
REMARK    2  A    between atoms: C_7  and  C_15
REMARK    3  A    between atoms: C_13  and  C_14
REMARK    4  A    between atoms: C_15  and  C_17
REMARK    5  A    between atoms: C_15  and  N_66
REMARK    6  A    between atoms: N_21  and  C_22
REMARK    7  A    between atoms: C_30  and  C_33
REMARK                            x       y       z     vdW  Elec       q    Type
REMARK                         _______ _______ _______ _____ _____    ______ ____
ROOT
ATOM      1  C   UNL     1       3.510   0.737  -0.027  0.00  0.00    +0.039 C 
ENDROOT
BRANCH   1   8
ATOM      2  C   UNL     1       7.277   1.699  -6.992  0.00  0.00    +0.044 C 
ATOM      3  C   UNL     1       6.625   1.292  -5.696  0.00  0.00    -0.046 A 
ATOM      4  C   UNL     1       6.681  -0.033  -5.285  0.00  0.00    +0.004 A 
ATOM      5  C   UNL     1       6.097  -0.422  -4.113  0.00  0.00    +0.010 A 
ATOM      6  C   UNL     1       5.436   0.521  -3.320  0.00  0.00    -0.001 A 
ATOM      7  C   UNL     1       4.804   0.140  -2.055  0.00  0.00    +0.017 A 
ATOM      8  C   UNL     1       4.174   1.097  -1.331  0.00  0.00    +0.011 A 
ATOM      9  C   UNL     1       4.143   2.431  -1.791  0.00  0.00    +0.251 A 
ATOM     10  O   UNL     1       3.575   3.277  -1.122  0.00  0.00    -0.268 OA
ATOM     11  N   UNL     1       4.724   2.792  -2.948  0.00  0.00    -0.322 N 
ATOM     12  H   UNL     1       4.684   3.718  -3.235  0.00  0.00    +0.169 HD
ATOM     13  C   UNL     1       5.376   1.865  -3.734  0.00  0.00    +0.052 A 
ATOM     14  C   UNL     1       5.978   2.239  -4.931  0.00  0.00    -0.024 A 
ATOM     15  C   UNL     1       5.923   3.673  -5.390  0.00  0.00    +0.046 C 
ENDBRANCH   1   8
BRANCH   1  22
ATOM     16  C   UNL     1       3.279   1.397   2.291  0.00  0.00    -0.077 C 
ATOM     17  C   UNL     1       3.725   2.426   3.332  0.00  0.00    -0.015 C 
ATOM     18  C   UNL     1       5.231   2.285   3.568  0.00  0.00    -0.018 C 
ATOM     19  C   UNL     1       5.968   2.471   2.238  0.00  0.00    -0.015 C 
ATOM     20  C   UNL     1       5.456   1.440   1.229  0.00  0.00    -0.077 C 
ATOM     21  C   UNL     1       5.694   3.351   4.562  0.00  0.00    +0.007 C 
ATOM     22  N   UNL     1       4.006   1.645   1.028  0.00  0.00    +0.389 N 
ATOM     23  H   UNL     1       3.844   2.615   0.735  0.00  0.00    -0.080 HD
ENDBRANCH   1  22
BRANCH   1  24
ATOM     24  C   UNL     1       2.019   0.907  -0.159  0.00  0.00    +0.143 A 
ATOM     25  N   UNL     1       1.359   2.039  -0.177  0.00  0.00    -0.115 NA
ATOM     26  N   UNL     1       0.106   1.768  -0.303  0.00  0.00    -0.023 NA
ATOM     27  N   UNL     1      -0.051   0.492  -0.367  0.00  0.00    -0.044 NA
ATOM     28  N   UNL     1       1.105  -0.074  -0.281  0.00  0.00    -0.227 N 
BRANCH  28  29
ATOM     29  C   UNL     1       1.374  -1.514  -0.312  0.00  0.00    +0.111 C 
ATOM     30  C   UNL     1       0.877  -2.098  -1.636  0.00  0.00    +0.027 C 
ATOM     31  C   UNL     1       1.157  -3.601  -1.668  0.00  0.00    +0.002 C 
ATOM     32  C   UNL     1       0.430  -4.281  -0.506  0.00  0.00    +0.000 C 
ATOM     33  C   UNL     1       0.928  -3.697   0.818  0.00  0.00    +0.002 C 
ATOM     34  C   UNL     1       0.647  -2.193   0.850  0.00  0.00    +0.027 C 
ENDBRANCH  28  29
ENDBRANCH   1  24
TORSDOF 4
