REMARK  Name = ZINC22716126
REMARK  3 active torsions:
REMARK  status: ('A' for Active; 'I' for Inactive)
REMARK    1  A    between atoms: C_1  and  C_2
REMARK    2  A    between atoms: C_33  and  N_37
REMARK    3  A    between atoms: C_34  and  C_35
REMARK                            x       y       z     vdW  Elec       q    Type
REMARK                         _______ _______ _______ _____ _____    ______ ____
ROOT
ATOM      1  C   UNL     1      -0.019   1.525   0.010  0.00  0.00    +0.012 C 
ATOM      2  C   UNL     1       0.002  -0.004   0.002  0.00  0.00    +0.020 C 
ATOM      3  C   UNL     1      -1.437  -0.527   0.024  0.00  0.00    +0.034 C 
ATOM      4  C   UNL     1      -1.478  -2.071  -0.001  0.00  0.00    +0.043 C 
ATOM      5  C   UNL     1      -2.945  -2.467   0.035  0.00  0.00    +0.026 C 
ATOM      6  C   UNL     1      -3.233  -3.905  -0.359  0.00  0.00    +0.002 C 
ATOM      7  C   UNL     1      -2.533  -4.261  -1.673  0.00  0.00    +0.000 C 
ATOM      8  C   UNL     1      -1.029  -4.034  -1.503  0.00  0.00    +0.002 C 
ATOM      9  C   UNL     1      -0.784  -2.543  -1.273  0.00  0.00    +0.026 C 
ATOM     10  N   UNL     1      -0.734  -2.542   1.179  0.00  0.00    -0.263 N 
ATOM     11  C   UNL     1       0.284  -1.749   1.721  0.00  0.00    +0.045 A 
ATOM     12  C   UNL     1       0.711  -0.516   1.222  0.00  0.00    -0.023 A 
ATOM     13  C   UNL     1       1.736   0.110   1.887  0.00  0.00    +0.006 A 
ATOM     14  C   UNL     1       2.304  -0.459   3.018  0.00  0.00    +0.001 A 
ATOM     15  C   UNL     1       1.881  -1.686   3.522  0.00  0.00    +0.007 A 
ATOM     16  C   UNL     1       0.864  -2.323   2.844  0.00  0.00    -0.001 A 
ATOM     17  C   UNL     1       0.158  -3.627   3.029  0.00  0.00    +0.148 C 
ATOM     18  C   UNL     1      -0.840  -3.681   1.879  0.00  0.00    +0.241 C 
ATOM     19  O   UNL     1      -1.579  -4.619   1.671  0.00  0.00    -0.273 OA
ATOM     20  C   UNL     1      -0.581  -3.665   4.336  0.00  0.00    +0.104 A 
ATOM     21  C   UNL     1      -0.176  -4.500   5.337  0.00  0.00    +0.152 A 
ATOM     22  C   UNL     1      -0.954  -4.510   6.586  0.00  0.00    +0.060 A 
ATOM     23  C   UNL     1      -0.599  -5.345   7.647  0.00  0.00    +0.015 A 
ATOM     24  C   UNL     1      -1.351  -5.337   8.801  0.00  0.00    +0.001 A 
ATOM     25  C   UNL     1      -2.453  -4.502   8.911  0.00  0.00    +0.004 A 
ATOM     26  C   UNL     1      -2.812  -3.670   7.872  0.00  0.00    +0.047 A 
ATOM     27  C   UNL     1      -2.068  -3.663   6.698  0.00  0.00    +0.143 A 
ATOM     28  O   UNL     1      -2.408  -2.851   5.676  0.00  0.00    -0.422 OA
ATOM     29  C   UNL     1      -1.696  -2.836   4.542  0.00  0.00    +0.346 A 
ATOM     30  O   UNL     1      -2.033  -2.067   3.659  0.00  0.00    -0.245 OA
ATOM     31  O   UNL     1       0.901  -5.294   5.207  0.00  0.00    -0.440 OA
ATOM     32  C   UNL     1       1.430  -5.535   3.995  0.00  0.00    +0.199 C 
ATOM     33  C   UNL     1       1.117  -4.776   2.917  0.00  0.00    +0.110 C 
ENDROOT
BRANCH  32  34
ATOM     34  N   UNL     1       2.311  -6.579   3.845  0.00  0.00    -0.328 N 
ATOM     35  H   UNL     1       2.544  -7.130   4.608  0.00  0.00    +0.145 HD
ATOM     36  H   UNL     1       2.699  -6.764   2.975  0.00  0.00    +0.145 HD
ENDBRANCH  32  34
BRANCH  33  37
ATOM     37  C   UNL     1       1.720  -5.078   1.652  0.00  0.00    +0.102 C 
ATOM     38  N   UNL     1       2.198  -5.317   0.649  0.00  0.00    -0.191 NA
ENDBRANCH  33  37
TORSDOF 2
