REMARK  Name = ZINC09382062
REMARK  6 active torsions:
REMARK  status: ('A' for Active; 'I' for Inactive)
REMARK    1  A    between atoms: C_5  and  C_7
REMARK    2  A    between atoms: C_7  and  S_8
REMARK    3  A    between atoms: S_8  and  C_9
REMARK    4  A    between atoms: C_12  and  C_21
REMARK    5  A    between atoms: N_13  and  C_14
REMARK    6  A    between atoms: C_21  and  C_22
REMARK                            x       y       z     vdW  Elec       q    Type
REMARK                         _______ _______ _______ _____ _____    ______ ____
ROOT
ATOM      1  C   UNL     1      -3.700   4.344   3.491  0.00  0.00    +0.196 A 
ATOM      2  N   UNL     1      -3.017   5.449   3.297  0.00  0.00    -0.122 NA
ATOM      3  N   UNL     1      -2.543   5.466   2.102  0.00  0.00    -0.133 NA
ATOM      4  C   UNL     1      -2.891   4.383   1.466  0.00  0.00    +0.144 A 
ATOM      5  N   UNL     1      -3.646   3.630   2.326  0.00  0.00    -0.274 N 
ENDROOT
BRANCH   5   6
ATOM      6  C   UNL     1      -4.238   2.385   2.066  0.00  0.00    +0.050 A 
ATOM      7  C   UNL     1      -5.247   2.279   1.119  0.00  0.00    +0.029 A 
ATOM      8  C   UNL     1      -5.826   1.052   0.862  0.00  0.00    +0.040 A 
ATOM      9  C   UNL     1      -5.407  -0.071   1.555  0.00  0.00    +0.124 A 
ATOM     10  C   UNL     1      -4.403   0.033   2.504  0.00  0.00    +0.040 A 
ATOM     11  C   UNL     1      -3.819   1.258   2.760  0.00  0.00    +0.029 A 
ATOM     12  F   UNL     1      -5.977  -1.270   1.306  0.00  0.00    -0.205 F 
ENDBRANCH   5   6
BRANCH   1  13
ATOM     13  S   UNL     1      -4.534   3.874   4.970  0.00  0.00    -0.081 S 
BRANCH  13  14
ATOM     14  C   UNL     1      -4.153   5.304   6.013  0.00  0.00    +0.115 C 
BRANCH  14  19
ATOM     15  C   UNL     1      -6.643   5.409   8.849  0.00  0.00    +0.000 A 
ATOM     16  C   UNL     1      -5.941   4.777   9.859  0.00  0.00    +0.003 A 
ATOM     17  C   UNL     1      -4.659   4.316   9.626  0.00  0.00    +0.038 A 
ATOM     18  C   UNL     1      -4.079   4.486   8.380  0.00  0.00    +0.127 A 
ATOM     19  C   UNL     1      -4.784   5.118   7.370  0.00  0.00    -0.002 A 
ATOM     20  C   UNL     1      -6.063   5.584   7.607  0.00  0.00    +0.007 A 
ATOM     21  F   UNL     1      -2.826   4.036   8.150  0.00  0.00    -0.205 F 
ENDBRANCH  14  19
ENDBRANCH  13  14
ENDBRANCH   1  13
BRANCH   4  22
ATOM     22  C   UNL     1      -2.534   4.028   0.045  0.00  0.00    +0.130 C 
BRANCH  22  23
ATOM     23  C   UNL     1      -1.236   3.261   0.030  0.00  0.00    +0.033 A 
ATOM     24  C   UNL     1      -1.246   1.911   0.018  0.00  0.00    +0.091 A 
ATOM     25  C   UNL     1      -0.014   1.214   0.009  0.00  0.00    +0.254 A 
ATOM     26  O   UNL     1       0.002  -0.004   0.002  0.00  0.00    -0.268 OA
ATOM     27  N   UNL     1       1.140   1.910   0.001  0.00  0.00    -0.275 N 
ATOM     28  H   UNL     1       2.014   1.424  -0.010  0.00  0.00    +0.173 HD
ATOM     29  C   UNL     1       1.121   3.256   0.009  0.00  0.00    +0.327 A 
ATOM     30  O   UNL     1       2.170   3.870   0.003  0.00  0.00    -0.247 OA
ATOM     31  N   UNL     1      -0.043   3.930   0.023  0.00  0.00    -0.311 N 
ATOM     32  H   UNL     1      -0.035   4.931   0.028  0.00  0.00    +0.170 HD
ENDBRANCH  22  23
ENDBRANCH   4  22
TORSDOF 6
