REMARK  Name = ZINC23691195
REMARK  9 active torsions:
REMARK  status: ('A' for Active; 'I' for Inactive)
REMARK    1  A    between atoms: C_1  and  C_2
REMARK    2  A    between atoms: C_2  and  C_3
REMARK    3  A    between atoms: C_2  and  O_4
REMARK    4  A    between atoms: O_4  and  C_5
REMARK    5  A    between atoms: C_5  and  C_7
REMARK    6  A    between atoms: C_10  and  N_13
REMARK    7  A    between atoms: C_14  and  C_16
REMARK    8  A    between atoms: C_19  and  N_21
REMARK    9  A    between atoms: C_22  and  C_24
REMARK                            x       y       z     vdW  Elec       q    Type
REMARK                         _______ _______ _______ _____ _____    ______ ____
ROOT
ATOM      1  N   UNL     1      -4.935   3.963   0.048  0.00  0.00    -0.281 N 
ATOM      2  C   UNL     1      -4.955   5.307   0.158  0.00  0.00    +0.255 C 
ATOM      3  O   UNL     1      -3.911   5.933   0.157  0.00  0.00    -0.269 OA
ATOM      4  H   UNL     1      -5.879   3.405  -0.039  0.00  0.00    +0.155 HD
ENDROOT
BRANCH   1   8
ATOM      5  C   UNL     1      -1.302   1.929   0.038  0.00  0.00    +0.059 A 
ATOM      6  C   UNL     1      -2.374   1.453  -0.724  0.00  0.00    +0.017 A 
ATOM      7  C   UNL     1      -3.575   2.126  -0.715  0.00  0.00    +0.024 A 
ATOM      8  C   UNL     1      -3.720   3.283   0.044  0.00  0.00    +0.034 A 
ATOM      9  C   UNL     1      -2.654   3.762   0.800  0.00  0.00    +0.024 A 
ATOM     10  C   UNL     1      -1.452   3.092   0.799  0.00  0.00    +0.017 A 
BRANCH   5  11
ATOM     11  C   UNL     1      -0.016   1.208   0.034  0.00  0.00    +0.339 C 
ATOM     12  O   UNL     1       0.916   1.625   0.693  0.00  0.00    -0.245 OA
BRANCH  11  13
ATOM     13  O   UNL     1       0.125   0.085  -0.696  0.00  0.00    -0.458 OA
BRANCH  13  15
ATOM     14  C   UNL     1       1.230  -2.080  -0.849  0.00  0.00    +0.052 C 
ATOM     15  C   UNL     1       1.418  -0.576  -0.647  0.00  0.00    +0.171 C 
ATOM     16  C   UNL     1       2.315  -0.021  -1.755  0.00  0.00    +0.052 C 
ENDBRANCH  13  15
ENDBRANCH  11  13
ENDBRANCH   5  11
ENDBRANCH   1   8
BRANCH   2  17
ATOM     17  C   UNL     1      -6.192   5.990   0.274  0.00  0.00    +0.076 A 
ATOM     18  C   UNL     1      -6.428   7.353   0.396  0.00  0.00    +0.022 A 
ATOM     19  C   UNL     1      -7.732   7.758   0.492  0.00  0.00    +0.032 A 
ATOM     20  C   UNL     1      -8.727   6.804   0.464  0.00  0.00    +0.073 A 
ATOM     21  S   UNL     1      -7.845   5.321   0.294  0.00  0.00    -0.069 S 
BRANCH  20  22
ATOM     22  N   UNL     1     -10.100   6.987   0.545  0.00  0.00    -0.273 N 
ATOM     23  C   UNL     1     -10.926   5.922   0.500  0.00  0.00    +0.284 C 
ATOM     24  O   UNL     1     -10.467   4.801   0.386  0.00  0.00    -0.266 OA
ATOM     25  H   UNL     1     -10.515   8.000   0.648  0.00  0.00    +0.156 HD
BRANCH  23  26
ATOM     26  C   UNL     1     -12.376   6.116   0.586  0.00  0.00    +0.189 A 
ATOM     27  C   UNL     1     -13.321   5.130   0.552  0.00  0.00    +0.054 A 
ATOM     28  C   UNL     1     -14.569   5.762   0.664  0.00  0.00    +0.042 A 
ATOM     29  C   UNL     1     -14.335   7.090   0.761  0.00  0.00    +0.196 A 
ATOM     30  O   UNL     1     -13.012   7.298   0.719  0.00  0.00    -0.458 OA
ENDBRANCH  23  26
ENDBRANCH  20  22
ENDBRANCH   2  17
TORSDOF 7
