REMARK  Name = ZINC36028180
REMARK  11 active torsions:
REMARK  status: ('A' for Active; 'I' for Inactive)
REMARK    1  A    between atoms: C_1  and  C_2
REMARK    2  A    between atoms: C_2  and  C_3
REMARK    3  A    between atoms: C_3  and  C_5
REMARK    4  A    between atoms: C_3  and  C_6
REMARK    5  A    between atoms: C_6  and  N_7
REMARK    6  A    between atoms: C_10  and  C_30
REMARK    7  A    between atoms: N_16  and  S_19
REMARK    8  A    between atoms: S_19  and  C_22
REMARK    9  A    between atoms: C_30  and  C_32
REMARK   10  A    between atoms: C_30  and  C_33
REMARK   11  A    between atoms: C_33  and  C_34
REMARK                            x       y       z     vdW  Elec       q    Type
REMARK                         _______ _______ _______ _____ _____    ______ ____
ROOT
ATOM      1  N   UNL     1      -2.705  -2.555  -0.060  0.00  0.00    -0.313 N 
ATOM      2  C   UNL     1      -3.515  -2.739   1.003  0.00  0.00    +0.201 C 
ATOM      3  O   UNL     1      -3.230  -2.511   2.160  0.00  0.00    -0.277 OA
ATOM      4  C   UNL     1      -4.841  -3.277   0.509  0.00  0.00    +0.022 C 
ATOM      5  N   UNL     1      -4.846  -2.992  -0.946  0.00  0.00    +0.401 N 
ATOM      6  C   UNL     1      -3.410  -2.944  -1.285  0.00  0.00    +0.006 C 
ATOM      7  C   UNL     1      -2.946  -4.324  -1.746  0.00  0.00    +0.023 C 
ATOM      8  C   UNL     1      -1.447  -4.278  -2.061  0.00  0.00    +0.109 C 
ATOM      9  N   UNL     1      -1.200  -3.196  -3.023  0.00  0.00    -0.177 NA
ATOM     10  C   UNL     1      -1.675  -1.843  -2.703  0.00  0.00    +0.109 C 
ATOM     11  C   UNL     1      -3.172  -1.909  -2.383  0.00  0.00    +0.023 C 
ATOM     12  H   UNL     1      -5.309  -3.732  -1.452  0.00  0.00    -0.082 HD
ATOM     13  H   UNL     1      -5.283  -2.102  -1.134  0.00  0.00    -0.082 HD
ENDROOT
BRANCH   9  14
ATOM     14  S   UNL     1      -0.400  -3.495  -4.442  0.00  0.00    +0.061 S 
ATOM     15  O   UNL     1       0.164  -2.259  -4.859  0.00  0.00    -0.153 OA
ATOM     16  O   UNL     1       0.388  -4.658  -4.226  0.00  0.00    -0.153 OA
BRANCH  14  17
ATOM     17  C   UNL     1      -1.614  -3.926  -5.644  0.00  0.00    +0.107 A 
ATOM     18  C   UNL     1      -1.987  -5.247  -5.807  0.00  0.00    +0.030 A 
ATOM     19  C   UNL     1      -2.939  -5.586  -6.750  0.00  0.00    +0.023 A 
ATOM     20  C   UNL     1      -3.520  -4.603  -7.531  0.00  0.00    +0.059 A 
ATOM     21  C   UNL     1      -3.147  -3.280  -7.367  0.00  0.00    +0.061 A 
ATOM     22  C   UNL     1      -2.198  -2.942  -6.419  0.00  0.00    +0.050 A 
ATOM     23 CL   UNL     1      -3.876  -2.045  -8.346  0.00  0.00    -0.082 Cl
ATOM     24 CL   UNL     1      -4.715  -5.028  -8.715  0.00  0.00    -0.082 Cl
ENDBRANCH  14  17
ENDBRANCH   9  14
BRANCH   4  25
ATOM     25  C   UNL     1      -5.999  -2.554   1.200  0.00  0.00    -0.020 C 
ATOM     26  C   UNL     1      -7.328  -3.088   0.660  0.00  0.00    +0.006 C 
BRANCH  25  27
ATOM     27  C   UNL     1      -5.927  -2.800   2.708  0.00  0.00    -0.001 C 
ATOM     28  C   UNL     1      -7.009  -1.978   3.411  0.00  0.00    +0.004 C 
ENDBRANCH  25  27
ENDBRANCH   4  25
BRANCH   1  29
ATOM     29  C   UNL     1      -1.335  -2.041   0.000  0.00  0.00    +0.109 C 
BRANCH  29  30
ATOM     30  C   UNL     1      -1.366  -0.533   0.256  0.00  0.00    +0.003 C 
ATOM     31  C   UNL     1      -2.304   0.135  -0.751  0.00  0.00    +0.009 C 
BRANCH  30  33
ATOM     32  C   UNL     1       0.035   1.523   0.476  0.00  0.00    +0.004 C 
ATOM     33  C   UNL     1       0.043   0.041   0.099  0.00  0.00    +0.001 C 
ENDBRANCH  30  33
ENDBRANCH  29  30
ENDBRANCH   1  29
TORSDOF 7
