REMARK  Name = ZINC21240965
REMARK  11 active torsions:
REMARK  status: ('A' for Active; 'I' for Inactive)
REMARK    1  A    between atoms: C_1  and  C_2
REMARK    2  A    between atoms: C_2  and  O_3
REMARK    3  A    between atoms: O_3  and  C_4
REMARK    4  A    between atoms: C_7  and  C_12
REMARK    5  A    between atoms: C_9  and  O_10
REMARK    6  A    between atoms: O_10  and  C_11
REMARK    7  A    between atoms: C_17  and  C_22
REMARK    8  A    between atoms: C_25  and  O_28
REMARK    9  A    between atoms: O_28  and  C_29
REMARK   10  A    between atoms: C_29  and  C_30
REMARK   11  A    between atoms: C_29  and  C_31
REMARK                            x       y       z     vdW  Elec       q    Type
REMARK                         _______ _______ _______ _____ _____    ______ ____
ROOT
ATOM      1  C   UNL     1       0.264  -1.711  -0.343  0.00  0.00    +0.136 C 
ATOM      2  C   UNL     1       1.531  -0.897  -0.472  0.00  0.00    +0.036 C 
ATOM      3  C   UNL     1       1.614   0.442  -0.433  0.00  0.00    +0.017 C 
ATOM      4  C   UNL     1       2.958   1.132  -0.609  0.00  0.00    +0.059 C 
ATOM      5  C   UNL     1       4.068   0.264  -0.018  0.00  0.00    +0.032 C 
ATOM      6  C   UNL     1       4.061  -1.074  -0.767  0.00  0.00    +0.088 C 
ATOM      7  C   UNL     1       2.696  -1.681  -0.647  0.00  0.00    +0.163 C 
ATOM      8  O   UNL     1       2.586  -2.890  -0.702  0.00  0.00    -0.292 OA
ATOM      9  N   UNL     1       0.569   1.286  -0.238  0.00  0.00    -0.316 N 
ATOM     10  C   UNL     1      -0.650   1.203  -0.911  0.00  0.00    +0.052 A 
ATOM     11  C   UNL     1      -1.110   2.210  -1.740  0.00  0.00    +0.025 A 
ATOM     12  C   UNL     1      -2.366   2.098  -2.311  0.00  0.00    +0.002 A 
ATOM     13  C   UNL     1      -3.150   0.987  -2.056  0.00  0.00    +0.002 A 
ATOM     14  C   UNL     1      -2.681  -0.031  -1.245  0.00  0.00    +0.025 A 
ATOM     15  C   UNL     1      -1.417   0.070  -0.685  0.00  0.00    +0.049 A 
ATOM     16  N   UNL     1      -0.888  -0.953   0.097  0.00  0.00    -0.331 N 
ATOM     17  H   UNL     1       0.651   2.104   0.493  0.00  0.00    +0.152 HD
ATOM     18  H   UNL     1      -1.360  -1.182   1.064  0.00  0.00    +0.147 HD
ENDROOT
BRANCH   1  22
ATOM     19  C   UNL     1      -0.627  -3.444  -4.150  0.00  0.00    +0.162 A 
ATOM     20  C   UNL     1      -0.623  -2.067  -3.996  0.00  0.00    +0.050 A 
ATOM     21  C   UNL     1      -0.335  -1.510  -2.764  0.00  0.00    +0.009 A 
ATOM     22  C   UNL     1      -0.050  -2.324  -1.684  0.00  0.00    -0.019 A 
ATOM     23  C   UNL     1      -0.047  -3.698  -1.832  0.00  0.00    +0.055 A 
ATOM     24  C   UNL     1      -0.340  -4.263  -3.063  0.00  0.00    +0.162 A 
BRANCH  24  25
ATOM     25  O   UNL     1      -0.342  -5.615  -3.209  0.00  0.00    -0.491 OA
ATOM     26  C   UNL     1      -0.039  -6.394  -2.050  0.00  0.00    +0.277 C 
ENDBRANCH  24  25
BRANCH  19  27
ATOM     27  O   UNL     1      -0.909  -3.993  -5.362  0.00  0.00    -0.489 OA
BRANCH  27  29
ATOM     28  C   UNL     1      -1.485  -3.887  -7.707  0.00  0.00    +0.048 C 
ATOM     29  C   UNL     1      -1.193  -3.091  -6.433  0.00  0.00    +0.226 C 
ENDBRANCH  27  29
ENDBRANCH  19  27
ENDBRANCH   1  22
BRANCH   5  30
ATOM     30  C   UNL     1       5.400   0.945  -0.202  0.00  0.00    -0.043 A 
ATOM     31  C   UNL     1       5.840   1.270  -1.471  0.00  0.00    +0.007 A 
ATOM     32  C   UNL     1       7.058   1.899  -1.642  0.00  0.00    +0.046 A 
ATOM     33  C   UNL     1       7.845   2.195  -0.538  0.00  0.00    +0.121 A 
ATOM     34  C   UNL     1       7.404   1.863   0.735  0.00  0.00    +0.046 A 
ATOM     35  C   UNL     1       6.182   1.239   0.900  0.00  0.00    +0.007 A 
BRANCH  33  36
ATOM     36  O   UNL     1       9.046   2.809  -0.703  0.00  0.00    -0.489 OA
BRANCH  36  37
ATOM     37  C   UNL     1       9.747   3.192   0.482  0.00  0.00    +0.167 C 
ATOM     38  C   UNL     1      10.567   2.006   0.995  0.00  0.00    +0.051 C 
ATOM     39  C   UNL     1      10.684   4.360   0.166  0.00  0.00    +0.051 C 
ENDBRANCH  36  37
ENDBRANCH  33  36
ENDBRANCH   5  30
TORSDOF 7
