REMARK  Name = ZINC07236821
REMARK  8 active torsions:
REMARK  status: ('A' for Active; 'I' for Inactive)
REMARK    1  A    between atoms: C_1  and  C_2
REMARK    2  A    between atoms: C_2  and  C_3
REMARK    3  A    between atoms: C_2  and  N_4
REMARK    4  A    between atoms: C_14  and  S_15
REMARK    5  A    between atoms: S_15  and  C_16
REMARK    6  A    between atoms: C_16  and  C_17
REMARK    7  A    between atoms: N_19  and  N_20
REMARK    8  A    between atoms: C_21  and  C_23
REMARK                            x       y       z     vdW  Elec       q    Type
REMARK                         _______ _______ _______ _____ _____    ______ ____
ROOT
ATOM      1  S   UNL     1      -2.656  -2.897   0.012  0.00  0.00    -0.078 S 
ENDROOT
BRANCH   1  12
ATOM      2  N   UNL     1       0.036  -2.766  -0.012  0.00  0.00    -0.285 N 
ATOM      3  C   UNL     1       1.239  -2.146  -0.021  0.00  0.00    +0.263 A 
ATOM      4  O   UNL     1       2.277  -2.782  -0.034  0.00  0.00    -0.267 OA
ATOM      5  C   UNL     1       1.245  -0.677  -0.013  0.00  0.00    +0.065 A 
ATOM      6  C   UNL     1       2.432   0.055  -0.021  0.00  0.00    +0.015 A 
ATOM      7  C   UNL     1       2.381   1.422  -0.013  0.00  0.00    +0.001 A 
ATOM      8  C   UNL     1       1.161   2.086   0.002  0.00  0.00    +0.002 A 
ATOM      9  C   UNL     1      -0.017   1.394   0.010  0.00  0.00    +0.028 A 
ATOM     10  C   UNL     1       0.002  -0.004   0.002  0.00  0.00    +0.079 A 
ATOM     11  N   UNL     1      -1.136  -0.726   0.009  0.00  0.00    -0.223 NA
ATOM     12  C   UNL     1      -1.119  -2.036   0.002  0.00  0.00    +0.173 A 
BRANCH   2  14
ATOM     13  C   UNL     1       0.658  -4.764  -1.278  0.00  0.00    +0.031 C 
ATOM     14  C   UNL     1      -0.028  -4.229  -0.019  0.00  0.00    +0.087 C 
ATOM     15  C   UNL     1       0.682  -4.777   1.221  0.00  0.00    +0.031 C 
ENDBRANCH   2  14
ENDBRANCH   1  12
BRANCH   1  16
ATOM     16  C   UNL     1      -3.801  -1.496   0.030  0.00  0.00    +0.174 C 
BRANCH  16  17
ATOM     17  C   UNL     1      -5.219  -2.005   0.041  0.00  0.00    +0.239 C 
ATOM     18  O   UNL     1      -5.434  -3.199   0.037  0.00  0.00    -0.273 OA
ATOM     19  N   UNL     1      -6.248  -1.135   0.055  0.00  0.00    -0.233 N 
ATOM     20  H   UNL     1      -6.076  -0.180   0.058  0.00  0.00    +0.173 HD
BRANCH  19  21
ATOM     21  N   UNL     1      -7.566  -1.609   0.065  0.00  0.00    -0.228 N 
ATOM     22  C   UNL     1      -8.595  -0.739   0.079  0.00  0.00    +0.295 C 
ATOM     23  O   UNL     1      -8.379   0.459   0.083  0.00  0.00    -0.265 OA
ATOM     24  H   UNL     1      -7.739  -2.564   0.061  0.00  0.00    +0.173 HD
BRANCH  22  25
ATOM     25  C   UNL     1      -9.975  -1.235   0.089  0.00  0.00    +0.190 A 
ATOM     26  C   UNL     1     -11.104  -0.467   0.103  0.00  0.00    +0.054 A 
ATOM     27  C   UNL     1     -12.194  -1.351   0.108  0.00  0.00    +0.042 A 
ATOM     28  C   UNL     1     -11.689  -2.604   0.097  0.00  0.00    +0.196 A 
ATOM     29  O   UNL     1     -10.352  -2.530   0.080  0.00  0.00    -0.458 OA
ENDBRANCH  22  25
ENDBRANCH  19  21
ENDBRANCH  16  17
ENDBRANCH   1  16
TORSDOF 6
