REMARK  Name = ZINC51096567
REMARK  5 active torsions:
REMARK  status: ('A' for Active; 'I' for Inactive)
REMARK    1  A    between atoms: C_1  and  C_2
REMARK    2  A    between atoms: C_8  and  N_10
REMARK    3  A    between atoms: C_11  and  C_13
REMARK    4  A    between atoms: C_15  and  N_20
REMARK    5  A    between atoms: N_20  and  N_21
REMARK                            x       y       z     vdW  Elec       q    Type
REMARK                         _______ _______ _______ _____ _____    ______ ____
ROOT
ATOM      1  C   UNL     1       0.044   0.571   4.821  0.00  0.00    +0.043 A 
ATOM      2  C   UNL     1       0.734   0.720   6.026  0.00  0.00    +0.057 A 
ATOM      3  C   UNL     1       0.044   1.171   7.145  0.00  0.00    +0.134 A 
ATOM      4  N   UNL     1      -1.247   1.457   7.074  0.00  0.00    -0.220 NA
ATOM      5  C   UNL     1      -1.930   1.329   5.952  0.00  0.00    +0.132 A 
ATOM      6  C   UNL     1      -1.317   0.891   4.794  0.00  0.00    +0.053 A 
ATOM      7 CL   UNL     1      -3.620   1.722   5.931  0.00  0.00    -0.062 Cl
ENDROOT
BRANCH   1   9
ATOM      8  N   UNL     1       0.056  -0.038   2.447  0.00  0.00    -0.308 N 
ATOM      9  C   UNL     1       0.738   0.093   3.602  0.00  0.00    +0.244 C 
ATOM     10  O   UNL     1       1.921  -0.180   3.644  0.00  0.00    -0.270 OA
ATOM     11  H   UNL     1      -0.888   0.180   2.413  0.00  0.00    +0.149 HD
BRANCH   8  18
ATOM     12  C   UNL     1      -0.019   1.526   0.010  0.00  0.00    +0.009 C 
ATOM     13  C   UNL     1       0.002  -0.004   0.002  0.00  0.00    +0.006 C 
ATOM     14  C   UNL     1      -1.433  -0.534   0.013  0.00  0.00    +0.005 C 
ATOM     15  C   UNL     1      -1.413  -2.063   0.004  0.00  0.00    +0.000 C 
ATOM     16  C   UNL     1      -0.673  -2.570   1.244  0.00  0.00    +0.002 C 
ATOM     17  C   UNL     1       0.763  -2.041   1.233  0.00  0.00    +0.022 C 
ATOM     18  C   UNL     1       0.742  -0.511   1.242  0.00  0.00    +0.076 C 
ENDBRANCH   8  18
ENDBRANCH   1   9
BRANCH   3  19
ATOM     19  N   UNL     1       0.717   1.324   8.352  0.00  0.00    -0.267 N 
ATOM     20  H   UNL     1       1.662   1.116   8.410  0.00  0.00    +0.167 HD
BRANCH  19  21
ATOM     21  N   UNL     1       0.046   1.767   9.457  0.00  0.00    -0.255 NA
ATOM     22  H   UNL     1      -0.749   1.179   9.657  0.00  0.00    +0.140 HD
ATOM     23  H   UNL     1       0.662   1.828  10.253  0.00  0.00    +0.140 HD
ENDBRANCH  19  21
ENDBRANCH   3  19
TORSDOF 4
