REMARK  Name = ZINC00925496
REMARK  11 active torsions:
REMARK  status: ('A' for Active; 'I' for Inactive)
REMARK    1  A    between atoms: C_1  and  C_2
REMARK    2  A    between atoms: C_2  and  O_3
REMARK    3  A    between atoms: O_3  and  C_4
REMARK    4  A    between atoms: C_11  and  C_16
REMARK    5  A    between atoms: C_16  and  N_17
REMARK    6  A    between atoms: N_17  and  C_18
REMARK    7  A    between atoms: N_17  and  S_26
REMARK    8  A    between atoms: C_18  and  C_19
REMARK    9  A    between atoms: C_19  and  C_20
REMARK   10  A    between atoms: S_26  and  C_29
REMARK   11  A    between atoms: C_30  and  C_38
REMARK                            x       y       z     vdW  Elec       q    Type
REMARK                         _______ _______ _______ _____ _____    ______ ____
ROOT
ATOM      1  N   UNL     1      -0.829   0.065   0.056  0.00  0.00    -0.172 NA
ENDROOT
BRANCH   1   2
ATOM      2  S   UNL     1      -1.891  -0.999  -0.639  0.00  0.00    +0.064 S 
ATOM      3  O   UNL     1      -1.888  -2.165   0.174  0.00  0.00    -0.153 OA
ATOM      4  O   UNL     1      -3.076  -0.266  -0.917  0.00  0.00    -0.153 OA
BRANCH   2   5
ATOM      5  C   UNL     1      -1.213  -1.469  -2.196  0.00  0.00    +0.136 A 
ATOM      6  C   UNL     1      -0.459  -2.590  -2.296  0.00  0.00    -0.022 A 
ATOM      7  C   UNL     1       0.092  -2.993  -3.512  0.00  0.00    +0.007 A 
ATOM      8  C   UNL     1      -0.102  -2.281  -4.648  0.00  0.00    +0.031 A 
ATOM      9  C   UNL     1      -0.882  -1.096  -4.619  0.00  0.00    +0.102 A 
ATOM     10  C   UNL     1      -1.463  -0.677  -3.347  0.00  0.00    +0.126 A 
ATOM     11  N   UNL     1      -2.172   0.444  -3.466  0.00  0.00    -0.189 NA
ATOM     12  S   UNL     1      -2.088   0.857  -4.975  0.00  0.00    +0.117 S 
ATOM     13  N   UNL     1      -1.191  -0.262  -5.609  0.00  0.00    -0.191 NA
ATOM     14  C   UNL     1      -0.211  -3.422  -1.064  0.00  0.00    +0.046 C 
ENDBRANCH   2   5
ENDBRANCH   1   2
BRANCH   1  15
ATOM     15  C   UNL     1       0.252  -0.432   0.911  0.00  0.00    +0.150 C 
BRANCH  15  23
ATOM     16  C   UNL     1      -2.048  -1.997   6.451  0.00  0.00    +0.121 A 
ATOM     17  C   UNL     1      -1.792  -0.775   7.069  0.00  0.00    +0.047 A 
ATOM     18  C   UNL     1      -1.198   0.253   6.373  0.00  0.00    +0.030 A 
ATOM     19  C   UNL     1      -0.847   0.077   5.038  0.00  0.00    +0.049 A 
ATOM     20  C   UNL     1      -1.103  -1.156   4.410  0.00  0.00    +0.002 A 
ATOM     21  C   UNL     1      -1.708  -2.193   5.128  0.00  0.00    +0.055 A 
ATOM     22  C   UNL     1      -0.733  -1.326   3.003  0.00  0.00    +0.020 A 
ATOM     23  C   UNL     1      -0.145  -0.288   2.357  0.00  0.00    +0.033 A 
ATOM     24  C   UNL     1       0.090   0.928   3.034  0.00  0.00    +0.254 A 
ATOM     25  O   UNL     1       0.616   1.849   2.433  0.00  0.00    -0.268 OA
ATOM     26  N   UNL     1      -0.250   1.096   4.323  0.00  0.00    -0.322 N 
ATOM     27  H   UNL     1      -0.068   1.971   4.771  0.00  0.00    +0.169 HD
BRANCH  16  28
ATOM     28  O   UNL     1      -2.636  -3.001   7.154  0.00  0.00    -0.492 OA
BRANCH  28  30
ATOM     29  C   UNL     1      -3.612  -3.971   9.141  0.00  0.00    +0.048 C 
ATOM     30  C   UNL     1      -2.963  -2.733   8.519  0.00  0.00    +0.225 C 
ENDBRANCH  28  30
ENDBRANCH  16  28
ENDBRANCH  15  23
ENDBRANCH   1  15
BRANCH   1  31
ATOM     31  C   UNL     1      -0.970   1.503  -0.185  0.00  0.00    +0.114 C 
BRANCH  31  32
ATOM     32  C   UNL     1      -1.861   2.116   0.897  0.00  0.00    +0.052 C 
BRANCH  32  33
ATOM     33  C   UNL     1      -2.113   3.567   0.578  0.00  0.00    -0.046 A 
ATOM     34  C   UNL     1      -1.260   4.540   1.064  0.00  0.00    +0.003 A 
ATOM     35  C   UNL     1      -1.488   5.870   0.767  0.00  0.00    +0.000 A 
ATOM     36  C   UNL     1      -2.575   6.229  -0.007  0.00  0.00    +0.000 A 
ATOM     37  C   UNL     1      -3.432   5.257  -0.488  0.00  0.00    +0.000 A 
ATOM     38  C   UNL     1      -3.201   3.926  -0.196  0.00  0.00    +0.003 A 
ENDBRANCH  32  33
ENDBRANCH  31  32
ENDBRANCH   1  31
TORSDOF 9
