REMARK  Name = ZINC14655046
REMARK  11 active torsions:
REMARK  status: ('A' for Active; 'I' for Inactive)
REMARK    1  A    between atoms: C_1  and  C_2
REMARK    2  A    between atoms: C_2  and  O_3
REMARK    3  A    between atoms: O_3  and  C_4
REMARK    4  A    between atoms: C_9  and  C_10
REMARK    5  A    between atoms: N_12  and  N_13
REMARK    6  A    between atoms: C_14  and  C_16
REMARK    7  A    between atoms: C_16  and  O_17
REMARK    8  A    between atoms: O_17  and  C_18
REMARK    9  A    between atoms: C_21  and  C_25
REMARK   10  A    between atoms: C_25  and  C_26
REMARK   11  A    between atoms: C_25  and  C_27
REMARK                            x       y       z     vdW  Elec       q    Type
REMARK                         _______ _______ _______ _____ _____    ______ ____
ROOT
ATOM      1  N   UNL     1       3.910  -2.192  -0.049  0.00  0.00    -0.231 N 
ATOM      2  C   UNL     1       3.714  -0.859  -0.040  0.00  0.00    +0.267 C 
ATOM      3  O   UNL     1       4.664  -0.105  -0.044  0.00  0.00    -0.271 OA
ATOM      4  H   UNL     1       3.150  -2.794  -0.045  0.00  0.00    +0.173 HD
ENDROOT
BRANCH   1   7
ATOM      5  C   UNL     1       5.409  -4.041  -0.074  0.00  0.00    +0.264 C 
ATOM      6  O   UNL     1       4.456  -4.796  -0.069  0.00  0.00    -0.269 OA
ATOM      7  N   UNL     1       5.213  -2.708  -0.065  0.00  0.00    -0.230 N 
ATOM      8  H   UNL     1       5.973  -2.106  -0.069  0.00  0.00    +0.173 HD
BRANCH   5  14
ATOM      9  C   UNL     1       6.990  -5.970  -0.101  0.00  0.00    +0.133 A 
ATOM     10  C   UNL     1       8.283  -6.470  -0.117  0.00  0.00    +0.047 A 
ATOM     11  C   UNL     1       9.360  -5.606  -0.123  0.00  0.00    +0.019 A 
ATOM     12  C   UNL     1       9.158  -4.235  -0.113  0.00  0.00    +0.019 A 
ATOM     13  C   UNL     1       7.878  -3.720  -0.102  0.00  0.00    +0.032 A 
ATOM     14  C   UNL     1       6.781  -4.585  -0.091  0.00  0.00    +0.081 A 
ATOM     15 BR   UNL     1      10.643  -3.064  -0.122  0.00  0.00    -0.050 Br
BRANCH   9  16
ATOM     16  O   UNL     1       5.931  -6.819  -0.094  0.00  0.00    -0.491 OA
BRANCH  16  18
ATOM     17  C   UNL     1       4.912  -9.010  -0.096  0.00  0.00    +0.048 C 
ATOM     18  C   UNL     1       6.221  -8.218  -0.105  0.00  0.00    +0.226 C 
ENDBRANCH  16  18
ENDBRANCH   9  16
ENDBRANCH   5  14
ENDBRANCH   1   7
BRANCH   2  19
ATOM     19  C   UNL     1       2.313  -0.304  -0.023  0.00  0.00    +0.326 C 
BRANCH  19  20
ATOM     20  O   UNL     1       2.366   1.124  -0.015  0.00  0.00    -0.482 OA
BRANCH  20  21
ATOM     21  C   UNL     1       1.179   1.786   0.000  0.00  0.00    +0.135 A 
ATOM     22  C   UNL     1      -0.013   1.076   0.008  0.00  0.00    +0.047 A 
ATOM     23  C   UNL     1      -1.218   1.751   0.017  0.00  0.00    +0.007 A 
ATOM     24  C   UNL     1      -1.238   3.133   0.030  0.00  0.00    -0.044 A 
ATOM     25  C   UNL     1      -0.052   3.844   0.023  0.00  0.00    +0.022 A 
ATOM     26  C   UNL     1       1.157   3.174   0.008  0.00  0.00    +0.060 A 
ATOM     27 BR   UNL     1       2.778   4.147  -0.003  0.00  0.00    -0.047 Br
BRANCH  24  28
ATOM     28  C   UNL     1      -2.554   3.866   0.046  0.00  0.00    +0.013 C 
ATOM     29  C   UNL     1      -3.362   3.491  -1.198  0.00  0.00    +0.012 C 
ATOM     30  C   UNL     1      -3.339   3.478   1.301  0.00  0.00    +0.012 C 
ENDBRANCH  24  28
ENDBRANCH  20  21
ENDBRANCH  19  20
ENDBRANCH   2  19
TORSDOF 8
