REMARK  Name = ZINC63708230
REMARK  11 active torsions:
REMARK  status: ('A' for Active; 'I' for Inactive)
REMARK    1  A    between atoms: C_1  and  C_2
REMARK    2  A    between atoms: C_2  and  C_3
REMARK    3  A    between atoms: C_3  and  C_5
REMARK    4  A    between atoms: C_3  and  S_14
REMARK    5  A    between atoms: N_7  and  C_8
REMARK    6  A    between atoms: S_14  and  C_15
REMARK    7  A    between atoms: C_27  and  C_29
REMARK    8  A    between atoms: C_29  and  C_30
REMARK    9  A    between atoms: C_30  and  C_31
REMARK   10  A    between atoms: C_32  and  C_38
REMARK   11  A    between atoms: C_35  and  C_37
REMARK                            x       y       z     vdW  Elec       q    Type
REMARK                         _______ _______ _______ _____ _____    ______ ____
ROOT
ATOM      1  C   UNL     1      -2.593   1.572   1.678  0.00  0.00    +0.249 C 
ATOM      2  N   UNL     1      -3.519   1.820   0.566  0.00  0.00    -0.356 N 
ATOM      3  C   UNL     1      -3.175   2.665  -0.396  0.00  0.00    +0.048 A 
ATOM      4  C   UNL     1      -4.049   2.920  -1.476  0.00  0.00    +0.026 A 
ATOM      5  C   UNL     1      -3.677   3.790  -2.451  0.00  0.00    +0.002 A 
ATOM      6  C   UNL     1      -2.448   4.444  -2.416  0.00  0.00    +0.001 A 
ATOM      7  C   UNL     1      -1.560   4.242  -1.403  0.00  0.00    +0.013 A 
ATOM      8  C   UNL     1      -1.881   3.355  -0.362  0.00  0.00    +0.038 A 
ATOM      9  C   UNL     1      -0.976   3.133   0.695  0.00  0.00    +0.128 C 
ATOM     10  N   UNL     1      -1.306   2.264   1.701  0.00  0.00    -0.204 N 
ATOM     11  N   UNL     1      -0.221   2.257   2.587  0.00  0.00    -0.249 N 
ATOM     12  C   UNL     1       0.697   3.109   2.079  0.00  0.00    +0.090 C 
ATOM     13  N   UNL     1       0.241   3.621   0.964  0.00  0.00    -0.332 N 
ATOM     14  H   UNL     1      -0.144   1.742   3.405  0.00  0.00    +0.171 HD
ATOM     15  H   UNL     1      -4.377   1.369   0.535  0.00  0.00    +0.162 HD
ATOM     16  H   UNL     1       0.718   4.260   0.412  0.00  0.00    +0.168 HD
ENDROOT
BRANCH   1  17
ATOM     17  S   UNL     1      -2.255  -0.210   1.718  0.00  0.00    -0.103 S 
BRANCH  17  18
ATOM     18  C   UNL     1      -1.202  -0.489   0.268  0.00  0.00    +0.135 C 
BRANCH  18  19
ATOM     19  C   UNL     1      -2.024  -0.341  -0.986  0.00  0.00    +0.226 C 
ATOM     20  O   UNL     1      -3.232  -0.437  -0.934  0.00  0.00    -0.275 OA
ATOM     21  N   UNL     1      -1.417  -0.103  -2.166  0.00  0.00    -0.312 N 
ATOM     22  H   UNL     1      -0.451  -0.027  -2.207  0.00  0.00    +0.149 HD
BRANCH  21  23
ATOM     23  C   UNL     1      -2.217   0.041  -3.385  0.00  0.00    +0.073 C 
ATOM     24  C   UNL     1      -2.498  -1.342  -3.976  0.00  0.00    +0.022 C 
ATOM     25  C   UNL     1      -3.333  -1.192  -5.249  0.00  0.00    +0.002 C 
ATOM     26  C   UNL     1      -2.563  -0.349  -6.268  0.00  0.00    +0.000 C 
ATOM     27  C   UNL     1      -2.282   1.034  -5.677  0.00  0.00    +0.002 C 
ATOM     28  C   UNL     1      -1.447   0.883  -4.403  0.00  0.00    +0.022 C 
ENDBRANCH  21  23
ENDBRANCH  18  19
BRANCH  18  30
ATOM     29  C   UNL     1       0.329  -2.009   1.529  0.00  0.00    +0.005 C 
ATOM     30  C   UNL     1      -0.614  -1.901   0.329  0.00  0.00    +0.020 C 
ENDBRANCH  18  30
ENDBRANCH  17  18
ENDBRANCH   1  17
BRANCH  12  31
ATOM     31  C   UNL     1       2.034   3.422   2.699  0.00  0.00    +0.075 C 
BRANCH  31  32
ATOM     32  C   UNL     1       3.084   2.443   2.170  0.00  0.00    +0.042 C 
BRANCH  32  33
ATOM     33  C   UNL     1       4.421   2.756   2.791  0.00  0.00    -0.021 C 
ATOM     34  C   UNL     1       4.978   2.199   3.868  0.00  0.00    +0.061 C 
ATOM     35  N   UNL     1       6.189   2.745   4.118  0.00  0.00    -0.159 NA
ATOM     36  N   UNL     1       6.529   3.624   3.323  0.00  0.00    -0.180 NA
ATOM     37  C   UNL     1       5.450   3.774   2.331  0.00  0.00    +0.153 C 
ATOM     38  C   UNL     1       4.869   5.189   2.377  0.00  0.00    +0.039 C 
ATOM     39  C   UNL     1       4.343   1.110   4.694  0.00  0.00    +0.067 C 
ENDBRANCH  32  33
ENDBRANCH  31  32
ENDBRANCH  12  31
TORSDOF 8
