REMARK  Name = ZINC08845388
REMARK  11 active torsions:
REMARK  status: ('A' for Active; 'I' for Inactive)
REMARK    1  A    between atoms: C_1  and  C_2
REMARK    2  A    between atoms: C_4  and  O_39
REMARK    3  A    between atoms: C_5  and  C_9
REMARK    4  A    between atoms: N_17  and  C_27
REMARK    5  A    between atoms: C_18  and  C_20
REMARK    6  A    between atoms: C_27  and  C_28
REMARK    7  A    between atoms: C_28  and  C_29
REMARK    8  A    between atoms: C_32  and  O_37
REMARK    9  A    between atoms: C_33  and  O_35
REMARK   10  A    between atoms: O_35  and  C_36
REMARK   11  A    between atoms: O_37  and  C_38
REMARK                            x       y       z     vdW  Elec       q    Type
REMARK                         _______ _______ _______ _____ _____    ______ ____
ROOT
ATOM      1  C   UNL     1      -0.114  -4.052   0.140  0.00  0.00    +0.102 A 
ATOM      2  C   UNL     1       0.055  -5.008   1.147  0.00  0.00    +0.035 A 
ATOM      3  C   UNL     1       0.277  -6.206   0.496  0.00  0.00    +0.126 A 
ATOM      4  N   UNL     1       0.233  -5.925  -0.841  0.00  0.00    -0.272 N 
ATOM      5  H   UNL     1       0.356  -6.575  -1.550  0.00  0.00    +0.189 HD
ATOM      6  N   UNL     1      -0.000  -4.673  -1.017  0.00  0.00    -0.173 NA
ATOM      7  C   UNL     1       0.463  -7.257   1.502  0.00  0.00    +0.265 C 
ATOM      8  O   UNL     1       0.678  -8.427   1.252  0.00  0.00    -0.268 OA
ATOM      9  N   UNL     1       0.361  -6.742   2.741  0.00  0.00    -0.285 N 
ATOM     10  C   UNL     1       0.100  -5.302   2.622  0.00  0.00    +0.144 C 
ENDROOT
BRANCH   1  15
ATOM     11  C   UNL     1      -1.148   1.566   0.910  0.00  0.00    +0.045 C 
ATOM     12  C   UNL     1      -0.877   0.098   0.706  0.00  0.00    -0.029 A 
ATOM     13  C   UNL     1      -0.663  -0.392  -0.569  0.00  0.00    +0.050 A 
ATOM     14  C   UNL     1      -0.414  -1.741  -0.761  0.00  0.00    +0.126 A 
ATOM     15  C   UNL     1      -0.380  -2.605   0.338  0.00  0.00    +0.045 A 
ATOM     16  C   UNL     1      -0.596  -2.102   1.618  0.00  0.00    +0.034 A 
ATOM     17  C   UNL     1      -0.838  -0.754   1.797  0.00  0.00    +0.045 A 
ATOM     18 CL   UNL     1      -1.102  -0.127   3.394  0.00  0.00    -0.083 Cl
BRANCH  14  19
ATOM     19  O   UNL     1      -0.204  -2.224  -2.014  0.00  0.00    -0.506 OA
ATOM     20  H   UNL     1       0.723  -2.216  -2.288  0.00  0.00    +0.292 HD
ENDBRANCH  14  19
ENDBRANCH   1  15
BRANCH  10  21
ATOM     21  C   UNL     1       1.209  -4.517   3.273  0.00  0.00    +0.013 A 
ATOM     22  C   UNL     1       2.213  -3.966   2.500  0.00  0.00    +0.008 A 
ATOM     23  C   UNL     1       3.230  -3.246   3.098  0.00  0.00    +0.001 A 
ATOM     24  C   UNL     1       3.244  -3.076   4.470  0.00  0.00    +0.003 A 
ATOM     25  C   UNL     1       2.241  -3.625   5.245  0.00  0.00    +0.039 A 
ATOM     26  C   UNL     1       1.219  -4.343   4.647  0.00  0.00    +0.129 A 
ATOM     27  F   UNL     1       0.235  -4.876   5.403  0.00  0.00    -0.205 F 
ENDBRANCH  10  21
BRANCH   9  28
ATOM     28  C   UNL     1       0.490  -7.490   3.994  0.00  0.00    +0.114 C 
BRANCH  28  29
ATOM     29  C   UNL     1       1.969  -7.609   4.368  0.00  0.00    +0.054 C 
BRANCH  29  30
ATOM     30  C   UNL     1       2.096  -8.295   5.703  0.00  0.00    -0.042 A 
ATOM     31  C   UNL     1       2.095  -7.547   6.866  0.00  0.00    +0.007 A 
ATOM     32  C   UNL     1       2.212  -8.172   8.094  0.00  0.00    +0.049 A 
ATOM     33  C   UNL     1       2.329  -9.551   8.161  0.00  0.00    +0.161 A 
ATOM     34  C   UNL     1       2.330 -10.304   6.991  0.00  0.00    +0.162 A 
ATOM     35  C   UNL     1       2.208  -9.672   5.764  0.00  0.00    +0.053 A 
BRANCH  34  36
ATOM     36  O   UNL     1       2.445 -11.658   7.051  0.00  0.00    -0.491 OA
ATOM     37  C   UNL     1       2.438 -12.366   5.810  0.00  0.00    +0.277 C 
ENDBRANCH  34  36
BRANCH  33  38
ATOM     38  O   UNL     1       2.445 -10.167   9.368  0.00  0.00    -0.491 OA
ATOM     39  C   UNL     1       2.437  -9.331  10.526  0.00  0.00    +0.277 C 
ENDBRANCH  33  38
ENDBRANCH  29  30
ENDBRANCH  28  29
ENDBRANCH   9  28
TORSDOF 8
