REMARK  Name = ZINC12566535
REMARK  11 active torsions:
REMARK  status: ('A' for Active; 'I' for Inactive)
REMARK    1  A    between atoms: C_1  and  C_2
REMARK    2  A    between atoms: C_6  and  N_8
REMARK    3  A    between atoms: N_8  and  C_9
REMARK    4  A    between atoms: C_9  and  N_11
REMARK    5  A    between atoms: N_11  and  C_12
REMARK    6  A    between atoms: N_11  and  C_19
REMARK    7  A    between atoms: C_12  and  C_13
REMARK    8  A    between atoms: C_13  and  N_65
REMARK    9  A    between atoms: C_19  and  C_20
REMARK   10  A    between atoms: C_24  and  C_33
REMARK   11  A    between atoms: C_25  and  C_32
REMARK                            x       y       z     vdW  Elec       q    Type
REMARK                         _______ _______ _______ _____ _____    ______ ____
ROOT
ATOM      1  N   UNL     1      -5.746   4.055  -1.278  0.00  0.00    -0.310 N 
ENDROOT
BRANCH   1   2
ATOM      2  C   UNL     1      -5.416   5.150  -1.990  0.00  0.00    +0.137 C 
ATOM      3  S   UNL     1      -4.732   6.508  -1.205  0.00  0.00    -0.018 S 
BRANCH   2   4
ATOM      4  N   UNL     1      -5.625   5.176  -3.322  0.00  0.00    -0.297 N 
ATOM      5  H   UNL     1      -5.938   4.379  -3.779  0.00  0.00    +0.154 HD
BRANCH   4  11
ATOM      6  C   UNL     1      -3.858   7.394  -7.337  0.00  0.00    +0.044 C 
ATOM      7  C   UNL     1      -4.537   7.455  -5.993  0.00  0.00    -0.049 A 
ATOM      8  C   UNL     1      -4.929   8.675  -5.472  0.00  0.00    +0.003 A 
ATOM      9  C   UNL     1      -5.552   8.735  -4.239  0.00  0.00    +0.002 A 
ATOM     10  C   UNL     1      -5.789   7.576  -3.526  0.00  0.00    +0.023 A 
ATOM     11  C   UNL     1      -5.391   6.351  -4.044  0.00  0.00    +0.033 A 
ATOM     12  C   UNL     1      -4.766   6.293  -5.283  0.00  0.00    +0.026 A 
ENDBRANCH   4  11
ENDBRANCH   2   4
ENDBRANCH   1   2
BRANCH   1  13
ATOM     13  C   UNL     1      -6.332   2.892  -1.950  0.00  0.00    +0.088 C 
BRANCH  13  14
ATOM     14  C   UNL     1      -7.856   3.027  -1.966  0.00  0.00    -0.059 C 
BRANCH  14  20
ATOM     15  C   UNL     1      -8.085   1.841  -4.066  0.00  0.00    -0.050 C 
ATOM     16  C   UNL     1      -8.667   0.582  -4.715  0.00  0.00    +0.141 C 
ATOM     17  O   UNL     1     -10.082   0.557  -4.512  0.00  0.00    -0.383 OA
ATOM     18  C   UNL     1     -10.466   0.575  -3.134  0.00  0.00    +0.141 C 
ATOM     19  C   UNL     1      -9.903   1.834  -2.469  0.00  0.00    -0.050 C 
ATOM     20  N   UNL     1      -8.434   1.838  -2.630  0.00  0.00    +0.384 N 
ATOM     21  H   UNL     1      -8.048   0.992  -2.194  0.00  0.00    -0.082 HD
ENDBRANCH  14  20
ENDBRANCH  13  14
ENDBRANCH   1  13
BRANCH   1  22
ATOM     22  C   UNL     1      -5.519   4.027   0.170  0.00  0.00    +0.147 C 
BRANCH  22  23
ATOM     23  C   UNL     1      -4.141   3.486   0.451  0.00  0.00    +0.035 A 
ATOM     24  C   UNL     1      -3.106   4.340   0.641  0.00  0.00    +0.020 A 
ATOM     25  C   UNL     1      -1.778   3.783   0.908  0.00  0.00    -0.001 A 
ATOM     26  C   UNL     1      -0.669   4.614   1.095  0.00  0.00    +0.013 A 
ATOM     27  C   UNL     1       0.556   4.062   1.342  0.00  0.00    -0.047 A 
ATOM     28  C   UNL     1       0.710   2.684   1.408  0.00  0.00    -0.046 A 
ATOM     29  C   UNL     1      -0.369   1.846   1.226  0.00  0.00    +0.030 A 
ATOM     30  C   UNL     1      -1.625   2.385   0.969  0.00  0.00    +0.049 A 
ATOM     31  N   UNL     1      -2.721   1.570   0.777  0.00  0.00    -0.322 N 
ATOM     32  H   UNL     1      -2.615   0.607   0.823  0.00  0.00    +0.169 HD
ATOM     33  C   UNL     1      -3.935   2.092   0.528  0.00  0.00    +0.254 A 
ATOM     34  O   UNL     1      -4.881   1.341   0.363  0.00  0.00    -0.268 OA
ATOM     35  C   UNL     1       2.071   2.098   1.681  0.00  0.00    +0.044 C 
ATOM     36  C   UNL     1       1.751   4.958   1.545  0.00  0.00    +0.044 C 
ENDBRANCH  22  23
ENDBRANCH   1  22
TORSDOF 8
