REMARK  Name = ZINC34748129
REMARK  4 active torsions:
REMARK  status: ('A' for Active; 'I' for Inactive)
REMARK    1  A    between atoms: C_6  and  C_8
REMARK    2  A    between atoms: C_8  and  N_9
REMARK    3  A    between atoms: N_27  and  C_28
REMARK    4  A    between atoms: C_28  and  C_29
REMARK                            x       y       z     vdW  Elec       q    Type
REMARK                         _______ _______ _______ _____ _____    ______ ____
ROOT
ATOM      1  N   UNL     1       1.614  -4.043   0.643  0.00  0.00    +0.387 N 
ATOM      2  C   UNL     1       1.938  -4.274   2.056  0.00  0.00    -0.059 C 
ATOM      3  C   UNL     1       2.696  -5.598   2.196  0.00  0.00    +0.089 C 
ATOM      4  N   UNL     1       1.893  -6.663   1.575  0.00  0.00    -0.304 N 
ATOM      5  C   UNL     1       1.386  -6.444   0.211  0.00  0.00    +0.089 C 
ATOM      6  C   UNL     1       0.690  -5.080   0.166  0.00  0.00    -0.059 C 
ATOM      7  C   UNL     1       1.624  -7.829   2.249  0.00  0.00    +0.202 A 
ATOM      8  N   UNL     1       0.549  -7.907   3.006  0.00  0.00    -0.208 NA
ATOM      9  C   UNL     1       0.266  -9.023   3.669  0.00  0.00    +0.117 A 
ATOM     10  C   UNL     1       1.084 -10.160   3.598  0.00  0.00    +0.076 A 
ATOM     11  C   UNL     1       0.644 -11.322   4.386  0.00  0.00    -0.023 A 
ATOM     12  C   UNL     1      -0.491 -11.184   5.090  0.00  0.00    -0.004 A 
ATOM     13  S   UNL     1      -1.039  -9.525   4.760  0.00  0.00    -0.073 S 
ATOM     14  C   UNL     1      -0.844 -12.435   5.850  0.00  0.00    +0.043 C 
ATOM     15  C   UNL     1       0.005 -13.543   5.189  0.00  0.00    +0.010 C 
ATOM     16  C   UNL     1       1.188 -12.734   4.623  0.00  0.00    +0.037 C 
ATOM     17  C   UNL     1       2.244 -10.047   2.768  0.00  0.00    +0.264 A 
ATOM     18  O   UNL     1       3.011 -10.986   2.646  0.00  0.00    -0.267 OA
ATOM     19  N   UNL     1       2.471  -8.889   2.119  0.00  0.00    -0.271 N 
ATOM     20  H   UNL     1       2.462  -4.073   0.097  0.00  0.00    -0.081 HD
ENDROOT
BRANCH   1  21
ATOM     21  C   UNL     1       0.986  -2.724   0.496  0.00  0.00    +0.019 C 
BRANCH  21  27
ATOM     22  C   UNL     1       0.364   1.696   0.460  0.00  0.00    +0.020 C 
ATOM     23  C   UNL     1       1.885   1.985   0.356  0.00  0.00    +0.020 C 
ATOM     24  C   UNL     1       2.483   0.793   1.145  0.00  0.00    +0.108 C 
ATOM     25  N   UNL     1       1.618  -0.353   0.810  0.00  0.00    -0.303 N 
ATOM     26  C   UNL     1       0.301   0.155   0.399  0.00  0.00    +0.108 C 
ATOM     27  C   UNL     1       1.976  -1.651   0.869  0.00  0.00    +0.199 C 
ATOM     28  O   UNL     1       3.095  -1.956   1.222  0.00  0.00    -0.278 OA
ENDBRANCH  21  27
ENDBRANCH   1  21
BRANCH  19  29
ATOM     29  C   UNL     1       3.653  -8.765   1.263  0.00  0.00    +0.223 C 
BRANCH  29  30
ATOM     30  C   UNL     1       4.834  -8.340   2.096  0.00  0.00    +0.230 C 
ATOM     31  O   UNL     1       4.702  -8.159   3.288  0.00  0.00    -0.274 OA
ATOM     32  N   UNL     1       6.038  -8.162   1.516  0.00  0.00    -0.328 N 
ATOM     33  H   UNL     1       6.144  -8.307   0.563  0.00  0.00    +0.145 HD
ATOM     34  H   UNL     1       6.799  -7.888   2.053  0.00  0.00    +0.145 HD
ENDBRANCH  29  30
ENDBRANCH  19  29
TORSDOF 4
