REMARK  Name = ZINC41107043
REMARK  7 active torsions:
REMARK  status: ('A' for Active; 'I' for Inactive)
REMARK    1  A    between atoms: C_1  and  C_2
REMARK    2  A    between atoms: C_3  and  C_24
REMARK    3  A    between atoms: C_4  and  C_17
REMARK    4  A    between atoms: N_9  and  C_10
REMARK    5  A    between atoms: C_10  and  C_11
REMARK    6  A    between atoms: C_24  and  O_26
REMARK    7  A    between atoms: O_26  and  C_27
REMARK                            x       y       z     vdW  Elec       q    Type
REMARK                         _______ _______ _______ _____ _____    ______ ____
ROOT
ATOM      1  C   UNL     1      -0.097   1.501   0.017  0.00  0.00    +0.061 C 
ATOM      2  C   UNL     1      -0.035  -0.005   0.005  0.00  0.00    +0.024 C 
ATOM      3  C   UNL     1      -0.097  -0.663  -1.172  0.00  0.00    +0.078 C 
ATOM      4  C   UNL     1      -0.031  -2.177  -1.139  0.00  0.00    +0.144 C 
ATOM      5  N   UNL     1       0.096  -2.810   0.185  0.00  0.00    -0.288 N 
ATOM      6  C   UNL     1       0.146  -2.016   1.273  0.00  0.00    +0.307 C 
ATOM      7  O   UNL     1       0.252  -2.529   2.370  0.00  0.00    -0.252 OA
ATOM      8  N   UNL     1       0.089  -0.682   1.185  0.00  0.00    -0.256 N 
ATOM      9  H   UNL     1       0.143  -3.775   0.271  0.00  0.00    +0.151 HD
ENDROOT
BRANCH   4  10
ATOM     10  C   UNL     1       1.145  -2.609  -1.975  0.00  0.00    -0.020 A 
ATOM     11  C   UNL     1       2.423  -2.563  -1.448  0.00  0.00    +0.006 A 
ATOM     12  C   UNL     1       3.503  -2.959  -2.214  0.00  0.00    +0.003 A 
ATOM     13  C   UNL     1       3.307  -3.402  -3.508  0.00  0.00    +0.038 A 
ATOM     14  C   UNL     1       2.029  -3.449  -4.037  0.00  0.00    +0.124 A 
ATOM     15  C   UNL     1       0.947  -3.058  -3.267  0.00  0.00    +0.044 A 
ATOM     16  F   UNL     1       1.836  -3.882  -5.303  0.00  0.00    -0.205 F 
ENDBRANCH   4  10
BRANCH   3  17
ATOM     17  C   UNL     1      -0.220   0.036  -2.396  0.00  0.00    +0.339 C 
ATOM     18  O   UNL     1      -0.147   1.251  -2.412  0.00  0.00    -0.245 OA
BRANCH  17  19
ATOM     19  O   UNL     1      -0.419  -0.643  -3.545  0.00  0.00    -0.465 OA
ATOM     20  C   UNL     1      -0.534   0.128  -4.742  0.00  0.00    +0.280 C 
ENDBRANCH  17  19
ENDBRANCH   3  17
BRANCH   8  21
ATOM     21  C   UNL     1       0.158   0.097   2.424  0.00  0.00    +0.146 C 
BRANCH  21  22
ATOM     22  C   UNL     1      -1.255   0.307   2.972  0.00  0.00    +0.136 C 
ATOM     23  C   UNL     1      -1.205   1.228   4.211  0.00  0.00    +0.035 C 
ATOM     24  C   UNL     1      -2.259   0.577   5.148  0.00  0.00    +0.031 C 
ATOM     25  C   UNL     1      -2.078  -0.921   4.798  0.00  0.00    +0.160 C 
ATOM     26  O   UNL     1      -1.808  -0.947   3.385  0.00  0.00    -0.375 OA
ENDBRANCH  21  22
ENDBRANCH   8  21
TORSDOF 5
