REMARK  Name = ZINC06409843
REMARK  9 active torsions:
REMARK  status: ('A' for Active; 'I' for Inactive)
REMARK    1  A    between atoms: C_1  and  C_2
REMARK    2  A    between atoms: C_7  and  C_14
REMARK    3  A    between atoms: C_14  and  C_16
REMARK    4  A    between atoms: C_14  and  N_70
REMARK    5  A    between atoms: N_20  and  C_21
REMARK    6  A    between atoms: C_27  and  C_28
REMARK    7  A    between atoms: C_27  and  N_70
REMARK    8  A    between atoms: C_34  and  C_35
REMARK    9  A    between atoms: C_34  and  N_70
REMARK                            x       y       z     vdW  Elec       q    Type
REMARK                         _______ _______ _______ _____ _____    ______ ____
ROOT
ATOM      1  C   UNL     1      -2.437   1.877  -0.594  0.00  0.00    +0.040 C 
ENDROOT
BRANCH   1   8
ATOM      2  C   UNL     1       2.893   6.898  -3.756  0.00  0.00    +0.044 C 
ATOM      3  C   UNL     1       2.059   5.792  -3.163  0.00  0.00    -0.048 A 
ATOM      4  C   UNL     1       2.623   4.540  -2.959  0.00  0.00    +0.004 A 
ATOM      5  C   UNL     1       1.884   3.524  -2.422  0.00  0.00    +0.010 A 
ATOM      6  C   UNL     1       0.548   3.747  -2.074  0.00  0.00    -0.001 A 
ATOM      7  C   UNL     1      -0.272   2.681  -1.496  0.00  0.00    +0.017 A 
ATOM      8  C   UNL     1      -1.563   2.954  -1.184  0.00  0.00    +0.011 A 
ATOM      9  C   UNL     1      -2.091   4.244  -1.406  0.00  0.00    +0.251 A 
ATOM     10  O   UNL     1      -3.252   4.469  -1.114  0.00  0.00    -0.268 OA
ATOM     11  N   UNL     1      -1.345   5.230  -1.935  0.00  0.00    -0.322 N 
ATOM     12  H   UNL     1      -1.740   6.104  -2.077  0.00  0.00    +0.169 HD
ATOM     13  C   UNL     1      -0.027   5.015  -2.279  0.00  0.00    +0.049 A 
ATOM     14  C   UNL     1       0.744   6.035  -2.828  0.00  0.00    +0.029 A 
ENDBRANCH   1   8
BRANCH   1  15
ATOM     15  C   UNL     1      -2.824   2.257   0.811  0.00  0.00    +0.143 A 
ATOM     16  N   UNL     1      -3.464   3.340   1.181  0.00  0.00    -0.115 NA
ATOM     17  N   UNL     1      -3.607   3.300   2.461  0.00  0.00    -0.023 NA
ATOM     18  N   UNL     1      -3.068   2.224   2.918  0.00  0.00    -0.044 NA
ATOM     19  N   UNL     1      -2.574   1.555   1.932  0.00  0.00    -0.227 N 
BRANCH  19  20
ATOM     20  C   UNL     1      -1.873   0.271   2.016  0.00  0.00    +0.111 C 
ATOM     21  C   UNL     1      -2.837  -0.804   2.522  0.00  0.00    +0.027 C 
ATOM     22  C   UNL     1      -2.106  -2.145   2.610  0.00  0.00    +0.002 C 
ATOM     23  C   UNL     1      -0.927  -2.020   3.577  0.00  0.00    +0.000 C 
ATOM     24  C   UNL     1       0.037  -0.946   3.071  0.00  0.00    +0.002 C 
ATOM     25  C   UNL     1      -0.695   0.395   2.983  0.00  0.00    +0.027 C 
ENDBRANCH  19  20
ENDBRANCH   1  15
BRANCH   1  26
ATOM     26  N   UNL     1      -3.659   1.753  -1.416  0.00  0.00    +0.397 N 
ATOM     27  H   UNL     1      -4.050   2.688  -1.576  0.00  0.00    -0.079 HD
BRANCH  26  28
ATOM     28  C   UNL     1      -4.662   0.928  -0.710  0.00  0.00    -0.041 C 
BRANCH  28  29
ATOM     29  C   UNL     1      -5.666   1.847  -0.063  0.00  0.00    -0.064 A 
ATOM     30  C   UNL     1      -5.631   2.057   1.303  0.00  0.00    +0.002 A 
ATOM     31  C   UNL     1      -6.548   2.904   1.896  0.00  0.00    +0.000 A 
ATOM     32  C   UNL     1      -7.508   3.533   1.124  0.00  0.00    +0.000 A 
ATOM     33  C   UNL     1      -7.546   3.318  -0.241  0.00  0.00    +0.000 A 
ATOM     34  C   UNL     1      -6.625   2.476  -0.835  0.00  0.00    +0.002 A 
ENDBRANCH  28  29
ENDBRANCH  26  28
BRANCH  26  35
ATOM     35  C   UNL     1      -3.330   1.140  -2.721  0.00  0.00    -0.001 C 
BRANCH  35  36
ATOM     36  C   UNL     1      -2.746   2.201  -3.618  0.00  0.00    +0.089 A 
ATOM     37  C   UNL     1      -1.488   2.224  -4.093  0.00  0.00    +0.042 A 
ATOM     38  C   UNL     1      -1.370   3.388  -4.886  0.00  0.00    +0.041 A 
ATOM     39  C   UNL     1      -2.564   4.008  -4.847  0.00  0.00    +0.195 A 
ATOM     40  O   UNL     1      -3.395   3.282  -4.082  0.00  0.00    -0.470 OA
ENDBRANCH  35  36
ENDBRANCH  26  35
ENDBRANCH   1  26
TORSDOF 8
