REMARK  Name = ZINC44875796
REMARK  13 active torsions:
REMARK  status: ('A' for Active; 'I' for Inactive)
REMARK    1  A    between atoms: C_1  and  C_2
REMARK    2  A    between atoms: C_2  and  C_3
REMARK    3  A    between atoms: C_8  and  N_9
REMARK    4  A    between atoms: N_9  and  C_10
REMARK    5  A    between atoms: N_9  and  S_29
REMARK    6  A    between atoms: C_10  and  C_11
REMARK    7  A    between atoms: N_13  and  C_14
REMARK    8  A    between atoms: C_14  and  C_15
REMARK    9  A    between atoms: C_18  and  C_21
REMARK   10  A    between atoms: C_21  and  N_22
REMARK   11  A    between atoms: C_25  and  C_28
REMARK   12  A    between atoms: S_29  and  C_32
REMARK   13  A    between atoms: C_35  and  C_38
REMARK                            x       y       z     vdW  Elec       q    Type
REMARK                         _______ _______ _______ _____ _____    ______ ____
ROOT
ATOM      1  C   UNL     1      -0.015  -0.176   3.818  0.00  0.00    +0.227 C 
ENDROOT
BRANCH   1   2
ATOM      2  C   UNL     1      -0.431   0.877   4.814  0.00  0.00    +0.232 C 
ATOM      3  O   UNL     1      -1.442   1.520   4.629  0.00  0.00    -0.274 OA
ATOM      4  N   UNL     1       0.321   1.102   5.909  0.00  0.00    -0.310 N 
ATOM      5  H   UNL     1       1.130   0.587   6.057  0.00  0.00    +0.149 HD
BRANCH   4   6
ATOM      6  C   UNL     1      -0.083   2.125   6.877  0.00  0.00    +0.139 C 
BRANCH   6   7
ATOM      7  C   UNL     1       0.920   2.178   8.000  0.00  0.00    -0.030 A 
ATOM      8  C   UNL     1       0.752   1.378   9.116  0.00  0.00    +0.005 A 
ATOM      9  C   UNL     1       1.672   1.426  10.146  0.00  0.00    +0.002 A 
ATOM     10  C   UNL     1       2.761   2.273  10.061  0.00  0.00    -0.064 A 
ATOM     11  C   UNL     1       2.930   3.072   8.946  0.00  0.00    +0.002 A 
ATOM     12  C   UNL     1       2.012   3.021   7.913  0.00  0.00    +0.005 A 
BRANCH  10  13
ATOM     13  C   UNL     1       3.763   2.327  11.185  0.00  0.00    -0.043 C 
BRANCH  13  14
ATOM     14  N   UNL     1       4.824   1.339  10.943  0.00  0.00    +0.382 N 
ATOM     15  C   UNL     1       5.566   1.708   9.731  0.00  0.00    -0.078 C 
ATOM     16  C   UNL     1       6.619   0.639   9.429  0.00  0.00    -0.016 C 
ATOM     17  C   UNL     1       7.587   0.536  10.611  0.00  0.00    -0.018 C 
ATOM     18  C   UNL     1       6.793   0.224  11.883  0.00  0.00    -0.016 C 
ATOM     19  C   UNL     1       5.733   1.308  12.094  0.00  0.00    -0.078 C 
ATOM     20  C   UNL     1       8.595  -0.585  10.350  0.00  0.00    +0.007 C 
ATOM     21  H   UNL     1       4.410   0.427  10.817  0.00  0.00    -0.081 HD
ENDBRANCH  13  14
ENDBRANCH  10  13
ENDBRANCH   6   7
ENDBRANCH   4   6
ENDBRANCH   1   2
BRANCH   1  22
ATOM     22  N   UNL     1      -0.893  -0.113   2.647  0.00  0.00    -0.194 N 
BRANCH  22  28
ATOM     23  C   UNL     1       0.492   0.591   0.800  0.00  0.00    -0.025 A 
ATOM     24  C   UNL     1       0.759   1.478  -0.224  0.00  0.00    +0.005 A 
ATOM     25  C   UNL     1      -0.071   2.563  -0.435  0.00  0.00    +0.000 A 
ATOM     26  C   UNL     1      -1.172   2.764   0.377  0.00  0.00    +0.002 A 
ATOM     27  C   UNL     1      -1.446   1.880   1.402  0.00  0.00    +0.025 A 
ATOM     28  C   UNL     1      -0.616   0.786   1.614  0.00  0.00    +0.055 A 
BRANCH  23  30
ATOM     29  C   UNL     1       2.496  -0.607  -0.036  0.00  0.00    +0.009 C 
ATOM     30  C   UNL     1       1.398  -0.591   1.029  0.00  0.00    +0.033 C 
ENDBRANCH  23  30
ENDBRANCH  22  28
BRANCH  22  31
ATOM     31  S   UNL     1      -2.213  -1.108   2.547  0.00  0.00    +0.075 S 
ATOM     32  O   UNL     1      -3.252  -0.346   1.948  0.00  0.00    -0.150 OA
ATOM     33  O   UNL     1      -1.755  -2.336   1.997  0.00  0.00    -0.150 OA
BRANCH  31  34
ATOM     34  C   UNL     1      -2.729  -1.456   4.195  0.00  0.00    +0.109 A 
ATOM     35  C   UNL     1      -2.254  -2.579   4.846  0.00  0.00    +0.029 A 
ATOM     36  C   UNL     1      -2.659  -2.852   6.139  0.00  0.00    +0.005 A 
ATOM     37  C   UNL     1      -3.539  -2.001   6.782  0.00  0.00    -0.050 A 
ATOM     38  C   UNL     1      -4.013  -0.877   6.131  0.00  0.00    +0.005 A 
ATOM     39  C   UNL     1      -3.604  -0.602   4.840  0.00  0.00    +0.029 A 
ATOM     40  C   UNL     1      -3.981  -2.298   8.191  0.00  0.00    +0.044 C 
ENDBRANCH  31  34
ENDBRANCH  22  31
ENDBRANCH   1  22
TORSDOF 10
