REMARK  Name = ZINC37426324
REMARK  5 active torsions:
REMARK  status: ('A' for Active; 'I' for Inactive)
REMARK    1  A    between atoms: C_5  and  N_7
REMARK    2  A    between atoms: C_10  and  C_13
REMARK    3  A    between atoms: C_19  and  C_22
REMARK    4  A    between atoms: N_24  and  C_25
REMARK    5  A    between atoms: C_25  and  C_26
REMARK                            x       y       z     vdW  Elec       q    Type
REMARK                         _______ _______ _______ _____ _____    ______ ____
ROOT
ATOM      1  C   UNL     1      -1.534  -6.070   0.417  0.00  0.00    +0.266 C 
ATOM      2  O   UNL     1      -2.648  -6.548   0.314  0.00  0.00    -0.268 OA
ATOM      3  N   UNL     1      -0.461  -6.878   0.526  0.00  0.00    -0.296 N 
ATOM      4  C   UNL     1       0.900  -6.333   0.425  0.00  0.00    +0.108 C 
ATOM      5  C   UNL     1       1.666  -7.115  -0.646  0.00  0.00    +0.020 C 
ATOM      6  C   UNL     1       1.609  -8.609  -0.320  0.00  0.00    +0.016 C 
ATOM      7  C   UNL     1       0.153  -9.080  -0.326  0.00  0.00    +0.092 C 
ATOM      8  C   UNL     1      -0.630  -8.319   0.754  0.00  0.00    +0.120 C 
ENDROOT
BRANCH   1  12
ATOM      9  N   UNL     1       1.155  -2.036   0.959  0.00  0.00    -0.293 N 
ATOM     10  C   UNL     1       0.005  -2.764   0.701  0.00  0.00    +0.163 A 
ATOM     11  N   UNL     1      -0.168  -4.071   0.694  0.00  0.00    -0.220 NA
ATOM     12  C   UNL     1      -1.359  -4.609   0.422  0.00  0.00    +0.135 A 
ATOM     13  C   UNL     1      -2.417  -3.779   0.147  0.00  0.00    +0.081 A 
ATOM     14  S   UNL     1      -1.635  -2.179   0.300  0.00  0.00    -0.060 S 
ATOM     15  H   UNL     1       2.009  -2.489   1.038  0.00  0.00    +0.154 HD
BRANCH   9  20
ATOM     16  C   UNL     1      -0.168   1.325   1.648  0.00  0.00    +0.002 A 
ATOM     17  C   UNL     1       0.946   2.103   1.391  0.00  0.00    +0.002 A 
ATOM     18  C   UNL     1       2.130   1.510   0.990  0.00  0.00    +0.022 A 
ATOM     19  C   UNL     1       2.203   0.138   0.846  0.00  0.00    +0.062 A 
ATOM     20  C   UNL     1       1.085  -0.647   1.104  0.00  0.00    +0.051 A 
ATOM     21  C   UNL     1      -0.102  -0.048   1.506  0.00  0.00    +0.025 A 
ATOM     22 CL   UNL     1       3.689  -0.605   0.343  0.00  0.00    -0.082 Cl
ENDBRANCH   9  20
ENDBRANCH   1  12
BRANCH   7  23
ATOM     23  C   UNL     1       0.101 -10.558  -0.037  0.00  0.00    +0.218 C 
ATOM     24  O   UNL     1       1.128 -11.175   0.155  0.00  0.00    -0.275 OA
ATOM     25  N   UNL     1      -1.086 -11.195   0.007  0.00  0.00    -0.313 N 
ATOM     26  H   UNL     1      -1.907 -10.702  -0.147  0.00  0.00    +0.149 HD
BRANCH  25  27
ATOM     27  C   UNL     1      -1.136 -12.632   0.288  0.00  0.00    +0.135 C 
BRANCH  27  28
ATOM     28  C   UNL     1      -2.592 -13.102   0.282  0.00  0.00    +0.135 C 
ATOM     29  C   UNL     1      -2.671 -14.614   0.612  0.00  0.00    +0.035 C 
ATOM     30  C   UNL     1      -4.113 -14.717   1.177  0.00  0.00    +0.031 C 
ATOM     31  C   UNL     1      -4.283 -13.360   1.892  0.00  0.00    +0.160 C 
ATOM     32  O   UNL     1      -3.332 -12.449   1.326  0.00  0.00    -0.375 OA
ENDBRANCH  27  28
ENDBRANCH  25  27
ENDBRANCH   7  23
TORSDOF 5
