REMARK  Name = ZINC14551928
REMARK  8 active torsions:
REMARK  status: ('A' for Active; 'I' for Inactive)
REMARK    1  A    between atoms: C_1  and  C_2
REMARK    2  A    between atoms: C_4  and  C_36
REMARK    3  A    between atoms: C_6  and  N_8
REMARK    4  A    between atoms: N_8  and  S_9
REMARK    5  A    between atoms: S_9  and  C_12
REMARK    6  A    between atoms: C_25  and  C_28
REMARK    7  A    between atoms: C_31  and  S_34
REMARK    8  A    between atoms: S_34  and  C_35
REMARK                            x       y       z     vdW  Elec       q    Type
REMARK                         _______ _______ _______ _____ _____    ______ ____
ROOT
ATOM      1  C   UNL     1      -5.995   4.672   1.031  0.00  0.00    +0.109 A 
ATOM      2  C   UNL     1      -6.148   4.286  -0.288  0.00  0.00    +0.030 A 
ATOM      3  C   UNL     1      -5.394   3.250  -0.799  0.00  0.00    +0.025 A 
ATOM      4  C   UNL     1      -4.475   2.587   0.006  0.00  0.00    +0.031 A 
ATOM      5  C   UNL     1      -4.315   2.993   1.336  0.00  0.00    -0.018 A 
ATOM      6  C   UNL     1      -5.080   4.023   1.839  0.00  0.00    +0.034 A 
ATOM      7  C   UNL     1      -3.292   2.295   2.144  0.00  0.00    +0.049 C 
ATOM      8  C   UNL     1      -3.394   2.187   3.621  0.00  0.00    -0.023 C 
ATOM      9  C   UNL     1      -2.822   1.051   4.003  0.00  0.00    -0.030 C 
ATOM     10  C   UNL     1      -2.315   0.284   2.781  0.00  0.00    +0.033 C 
ATOM     11  C   UNL     1      -3.265   0.802   1.698  0.00  0.00    +0.029 C 
ATOM     12  C   UNL     1      -2.722   0.814   0.280  0.00  0.00    +0.105 C 
ATOM     13  N   UNL     1      -3.733   1.528  -0.529  0.00  0.00    -0.336 N 
ATOM     14  H   UNL     1      -3.885   1.257  -1.448  0.00  0.00    +0.147 HD
ENDROOT
BRANCH  12  15
ATOM     15  C   UNL     1      -1.406   1.546   0.232  0.00  0.00    -0.027 A 
ATOM     16  C   UNL     1      -1.383   2.909  -0.003  0.00  0.00    +0.006 A 
ATOM     17  C   UNL     1      -0.179   3.584  -0.042  0.00  0.00    +0.015 A 
ATOM     18  C   UNL     1       1.011   2.892   0.151  0.00  0.00    +0.008 A 
ATOM     19  C   UNL     1       0.984   1.521   0.382  0.00  0.00    +0.015 A 
ATOM     20  C   UNL     1      -0.224   0.853   0.419  0.00  0.00    +0.006 A 
BRANCH  18  21
ATOM     21  S   UNL     1       2.549   3.749   0.103  0.00  0.00    -0.129 S 
ATOM     22  C   UNL     1       3.783   2.453   0.401  0.00  0.00    +0.090 C 
ENDBRANCH  18  21
ENDBRANCH  12  15
BRANCH   1  23
ATOM     23  S   UNL     1      -6.968   5.989   1.683  0.00  0.00    +0.072 S 
ATOM     24  O   UNL     1      -8.190   5.988   0.957  0.00  0.00    -0.150 OA
ATOM     25  O   UNL     1      -6.922   5.866   3.098  0.00  0.00    -0.150 OA
BRANCH  23  26
ATOM     26  N   UNL     1      -6.194   7.403   1.305  0.00  0.00    -0.216 N 
ATOM     27  H   UNL     1      -6.632   8.060   0.741  0.00  0.00    +0.174 HD
BRANCH  26  33
ATOM     28  C   UNL     1      -3.036   7.403   5.070  0.00  0.00    +0.044 C 
ATOM     29  C   UNL     1      -3.351   7.659   3.619  0.00  0.00    -0.048 A 
ATOM     30  C   UNL     1      -2.368   8.139   2.773  0.00  0.00    +0.006 A 
ATOM     31  C   UNL     1      -2.653   8.376   1.441  0.00  0.00    -0.048 A 
ATOM     32  C   UNL     1      -3.921   8.132   0.950  0.00  0.00    +0.028 A 
ATOM     33  C   UNL     1      -4.911   7.650   1.797  0.00  0.00    +0.049 A 
ATOM     34  C   UNL     1      -4.622   7.419   3.136  0.00  0.00    +0.028 A 
ATOM     35  C   UNL     1      -1.579   8.899   0.523  0.00  0.00    +0.044 C 
ENDBRANCH  26  33
ENDBRANCH  23  26
ENDBRANCH   1  23
TORSDOF 5
