REMARK  Name = ZINC08623156
REMARK  8 active torsions:
REMARK  status: ('A' for Active; 'I' for Inactive)
REMARK    1  A    between atoms: C_1  and  C_2
REMARK    2  A    between atoms: C_5  and  S_8
REMARK    3  A    between atoms: S_8  and  N_11
REMARK    4  A    between atoms: N_11  and  C_12
REMARK    5  A    between atoms: C_12  and  C_13
REMARK    6  A    between atoms: C_21  and  C_23
REMARK    7  A    between atoms: C_25  and  C_30
REMARK    8  A    between atoms: C_27  and  C_29
REMARK                            x       y       z     vdW  Elec       q    Type
REMARK                         _______ _______ _______ _____ _____    ______ ____
ROOT
ATOM      1  C   UNL     1      -0.518   1.381   0.848  0.00  0.00    -0.053 C 
ATOM      2  C   UNL     1      -0.475   2.893   1.086  0.00  0.00    -0.010 C 
ATOM      3  C   UNL     1      -1.886   3.379   1.440  0.00  0.00    -0.007 C 
ATOM      4  C   UNL     1      -2.359   2.635   2.696  0.00  0.00    -0.015 C 
ATOM      5  C   UNL     1      -2.350   1.130   2.412  0.00  0.00    -0.078 C 
ATOM      6  C   UNL     1      -2.807   1.514   0.065  0.00  0.00    -0.068 C 
ATOM      7  C   UNL     1      -2.829   3.030   0.281  0.00  0.00    +0.024 C 
ATOM      8  N   UNL     1      -1.893   0.868   1.031  0.00  0.00    +0.383 N 
ATOM      9  H   UNL     1      -1.895  -0.145   0.866  0.00  0.00    -0.081 HD
ENDROOT
BRANCH   7  10
ATOM     10  C   UNL     1      -2.365   3.725  -0.973  0.00  0.00    +0.047 A 
ATOM     11  C   UNL     1      -1.805   4.988  -0.907  0.00  0.00    +0.052 A 
ATOM     12  C   UNL     1      -1.391   5.592  -2.097  0.00  0.00    +0.076 A 
ATOM     13  N   UNL     1      -1.551   4.932  -3.243  0.00  0.00    -0.232 NA
ATOM     14  C   UNL     1      -2.090   3.731  -3.257  0.00  0.00    +0.127 A 
ATOM     15  N   UNL     1      -2.485   3.132  -2.151  0.00  0.00    -0.237 NA
ATOM     16  C   UNL     1      -2.254   3.018  -4.574  0.00  0.00    +0.088 C 
BRANCH  12  17
ATOM     17  C   UNL     1      -0.784   6.945  -2.084  0.00  0.00    +0.014 A 
ATOM     18  C   UNL     1      -1.393   7.979  -1.376  0.00  0.00    +0.011 A 
ATOM     19  C   UNL     1      -0.824   9.236  -1.367  0.00  0.00    +0.001 A 
ATOM     20  C   UNL     1       0.351   9.471  -2.060  0.00  0.00    +0.001 A 
ATOM     21  C   UNL     1       0.961   8.450  -2.765  0.00  0.00    +0.016 A 
ATOM     22  C   UNL     1       0.403   7.186  -2.777  0.00  0.00    +0.027 A 
ATOM     23 BR   UNL     1       1.242   5.788  -3.735  0.00  0.00    -0.050 Br
ENDBRANCH  12  17
ENDBRANCH   7  10
BRANCH   1  24
ATOM     24  C   UNL     1      -0.061   1.076  -0.580  0.00  0.00    +0.090 C 
BRANCH  24  25
ATOM     25  N   UNL     1      -0.204  -0.358  -0.844  0.00  0.00    -0.191 NA
ATOM     26  H   UNL     1      -0.338  -0.975  -0.107  0.00  0.00    +0.148 HD
BRANCH  25  27
ATOM     27  S   UNL     1      -0.138  -0.925  -2.398  0.00  0.00    +0.058 S 
ATOM     28  O   UNL     1      -0.237  -2.340  -2.319  0.00  0.00    -0.153 OA
ATOM     29  O   UNL     1      -1.048  -0.138  -3.156  0.00  0.00    -0.153 OA
BRANCH  27  34
ATOM     30  C   UNL     1       5.379   0.302  -4.511  0.00  0.00    +0.044 C 
ATOM     31  C   UNL     1       4.001  -0.005  -3.984  0.00  0.00    -0.050 A 
ATOM     32  C   UNL     1       3.783  -1.153  -3.245  0.00  0.00    +0.005 A 
ATOM     33  C   UNL     1       2.519  -1.433  -2.760  0.00  0.00    +0.029 A 
ATOM     34  C   UNL     1       1.473  -0.567  -3.015  0.00  0.00    +0.105 A 
ATOM     35  C   UNL     1       1.689   0.578  -3.759  0.00  0.00    +0.029 A 
ATOM     36  C   UNL     1       2.954   0.861  -4.240  0.00  0.00    +0.005 A 
ENDBRANCH  27  34
ENDBRANCH  25  27
ENDBRANCH  24  25
ENDBRANCH   1  24
TORSDOF 6
