REMARK  Name = ZINC20719755
REMARK  6 active torsions:
REMARK  status: ('A' for Active; 'I' for Inactive)
REMARK    1  A    between atoms: C_4  and  C_7
REMARK    2  A    between atoms: C_7  and  C_8
REMARK    3  A    between atoms: C_8  and  N_9
REMARK    4  A    between atoms: N_9  and  S_10
REMARK    5  A    between atoms: S_10  and  C_13
REMARK    6  A    between atoms: C_26  and  C_29
REMARK                            x       y       z     vdW  Elec       q    Type
REMARK                         _______ _______ _______ _____ _____    ______ ____
ROOT
ATOM      1  C   UNL     1       6.986   8.162  -0.949  0.00  0.00    +0.106 A 
ATOM      2  C   UNL     1       7.465   7.165  -0.118  0.00  0.00    +0.030 A 
ATOM      3  C   UNL     1       6.621   6.168   0.325  0.00  0.00    +0.025 A 
ATOM      4  C   UNL     1       5.285   6.157  -0.057  0.00  0.00    +0.031 A 
ATOM      5  C   UNL     1       4.805   7.176  -0.887  0.00  0.00    -0.018 A 
ATOM      6  C   UNL     1       5.657   8.164  -1.330  0.00  0.00    +0.034 A 
ATOM      7  C   UNL     1       3.372   7.141  -1.251  0.00  0.00    +0.049 C 
ATOM      8  C   UNL     1       2.860   7.766  -2.497  0.00  0.00    -0.023 C 
ATOM      9  C   UNL     1       1.807   7.075  -2.916  0.00  0.00    -0.030 C 
ATOM     10  C   UNL     1       1.551   5.892  -1.979  0.00  0.00    +0.033 C 
ATOM     11  C   UNL     1       2.951   5.648  -1.400  0.00  0.00    +0.029 C 
ATOM     12  C   UNL     1       3.027   5.065   0.000  0.00  0.00    +0.107 C 
ATOM     13  N   UNL     1       4.457   5.114   0.376  0.00  0.00    -0.336 N 
ATOM     14  H   UNL     1       4.888   4.323   1.007  0.00  0.00    +0.147 HD
ENDROOT
BRANCH  12  15
ATOM     15  C   UNL     1       2.539   3.639  -0.003  0.00  0.00    -0.002 A 
ATOM     16  C   UNL     1       3.301   2.534  -0.016  0.00  0.00    +0.089 A 
ATOM     17  N   UNL     1       2.507   1.420  -0.014  0.00  0.00    -0.360 N 
ATOM     18  H   UNL     1       2.964   0.419  -0.023  0.00  0.00    +0.165 HD
ATOM     19  C   UNL     1       1.181   1.790   0.000  0.00  0.00    +0.047 A 
ATOM     20  C   UNL     1       1.143   3.196   0.008  0.00  0.00    +0.005 A 
ATOM     21  C   UNL     1      -0.085   3.860   0.023  0.00  0.00    +0.010 A 
ATOM     22  C   UNL     1      -1.246   3.138   0.030  0.00  0.00    +0.001 A 
ATOM     23  C   UNL     1      -1.214   1.751   0.017  0.00  0.00    +0.002 A 
ATOM     24  C   UNL     1      -0.013   1.076   0.008  0.00  0.00    +0.026 A 
ENDBRANCH  12  15
BRANCH   1  25
ATOM     25  S   UNL     1       8.069   9.428  -1.521  0.00  0.00    +0.058 S 
ATOM     26  O   UNL     1       9.385   8.895  -1.463  0.00  0.00    -0.153 OA
ATOM     27  O   UNL     1       7.504   9.934  -2.723  0.00  0.00    -0.153 OA
BRANCH  25  28
ATOM     28  N   UNL     1       8.009  10.660  -0.415  0.00  0.00    -0.190 NA
ATOM     29  H   UNL     1       7.453  11.576  -0.662  0.00  0.00    +0.148 HD
BRANCH  28  30
ATOM     30  C   UNL     1       8.499  10.445   0.948  0.00  0.00    +0.110 C 
BRANCH  30  31
ATOM     31  C   UNL     1       8.683  11.796   1.643  0.00  0.00    +0.052 C 
BRANCH  31  35
ATOM     32  C   UNL     1      10.113  11.169   5.619  0.00  0.00    +0.000 A 
ATOM     33  C   UNL     1      11.010  11.321   4.578  0.00  0.00    +0.000 A 
ATOM     34  C   UNL     1      10.547  11.524   3.292  0.00  0.00    +0.003 A 
ATOM     35  C   UNL     1       9.187  11.574   3.046  0.00  0.00    -0.046 A 
ATOM     36  C   UNL     1       8.291  11.427   4.088  0.00  0.00    +0.003 A 
ATOM     37  C   UNL     1       8.754  11.220   5.374  0.00  0.00    +0.000 A 
ENDBRANCH  31  35
ENDBRANCH  30  31
ENDBRANCH  28  30
ENDBRANCH  25  28
ENDBRANCH   1  25
TORSDOF 6
