REMARK  Name = ZINC64862359
REMARK  5 active torsions:
REMARK  status: ('A' for Active; 'I' for Inactive)
REMARK    1  A    between atoms: C_3  and  C_8
REMARK    2  A    between atoms: C_8  and  N_9
REMARK    3  A    between atoms: N_9  and  S_10
REMARK    4  A    between atoms: S_10  and  C_13
REMARK    5  A    between atoms: N_24  and  C_25
REMARK                            x       y       z     vdW  Elec       q    Type
REMARK                         _______ _______ _______ _____ _____    ______ ____
ROOT
ATOM      1  C   UNL     1       5.851   4.513   0.942  0.00  0.00    +0.106 A 
ATOM      2  C   UNL     1       6.283   4.635  -0.366  0.00  0.00    +0.030 A 
ATOM      3  C   UNL     1       6.436   5.883  -0.932  0.00  0.00    +0.026 A 
ATOM      4  C   UNL     1       6.156   7.032  -0.190  0.00  0.00    +0.041 A 
ATOM      5  C   UNL     1       5.724   6.898   1.120  0.00  0.00    -0.023 A 
ATOM      6  C   UNL     1       5.566   5.645   1.681  0.00  0.00    +0.034 A 
ATOM      7  C   UNL     1       5.493   8.278   1.694  0.00  0.00    +0.056 C 
ATOM      8  C   UNL     1       5.848   9.239   0.547  0.00  0.00    +0.120 C 
ATOM      9  N   UNL     1       6.245   8.375  -0.568  0.00  0.00    -0.255 N 
ATOM     10  C   UNL     1       6.636   8.812  -1.782  0.00  0.00    +0.307 C 
ATOM     11  O   UNL     1       6.946   8.013  -2.644  0.00  0.00    -0.252 OA
ATOM     12  N   UNL     1       6.684  10.134  -2.039  0.00  0.00    -0.296 N 
ATOM     13  H   UNL     1       6.437  10.771  -1.351  0.00  0.00    +0.151 HD
ENDROOT
BRANCH  12  14
ATOM     14  C   UNL     1       7.110  10.608  -3.358  0.00  0.00    +0.074 C 
ATOM     15  C   UNL     1       8.637  10.693  -3.401  0.00  0.00    +0.022 C 
ATOM     16  C   UNL     1       9.082  11.189  -4.779  0.00  0.00    +0.002 C 
ATOM     17  C   UNL     1       8.487  12.574  -5.039  0.00  0.00    +0.000 C 
ATOM     18  C   UNL     1       6.960  12.489  -4.996  0.00  0.00    +0.002 C 
ATOM     19  C   UNL     1       6.515  11.993  -3.618  0.00  0.00    +0.022 C 
ENDBRANCH  12  14
BRANCH   1  20
ATOM     20  S   UNL     1       5.657   2.916   1.662  0.00  0.00    +0.059 S 
ATOM     21  O   UNL     1       5.758   3.090   3.069  0.00  0.00    -0.153 OA
ATOM     22  O   UNL     1       6.510   2.038   0.940  0.00  0.00    -0.153 OA
BRANCH  20  23
ATOM     23  N   UNL     1       4.105   2.426   1.356  0.00  0.00    -0.186 NA
ATOM     24  H   UNL     1       3.483   2.300   2.089  0.00  0.00    +0.148 HD
BRANCH  23  25
ATOM     25  C   UNL     1       3.672   2.183  -0.022  0.00  0.00    +0.141 C 
BRANCH  25  28
ATOM     26  C   UNL     1      -0.017   1.378   0.010  0.00  0.00    +0.001 A 
ATOM     27  C   UNL     1       1.171   2.086   0.002  0.00  0.00    +0.005 A 
ATOM     28  C   UNL     1       2.378   1.411  -0.013  0.00  0.00    -0.031 A 
ATOM     29  C   UNL     1       2.397   0.029  -0.022  0.00  0.00    +0.020 A 
ATOM     30  C   UNL     1       1.210  -0.679  -0.014  0.00  0.00    +0.018 A 
ATOM     31  C   UNL     1       0.002  -0.004   0.002  0.00  0.00    +0.015 A 
ATOM     32 BR   UNL     1       1.236  -2.570  -0.025  0.00  0.00    -0.050 Br
ENDBRANCH  25  28
ENDBRANCH  23  25
ENDBRANCH  20  23
ENDBRANCH   1  20
TORSDOF 5
