REMARK  Name = ZINC21284529
REMARK  6 active torsions:
REMARK  status: ('A' for Active; 'I' for Inactive)
REMARK    1  A    between atoms: C_1  and  C_2
REMARK    2  A    between atoms: C_8  and  N_10
REMARK    3  A    between atoms: C_14  and  C_16
REMARK    4  A    between atoms: C_16  and  N_17
REMARK    5  A    between atoms: C_20  and  C_24
REMARK    6  A    between atoms: C_20  and  C_25
REMARK                            x       y       z     vdW  Elec       q    Type
REMARK                         _______ _______ _______ _____ _____    ______ ____
ROOT
ATOM      1  C   UNL     1      -1.135  -2.201   0.001  0.00  0.00    +0.214 C 
ENDROOT
BRANCH   1   2
ATOM      2  N   UNL     1      -2.510  -2.708   0.011  0.00  0.00    -0.215 N 
ATOM      3  C   UNL     1      -3.208  -2.981   1.132  0.00  0.00    +0.251 C 
ATOM      4  O   UNL     1      -2.831  -2.858   2.277  0.00  0.00    -0.272 OA
ATOM      5  C   UNL     1      -4.562  -3.472   0.661  0.00  0.00    +0.135 C 
ATOM      6  N   UNL     1      -4.458  -3.420  -0.807  0.00  0.00    -0.281 N 
ATOM      7  C   UNL     1      -3.225  -2.962  -1.090  0.00  0.00    +0.310 C 
ATOM      8  O   UNL     1      -2.808  -2.798  -2.220  0.00  0.00    -0.252 OA
ATOM      9  C   UNL     1      -5.676  -2.546   1.155  0.00  0.00    +0.047 C 
ATOM     10  H   UNL     1      -5.310  -3.730  -1.430  0.00  0.00    +0.152 HD
BRANCH   5  11
ATOM     11  C   UNL     1      -4.804  -4.885   1.126  0.00  0.00    -0.015 A 
ATOM     12  C   UNL     1      -4.309  -5.304   2.347  0.00  0.00    +0.007 A 
ATOM     13  C   UNL     1      -4.535  -6.598   2.777  0.00  0.00    +0.020 A 
ATOM     14  C   UNL     1      -5.248  -7.477   1.980  0.00  0.00    +0.041 A 
ATOM     15  C   UNL     1      -5.738  -7.058   0.756  0.00  0.00    +0.020 A 
ATOM     16  C   UNL     1      -5.516  -5.762   0.330  0.00  0.00    +0.007 A 
ATOM     17 CL   UNL     1      -5.527  -9.104   2.516  0.00  0.00    -0.084 Cl
ENDBRANCH   5  11
ENDBRANCH   1   2
BRANCH   1  22
ATOM     18  N   UNL     1       1.142   2.033   0.002  0.00  0.00    -0.296 N 
ATOM     19  C   UNL     1      -0.016   1.344   0.009  0.00  0.00    +0.306 C 
ATOM     20  O   UNL     1      -1.077   1.937   0.018  0.00  0.00    -0.252 OA
ATOM     21  N   UNL     1       0.002  -0.004   0.002  0.00  0.00    -0.239 N 
ATOM     22  C   UNL     1      -1.156  -0.694   0.009  0.00  0.00    +0.238 C 
ATOM     23  O   UNL     1      -2.214  -0.102   0.023  0.00  0.00    -0.274 OA
ATOM     24  H   UNL     1       2.102   1.496  -0.010  0.00  0.00    +0.151 HD
ATOM     25  H   UNL     1       0.962  -0.541  -0.010  0.00  0.00    +0.159 HD
BRANCH  18  32
ATOM     26  C   UNL     1       2.574   3.507   2.043  0.00  0.00    +0.009 C 
ATOM     27  C   UNL     1       2.428   4.023   0.610  0.00  0.00    +0.006 C 
ATOM     28  C   UNL     1       2.407   5.552   0.619  0.00  0.00    +0.005 C 
ATOM     29  C   UNL     1       2.261   6.068  -0.814  0.00  0.00    +0.000 C 
ATOM     30  C   UNL     1       0.955   5.544  -1.414  0.00  0.00    +0.002 C 
ATOM     31  C   UNL     1       0.976   4.014  -1.423  0.00  0.00    +0.022 C 
ATOM     32  C   UNL     1       1.122   3.498   0.010  0.00  0.00    +0.077 C 
ENDBRANCH  18  32
ENDBRANCH   1  22
TORSDOF 4
