REMARK  Name = ZINC09086231
REMARK  5 active torsions:
REMARK  status: ('A' for Active; 'I' for Inactive)
REMARK    1  A    between atoms: C_1  and  C_2
REMARK    2  A    between atoms: C_4  and  N_17
REMARK    3  A    between atoms: N_15  and  C_16
REMARK    4  A    between atoms: C_33  and  C_34
REMARK    5  A    between atoms: C_33  and  N_71
REMARK                            x       y       z     vdW  Elec       q    Type
REMARK                         _______ _______ _______ _____ _____    ______ ____
ROOT
ATOM      1  N   UNL     1      -3.569   2.607   3.159  0.00  0.00    -0.281 N 
ATOM      2  C   UNL     1      -4.705   2.546   2.365  0.00  0.00    +0.165 A 
ATOM      3  C   UNL     1      -5.975   2.805   2.933  0.00  0.00    +0.162 A 
ATOM      4  N   UNL     1      -7.061   2.752   2.190  0.00  0.00    -0.227 NA
ATOM      5  C   UNL     1      -6.962   2.450   0.887  0.00  0.00    +0.091 A 
ATOM      6  C   UNL     1      -8.105   2.387   0.074  0.00  0.00    +0.030 A 
ATOM      7  C   UNL     1      -7.979   2.078  -1.247  0.00  0.00    +0.002 A 
ATOM      8  C   UNL     1      -6.730   1.823  -1.806  0.00  0.00    +0.002 A 
ATOM      9  C   UNL     1      -5.600   1.875  -1.046  0.00  0.00    +0.030 A 
ATOM     10  C   UNL     1      -5.692   2.190   0.319  0.00  0.00    +0.091 A 
ATOM     11  N   UNL     1      -4.594   2.253   1.086  0.00  0.00    -0.227 NA
ATOM     12  N   UNL     1      -6.077   3.117   4.280  0.00  0.00    -0.316 N 
ATOM     13  C   UNL     1      -6.738   2.036   5.023  0.00  0.00    +0.088 C 
ATOM     14  C   UNL     1      -6.760   2.383   6.513  0.00  0.00    -0.059 C 
ATOM     15  C   UNL     1      -6.802   4.740   5.964  0.00  0.00    -0.059 C 
ATOM     16  C   UNL     1      -6.781   4.393   4.473  0.00  0.00    +0.088 C 
ATOM     17  H   UNL     1      -3.636   2.903   4.080  0.00  0.00    +0.155 HD
ATOM     18  N   UNL     1      -7.490   3.655   6.696  0.00  0.00    +0.384 N 
ATOM     19  H   UNL     1      -8.441   3.551   6.323  0.00  0.00    -0.081 HD
ENDROOT
BRANCH   1  23
ATOM     20  C   UNL     1      -0.017   1.056   0.018  0.00  0.00    +0.067 C 
ATOM     21  C   UNL     1      -0.721   1.553   1.254  0.00  0.00    +0.062 A 
ATOM     22  C   UNL     1      -2.090   1.817   1.365  0.00  0.00    +0.068 A 
ATOM     23  C   UNL     1      -2.333   2.242   2.635  0.00  0.00    +0.131 A 
ATOM     24  N   UNL     1      -1.140   2.253   3.296  0.00  0.00    -0.185 N 
ATOM     25  N   UNL     1      -0.153   1.816   2.403  0.00  0.00    -0.167 NA
ATOM     26  C   UNL     1      -0.940   2.628   4.618  0.00  0.00    +0.234 A 
ATOM     27  N   UNL     1      -1.879   3.032   5.434  0.00  0.00    -0.211 NA
ATOM     28  C   UNL     1      -1.338   3.318   6.647  0.00  0.00    +0.091 A 
ATOM     29  C   UNL     1      -1.872   3.777   7.853  0.00  0.00    +0.030 A 
ATOM     30  C   UNL     1      -1.045   3.976   8.936  0.00  0.00    +0.002 A 
ATOM     31  C   UNL     1       0.316   3.724   8.838  0.00  0.00    +0.002 A 
ATOM     32  C   UNL     1       0.859   3.271   7.654  0.00  0.00    +0.028 A 
ATOM     33  C   UNL     1       0.041   3.065   6.553  0.00  0.00    +0.070 A 
ATOM     34  N   UNL     1       0.264   2.625   5.261  0.00  0.00    -0.311 N 
ATOM     35  C   UNL     1       1.553   2.231   4.687  0.00  0.00    +0.152 C 
ENDBRANCH   1  23
BRANCH  18  36
ATOM     36  C   UNL     1      -7.572   3.989   8.134  0.00  0.00    -0.043 C 
BRANCH  36  37
ATOM     37  C   UNL     1      -8.463   2.984   8.817  0.00  0.00    -0.064 A 
ATOM     38  C   UNL     1      -9.823   3.213   8.904  0.00  0.00    +0.002 A 
ATOM     39  C   UNL     1     -10.642   2.289   9.526  0.00  0.00    +0.000 A 
ATOM     40  C   UNL     1     -10.098   1.140  10.070  0.00  0.00    +0.000 A 
ATOM     41  C   UNL     1      -8.737   0.914   9.988  0.00  0.00    +0.000 A 
ATOM     42  C   UNL     1      -7.919   1.835   9.361  0.00  0.00    +0.002 A 
ENDBRANCH  36  37
ENDBRANCH  18  36
TORSDOF 3
