REMARK  Name = ZINC09951568
REMARK  10 active torsions:
REMARK  status: ('A' for Active; 'I' for Inactive)
REMARK    1  A    between atoms: C_1  and  C_2
REMARK    2  A    between atoms: C_3  and  C_7
REMARK    3  A    between atoms: C_10  and  S_13
REMARK    4  A    between atoms: N_11  and  C_12
REMARK    5  A    between atoms: S_13  and  C_14
REMARK    6  A    between atoms: C_14  and  C_16
REMARK    7  A    between atoms: C_14  and  C_17
REMARK    8  A    between atoms: N_19  and  C_20
REMARK    9  A    between atoms: C_23  and  S_26
REMARK   10  A    between atoms: S_26  and  N_29
REMARK                            x       y       z     vdW  Elec       q    Type
REMARK                         _______ _______ _______ _____ _____    ______ ____
ROOT
ATOM      1  C   UNL     1      -0.050   1.452   0.258  0.00  0.00    +0.230 C 
ATOM      2  O   UNL     1       0.993   2.007   0.530  0.00  0.00    -0.274 OA
ATOM      3  N   UNL     1      -1.154   2.180  -0.001  0.00  0.00    -0.285 N 
ATOM      4  H   UNL     1      -1.970   1.739  -0.285  0.00  0.00    +0.155 HD
ENDROOT
BRANCH   3   5
ATOM      5  C   UNL     1      -1.124   3.571   0.141  0.00  0.00    +0.034 A 
ATOM      6  C   UNL     1      -2.243   4.248   0.608  0.00  0.00    +0.025 A 
ATOM      7  C   UNL     1      -2.207   5.621   0.753  0.00  0.00    +0.030 A 
ATOM      8  C   UNL     1      -1.063   6.323   0.422  0.00  0.00    +0.105 A 
ATOM      9  C   UNL     1       0.051   5.653  -0.048  0.00  0.00    +0.030 A 
ATOM     10  C   UNL     1       0.024   4.280  -0.190  0.00  0.00    +0.025 A 
BRANCH   8  11
ATOM     11  S   UNL     1      -1.024   8.076   0.602  0.00  0.00    +0.056 S 
ATOM     12  O   UNL     1      -2.005   8.406   1.575  0.00  0.00    -0.153 OA
ATOM     13  O   UNL     1       0.342   8.439   0.743  0.00  0.00    -0.153 OA
BRANCH  11  14
ATOM     14  N   UNL     1      -1.541   8.726  -0.831  0.00  0.00    -0.204 NA
ATOM     15  H   UNL     1      -1.793   8.144  -1.565  0.00  0.00    +0.144 HD
ATOM     16  H   UNL     1      -1.592   9.689  -0.936  0.00  0.00    +0.144 HD
ENDBRANCH  11  14
ENDBRANCH   8  11
ENDBRANCH   3   5
BRANCH   1  17
ATOM     17  C   UNL     1      -0.110  -0.053   0.203  0.00  0.00    +0.137 C 
ATOM     18  C   UNL     1      -0.713  -0.588   1.503  0.00  0.00    +0.029 C 
BRANCH  17  19
ATOM     19  S   UNL     1       1.562  -0.716  -0.004  0.00  0.00    -0.074 S 
BRANCH  19  23
ATOM     20  C   UNL     1       1.347  -4.591  -0.464  0.00  0.00    +0.168 A 
ATOM     21  N   UNL     1       0.088  -4.246  -0.327  0.00  0.00    -0.128 NA
ATOM     22  N   UNL     1      -0.004  -2.974  -0.164  0.00  0.00    -0.122 NA
ATOM     23  C   UNL     1       1.191  -2.429  -0.187  0.00  0.00    +0.192 A 
ATOM     24  N   UNL     1       2.092  -3.438  -0.384  0.00  0.00    -0.305 N 
ATOM     25  C   UNL     1       3.549  -3.316  -0.486  0.00  0.00    +0.153 C 
BRANCH  20  28
ATOM     26  C   UNL     1       0.227  -6.718  -2.476  0.00  0.00    +0.087 C 
ATOM     27  C   UNL     1       1.393  -6.896  -1.538  0.00  0.00    +0.112 A 
ATOM     28  C   UNL     1       1.866  -5.960  -0.670  0.00  0.00    +0.060 A 
ATOM     29  C   UNL     1       2.994  -6.595   0.022  0.00  0.00    +0.053 A 
ATOM     30  C   UNL     1       3.095  -7.833  -0.490  0.00  0.00    +0.196 A 
ATOM     31  O   UNL     1       2.142  -8.002  -1.418  0.00  0.00    -0.467 OA
ENDBRANCH  20  28
ENDBRANCH  19  23
ENDBRANCH  17  19
ENDBRANCH   1  17
TORSDOF 7
