REMARK  Name = ZINC02905259
REMARK  6 active torsions:
REMARK  status: ('A' for Active; 'I' for Inactive)
REMARK    1  A    between atoms: C_6  and  C_8
REMARK    2  A    between atoms: C_6  and  N_12
REMARK    3  A    between atoms: C_6  and  N_49
REMARK    4  A    between atoms: N_16  and  C_18
REMARK    5  A    between atoms: C_18  and  C_20
REMARK    6  A    between atoms: C_18  and  N_51
REMARK                            x       y       z     vdW  Elec       q    Type
REMARK                         _______ _______ _______ _____ _____    ______ ____
ROOT
ATOM      1  N   UNL     1      -1.930  -1.232   0.119  0.00  0.00    -0.309 N 
ATOM      2  H   UNL     1      -2.613  -0.954   0.749  0.00  0.00    +0.148 HD
ATOM      3  C   UNL     1      -2.251  -2.048  -0.905  0.00  0.00    +0.297 C 
ATOM      4  O   UNL     1      -1.396  -2.397  -1.695  0.00  0.00    -0.253 OA
ATOM      5  N   UNL     1      -3.520  -2.477  -1.052  0.00  0.00    -0.309 N 
ATOM      6  H   UNL     1      -4.203  -2.199  -0.422  0.00  0.00    +0.148 HD
ENDROOT
BRANCH   1   7
ATOM      7  C   UNL     1      -0.551  -0.766   0.279  0.00  0.00    +0.072 C 
BRANCH   7  13
ATOM      8  C   UNL     1       2.194  -2.898   2.770  0.00  0.00    -0.004 C 
ATOM      9  C   UNL     1       0.972  -3.624   2.201  0.00  0.00    -0.019 C 
ATOM     10  C   UNL     1       0.448  -2.855   0.986  0.00  0.00    -0.076 C 
ATOM     11  C   UNL     1       1.253  -0.758   1.893  0.00  0.00    -0.076 C 
ATOM     12  C   UNL     1       1.801  -1.464   3.135  0.00  0.00    -0.019 C 
ATOM     13  N   UNL     1       0.064  -1.492   1.410  0.00  0.00    +0.395 N 
ATOM     14  H   UNL     1      -0.619  -1.560   2.173  0.00  0.00    -0.079 HD
ENDBRANCH   7  13
BRANCH   7  15
ATOM     15  C   UNL     1      -0.551   0.733   0.583  0.00  0.00    +0.194 C 
ATOM     16 CL   UNL     1       1.134   1.367   0.485  0.00  0.00    -0.084 Cl
ATOM     17 CL   UNL     1      -1.587   1.590  -0.620  0.00  0.00    -0.084 Cl
ATOM     18 CL   UNL     1      -1.202   1.010   2.241  0.00  0.00    -0.084 Cl
ENDBRANCH   7  15
ENDBRANCH   1   7
BRANCH   5  19
ATOM     19  C   UNL     1      -3.869  -3.364  -2.165  0.00  0.00    +0.072 C 
BRANCH  19  25
ATOM     20  C   UNL     1      -5.372  -3.497  -4.059  0.00  0.00    -0.076 C 
ATOM     21  C   UNL     1      -6.228  -2.664  -5.016  0.00  0.00    -0.019 C 
ATOM     22  C   UNL     1      -5.317  -1.765  -5.857  0.00  0.00    -0.004 C 
ATOM     23  C   UNL     1      -4.487  -0.878  -4.925  0.00  0.00    -0.019 C 
ATOM     24  C   UNL     1      -3.681  -1.762  -3.971  0.00  0.00    -0.076 C 
ATOM     25  N   UNL     1      -4.616  -2.584  -3.174  0.00  0.00    +0.395 N 
ATOM     26  H   UNL     1      -5.278  -1.964  -2.692  0.00  0.00    -0.079 HD
ENDBRANCH  19  25
BRANCH  19  27
ATOM     27  C   UNL     1      -4.753  -4.503  -1.652  0.00  0.00    +0.194 C 
ATOM     28 CL   UNL     1      -6.368  -3.849  -1.190  0.00  0.00    -0.084 Cl
ATOM     29 CL   UNL     1      -4.954  -5.739  -2.949  0.00  0.00    -0.084 Cl
ATOM     30 CL   UNL     1      -3.978  -5.263  -0.212  0.00  0.00    -0.084 Cl
ENDBRANCH  19  27
ENDBRANCH   5  19
TORSDOF 6
