REMARK  Name = ZINC06197974
REMARK  10 active torsions:
REMARK  status: ('A' for Active; 'I' for Inactive)
REMARK    1  A    between atoms: C_1  and  C_2
REMARK    2  A    between atoms: C_2  and  C_3
REMARK    3  A    between atoms: C_10  and  C_15
REMARK    4  A    between atoms: C_15  and  C_17
REMARK    5  A    between atoms: C_15  and  N_74
REMARK    6  A    between atoms: N_21  and  C_22
REMARK    7  A    between atoms: C_28  and  C_29
REMARK    8  A    between atoms: C_28  and  N_74
REMARK    9  A    between atoms: C_34  and  C_35
REMARK   10  A    between atoms: C_34  and  N_74
REMARK                            x       y       z     vdW  Elec       q    Type
REMARK                         _______ _______ _______ _____ _____    ______ ____
ROOT
ATOM      1  C   UNL     1       0.383  -0.753  -0.716  0.00  0.00    +0.039 C 
ENDROOT
BRANCH   1   9
ATOM      2  C   UNL     1       1.731  -6.482   1.194  0.00  0.00    -0.047 A 
ATOM      3  C   UNL     1       0.419  -6.923   1.300  0.00  0.00    +0.005 A 
ATOM      4  C   UNL     1      -0.632  -6.085   0.995  0.00  0.00    +0.026 A 
ATOM      5  C   UNL     1      -0.378  -4.783   0.577  0.00  0.00    +0.049 A 
ATOM      6  C   UNL     1       0.954  -4.339   0.471  0.00  0.00    -0.001 A 
ATOM      7  C   UNL     1       2.005  -5.207   0.785  0.00  0.00    +0.013 A 
ATOM      8  C   UNL     1       1.211  -2.968   0.025  0.00  0.00    +0.017 A 
ATOM      9  C   UNL     1       0.153  -2.170  -0.260  0.00  0.00    +0.011 A 
ATOM     10  C   UNL     1      -1.163  -2.664  -0.137  0.00  0.00    +0.251 A 
ATOM     11  O   UNL     1      -2.100  -1.932  -0.403  0.00  0.00    -0.268 OA
ATOM     12  N   UNL     1      -1.409  -3.923   0.267  0.00  0.00    -0.322 N 
ATOM     13  H   UNL     1      -2.355  -4.240   0.344  0.00  0.00    +0.169 HD
BRANCH   2  15
ATOM     14  C   UNL     1       3.207  -7.285   3.017  0.00  0.00    +0.009 C 
ATOM     15  C   UNL     1       2.863  -7.417   1.532  0.00  0.00    +0.032 C 
ENDBRANCH   2  15
ENDBRANCH   1   9
BRANCH   1  16
ATOM     16  C   UNL     1      -0.400  -0.498  -1.978  0.00  0.00    +0.143 A 
ATOM     17  N   UNL     1      -1.703  -0.548  -2.115  0.00  0.00    -0.115 NA
ATOM     18  N   UNL     1      -1.986  -0.268  -3.340  0.00  0.00    -0.023 NA
ATOM     19  N   UNL     1      -0.897  -0.048  -3.991  0.00  0.00    -0.044 NA
ATOM     20  N   UNL     1       0.103  -0.180  -3.186  0.00  0.00    -0.227 N 
BRANCH  20  21
ATOM     21  C   UNL     1       1.519  -0.015  -3.523  0.00  0.00    +0.111 C 
ATOM     22  C   UNL     1       1.759   1.407  -4.033  0.00  0.00    +0.027 C 
ATOM     23  C   UNL     1       3.238   1.579  -4.385  0.00  0.00    +0.002 C 
ATOM     24  C   UNL     1       3.624   0.575  -5.473  0.00  0.00    +0.000 C 
ATOM     25  C   UNL     1       3.384  -0.847  -4.963  0.00  0.00    +0.002 C 
ATOM     26  C   UNL     1       1.905  -1.019  -4.611  0.00  0.00    +0.027 C 
ENDBRANCH  20  21
ENDBRANCH   1  16
BRANCH   1  27
ATOM     27  N   UNL     1      -0.088   0.173   0.335  0.00  0.00    +0.394 N 
ATOM     28  H   UNL     1      -1.092   0.021   0.488  0.00  0.00    -0.080 HD
BRANCH  27  29
ATOM     29  C   UNL     1       0.126   1.572  -0.090  0.00  0.00    -0.034 C 
BRANCH  29  30
ATOM     30  C   UNL     1      -1.175   2.113  -0.626  0.00  0.00    -0.027 A 
ATOM     31  C   UNL     1      -2.250   2.581   0.054  0.00  0.00    +0.009 A 
ATOM     32  C   UNL     1      -3.346   3.035  -0.656  0.00  0.00    +0.008 A 
ATOM     33  C   UNL     1      -3.317   2.990  -2.010  0.00  0.00    +0.045 A 
ATOM     34  S   UNL     1      -1.702   2.295  -2.322  0.00  0.00    -0.103 S 
ENDBRANCH  29  30
ENDBRANCH  27  29
BRANCH  27  35
ATOM     35  C   UNL     1       0.634  -0.088   1.598  0.00  0.00    -0.045 C 
BRANCH  35  36
ATOM     36  C   UNL     1      -0.298  -0.852   2.541  0.00  0.00    +0.102 C 
ATOM     37  C   UNL     1       0.312  -0.923   3.958  0.00  0.00    +0.032 C 
ATOM     38  C   UNL     1      -0.076  -2.331   4.463  0.00  0.00    +0.030 C 
ATOM     39  C   UNL     1      -0.874  -2.944   3.290  0.00  0.00    +0.160 C 
ATOM     40  O   UNL     1      -0.419  -2.228   2.121  0.00  0.00    -0.378 OA
ENDBRANCH  35  36
ENDBRANCH  27  35
ENDBRANCH   1  27
TORSDOF 9
