REMARK  Name = ZINC59660411
REMARK  11 active torsions:
REMARK  status: ('A' for Active; 'I' for Inactive)
REMARK    1  A    between atoms: C_1  and  C_2
REMARK    2  A    between atoms: C_2  and  N_3
REMARK    3  A    between atoms: N_3  and  C_4
REMARK    4  A    between atoms: N_3  and  C_6
REMARK    5  A    between atoms: C_4  and  C_5
REMARK    6  A    between atoms: C_9  and  C_12
REMARK    7  A    between atoms: C_23  and  S_28
REMARK    8  A    between atoms: S_28  and  N_31
REMARK    9  A    between atoms: N_31  and  C_32
REMARK   10  A    between atoms: N_31  and  C_34
REMARK   11  A    between atoms: C_32  and  C_33
REMARK                            x       y       z     vdW  Elec       q    Type
REMARK                         _______ _______ _______ _____ _____    ______ ____
ROOT
ATOM      1  C   UNL     1      -0.002  -6.353   0.648  0.00  0.00    +0.105 C 
ATOM      2  C   UNL     1      -1.349  -6.735   0.060  0.00  0.00    +0.029 C 
ATOM      3  C   UNL     1      -1.531  -6.554  -1.452  0.00  0.00    +0.033 C 
ATOM      4  C   UNL     1      -2.553  -7.647  -1.773  0.00  0.00    -0.030 C 
ATOM      5  C   UNL     1      -2.471  -8.622  -0.875  0.00  0.00    -0.023 C 
ATOM      6  C   UNL     1      -1.399  -8.291   0.113  0.00  0.00    +0.049 C 
ATOM      7  C   UNL     1      -1.463  -8.695   1.535  0.00  0.00    -0.018 A 
ATOM      8  C   UNL     1      -2.180  -9.792   1.962  0.00  0.00    +0.034 A 
ATOM      9  C   UNL     1      -2.197 -10.136   3.301  0.00  0.00    +0.109 A 
ATOM     10  C   UNL     1      -1.492  -9.378   4.218  0.00  0.00    +0.030 A 
ATOM     11  C   UNL     1      -0.776  -8.275   3.802  0.00  0.00    +0.025 A 
ATOM     12  C   UNL     1      -0.757  -7.916   2.459  0.00  0.00    +0.031 A 
ATOM     13  N   UNL     1      -0.049  -6.773   2.066  0.00  0.00    -0.336 N 
ATOM     14  H   UNL     1       0.416  -6.245   2.734  0.00  0.00    +0.147 HD
ENDROOT
BRANCH   1  18
ATOM     15  C   UNL     1       0.581  -2.131   0.375  0.00  0.00    +0.013 A 
ATOM     16  C   UNL     1       1.205  -2.974  -0.526  0.00  0.00    +0.022 A 
ATOM     17  C   UNL     1       1.016  -4.341  -0.437  0.00  0.00    +0.007 A 
ATOM     18  C   UNL     1       0.204  -4.864   0.552  0.00  0.00    -0.027 A 
ATOM     19  C   UNL     1      -0.419  -4.020   1.453  0.00  0.00    +0.007 A 
ATOM     20  C   UNL     1      -0.227  -2.654   1.367  0.00  0.00    +0.022 A 
BRANCH  15  21
ATOM     21  N   UNL     1       0.772  -0.749   0.285  0.00  0.00    -0.394 NA
ATOM     22  H   UNL     1       0.251  -0.289   1.017  0.00  0.00    +0.126 HD
BRANCH  21  24
ATOM     23  C   UNL     1       2.395   1.077   0.461  0.00  0.00    +0.022 C 
ATOM     24  C   UNL     1       2.201  -0.441   0.434  0.00  0.00    +0.081 C 
ENDBRANCH  21  24
BRANCH  21  25
ATOM     25  C   UNL     1       0.302  -0.273  -1.023  0.00  0.00    +0.081 C 
ATOM     26  C   UNL     1      -1.210  -0.480  -1.128  0.00  0.00    +0.022 C 
ENDBRANCH  21  25
ENDBRANCH  15  21
ENDBRANCH   1  18
BRANCH   9  27
ATOM     27  S   UNL     1      -3.118 -11.539   3.838  0.00  0.00    +0.075 S 
ATOM     28  O   UNL     1      -3.415 -11.328   5.212  0.00  0.00    -0.150 OA
ATOM     29  O   UNL     1      -4.130 -11.758   2.865  0.00  0.00    -0.150 OA
BRANCH  27  30
ATOM     30  N   UNL     1      -2.103 -12.846   3.768  0.00  0.00    -0.203 N 
BRANCH  30  31
ATOM     31  C   UNL     1      -2.108 -13.674   2.643  0.00  0.00    +0.051 A 
ATOM     32  C   UNL     1      -0.948 -13.839   1.896  0.00  0.00    +0.025 A 
ATOM     33  C   UNL     1      -0.956 -14.658   0.785  0.00  0.00    +0.002 A 
ATOM     34  C   UNL     1      -2.116 -15.314   0.415  0.00  0.00    +0.000 A 
ATOM     35  C   UNL     1      -3.272 -15.152   1.157  0.00  0.00    +0.002 A 
ATOM     36  C   UNL     1      -3.270 -14.339   2.272  0.00  0.00    +0.025 A 
ENDBRANCH  30  31
BRANCH  30  37
ATOM     37  C   UNL     1      -1.202 -13.134   4.886  0.00  0.00    +0.128 C 
ATOM     38  C   UNL     1      -1.857 -14.153   5.820  0.00  0.00    +0.026 C 
ENDBRANCH  30  37
ENDBRANCH  27  30
ENDBRANCH   9  27
TORSDOF 8
