REMARK  Name = ZINC04150068
REMARK  8 active torsions:
REMARK  status: ('A' for Active; 'I' for Inactive)
REMARK    1  A    between atoms: C_4  and  C_7
REMARK    2  A    between atoms: C_7  and  C_8
REMARK    3  A    between atoms: C_8  and  C_9
REMARK    4  A    between atoms: C_9  and  N_65
REMARK    5  A    between atoms: C_20  and  N_25
REMARK    6  A    between atoms: N_25  and  S_26
REMARK    7  A    between atoms: S_26  and  C_29
REMARK    8  A    between atoms: C_33  and  C_35
REMARK                            x       y       z     vdW  Elec       q    Type
REMARK                         _______ _______ _______ _____ _____    ______ ____
ROOT
ATOM      1  C   UNL     1       5.464  -3.842  -6.507  0.00  0.00    -0.074 C 
ATOM      2  C   UNL     1       4.819  -2.470  -6.634  0.00  0.00    -0.007 C 
ATOM      3  C   UNL     1       5.735  -1.396  -6.041  0.00  0.00    +0.011 C 
ATOM      4  C   UNL     1       6.023  -1.782  -4.586  0.00  0.00    +0.020 C 
ATOM      5  C   UNL     1       6.740  -3.142  -4.587  0.00  0.00    -0.069 C 
ATOM      6  C   UNL     1       4.713  -1.958  -3.851  0.00  0.00    +0.023 A 
ATOM      7  C   UNL     1       4.708  -1.730  -2.513  0.00  0.00    +0.023 A 
ATOM      8  C   UNL     1       3.566  -1.998  -1.749  0.00  0.00    +0.031 A 
ATOM      9  C   UNL     1       2.461  -2.512  -2.371  0.00  0.00    +0.112 A 
ATOM     10  C   UNL     1       2.501  -2.736  -3.761  0.00  0.00    +0.274 A 
ATOM     11  O   UNL     1       1.546  -3.253  -4.319  0.00  0.00    -0.266 OA
ATOM     12  N   UNL     1       3.590  -2.377  -4.485  0.00  0.00    -0.310 N 
ATOM     13  C   UNL     1       3.466  -2.418  -5.942  0.00  0.00    +0.127 C 
ATOM     14  N   UNL     1       5.788  -4.144  -5.111  0.00  0.00    +0.380 N 
ATOM     15  H   UNL     1       4.926  -4.108  -4.554  0.00  0.00    -0.082 HD
ENDROOT
BRANCH   9  16
ATOM     16  N   UNL     1       1.309  -2.816  -1.635  0.00  0.00    -0.211 N 
ATOM     17  H   UNL     1       0.503  -3.103  -2.092  0.00  0.00    +0.174 HD
BRANCH  16  18
ATOM     18  S   UNL     1       1.323  -2.687   0.016  0.00  0.00    +0.073 S 
ATOM     19  O   UNL     1       0.033  -3.078   0.465  0.00  0.00    -0.150 OA
ATOM     20  O   UNL     1       1.882  -1.416   0.319  0.00  0.00    -0.150 OA
BRANCH  18  21
ATOM     21  C   UNL     1       2.454  -3.893   0.624  0.00  0.00    +0.109 A 
ATOM     22  C   UNL     1       3.753  -3.531   0.929  0.00  0.00    +0.029 A 
ATOM     23  C   UNL     1       4.641  -4.477   1.405  0.00  0.00    +0.002 A 
ATOM     24  C   UNL     1       4.230  -5.786   1.577  0.00  0.00    +0.012 A 
ATOM     25  C   UNL     1       2.931  -6.148   1.272  0.00  0.00    +0.057 A 
ATOM     26  C   UNL     1       2.043  -5.202   0.795  0.00  0.00    +0.041 A 
BRANCH  25  27
ATOM     27  C   UNL     1       2.483  -7.575   1.459  0.00  0.00    +0.417 C 
ATOM     28  F   UNL     1       2.712  -8.294   0.281  0.00  0.00    -0.166 F 
ATOM     29  F   UNL     1       3.204  -8.156   2.508  0.00  0.00    -0.166 F 
ATOM     30  F   UNL     1       1.118  -7.599   1.762  0.00  0.00    -0.166 F 
ENDBRANCH  25  27
ENDBRANCH  18  21
ENDBRANCH  16  18
ENDBRANCH   9  16
BRANCH  14  31
ATOM     31  C   UNL     1       6.372  -5.499  -5.007  0.00  0.00    -0.078 C 
BRANCH  31  32
ATOM     32  C   UNL     1       7.604  -5.623  -5.904  0.00  0.00    -0.014 C 
BRANCH  32  33
ATOM     33  C   UNL     1       8.187  -7.032  -5.779  0.00  0.00    +0.033 C 
BRANCH  33  37
ATOM     34  C   UNL     1      11.630  -7.378  -8.284  0.00  0.00    +0.000 A 
ATOM     35  C   UNL     1      11.767  -6.954  -6.975  0.00  0.00    +0.000 A 
ATOM     36  C   UNL     1      10.653  -6.842  -6.165  0.00  0.00    +0.003 A 
ATOM     37  C   UNL     1       9.402  -7.154  -6.663  0.00  0.00    -0.047 A 
ATOM     38  C   UNL     1       9.265  -7.583  -7.970  0.00  0.00    +0.003 A 
ATOM     39  C   UNL     1      10.379  -7.690  -8.782  0.00  0.00    +0.000 A 
ENDBRANCH  33  37
ENDBRANCH  32  33
ENDBRANCH  31  32
ENDBRANCH  14  31
TORSDOF 8
