REMARK  Name = ZINC09268598
REMARK  7 active torsions:
REMARK  status: ('A' for Active; 'I' for Inactive)
REMARK    1  A    between atoms: C_1  and  C_2
REMARK    2  A    between atoms: C_5  and  C_8
REMARK    3  A    between atoms: C_8  and  C_9
REMARK    4  A    between atoms: C_9  and  N_10
REMARK    5  A    between atoms: C_11  and  C_13
REMARK    6  A    between atoms: N_18  and  S_20
REMARK    7  A    between atoms: S_20  and  C_23
REMARK                            x       y       z     vdW  Elec       q    Type
REMARK                         _______ _______ _______ _____ _____    ______ ____
ROOT
ATOM      1  C   UNL     1      -0.752   1.593  -1.232  0.00  0.00    +0.091 C 
ATOM      2  C   UNL     1      -0.013   1.086   0.008  0.00  0.00    +0.015 C 
ATOM      3  C   UNL     1      -0.729   1.579   1.268  0.00  0.00    +0.018 C 
ATOM      4  C   UNL     1      -2.154   1.019   1.293  0.00  0.00    +0.109 C 
ATOM      5  N   UNL     1      -2.826   1.380   0.037  0.00  0.00    -0.176 NA
ATOM      6  C   UNL     1      -2.178   1.033  -1.236  0.00  0.00    +0.122 C 
ENDROOT
BRANCH   1   8
ATOM      7  N   UNL     1       1.250   1.504  -2.682  0.00  0.00    -0.315 N 
ATOM      8  C   UNL     1      -0.029   1.133  -2.472  0.00  0.00    +0.217 C 
ATOM      9  O   UNL     1      -0.597   0.431  -3.281  0.00  0.00    -0.275 OA
ATOM     10  H   UNL     1       1.705   2.066  -2.035  0.00  0.00    +0.149 HD
BRANCH   7  11
ATOM     11  C   UNL     1       1.953   1.057  -3.887  0.00  0.00    +0.109 C 
BRANCH  11  12
ATOM     12  C   UNL     1       3.379   1.613  -3.881  0.00  0.00    +0.054 C 
BRANCH  12  17
ATOM     13  C   UNL     1       6.154  -0.147  -8.634  0.00  0.00    +0.044 C 
ATOM     14  C   UNL     1       5.430   0.312  -7.395  0.00  0.00    -0.050 A 
ATOM     15  C   UNL     1       4.720   1.498  -7.409  0.00  0.00    +0.003 A 
ATOM     16  C   UNL     1       4.056   1.919  -6.271  0.00  0.00    +0.004 A 
ATOM     17  C   UNL     1       4.102   1.154  -5.121  0.00  0.00    -0.046 A 
ATOM     18  C   UNL     1       4.817  -0.029  -5.106  0.00  0.00    +0.004 A 
ATOM     19  C   UNL     1       5.477  -0.452  -6.244  0.00  0.00    +0.003 A 
ENDBRANCH  12  17
ENDBRANCH  11  12
ENDBRANCH   7  11
ENDBRANCH   1   8
BRANCH   5  20
ATOM     20  S   UNL     1      -4.285   2.163   0.055  0.00  0.00    +0.061 S 
ATOM     21  O   UNL     1      -4.370   2.834   1.305  0.00  0.00    -0.153 OA
ATOM     22  O   UNL     1      -4.395   2.847  -1.186  0.00  0.00    -0.153 OA
BRANCH  20  23
ATOM     23  C   UNL     1      -5.540   0.926   0.061  0.00  0.00    +0.106 A 
ATOM     24  C   UNL     1      -6.018   0.436   1.269  0.00  0.00    +0.030 A 
ATOM     25  C   UNL     1      -6.998  -0.532   1.295  0.00  0.00    +0.028 A 
ATOM     26  C   UNL     1      -7.516  -1.025   0.102  0.00  0.00    +0.047 A 
ATOM     27  C   UNL     1      -7.029  -0.524  -1.119  0.00  0.00    +0.005 A 
ATOM     28  C   UNL     1      -6.038   0.460  -1.123  0.00  0.00    +0.038 A 
ATOM     29  C   UNL     1      -7.765  -1.232  -2.167  0.00  0.00    -0.019 A 
ATOM     30  C   UNL     1      -8.614  -2.076  -1.558  0.00  0.00    +0.020 A 
ATOM     31  N   UNL     1      -8.472  -1.968  -0.199  0.00  0.00    -0.358 N 
ATOM     32  H   UNL     1      -8.972  -2.482   0.455  0.00  0.00    +0.166 HD
ATOM     33  C   UNL     1      -9.580  -2.997  -2.266  0.00  0.00    +0.053 C 
ATOM     34  C   UNL     1      -8.852  -3.730  -3.395  0.00  0.00    +0.006 C 
ATOM     35  C   UNL     1      -8.931  -2.907  -4.678  0.00  0.00    +0.001 C 
ATOM     36  C   UNL     1      -8.909  -1.414  -4.358  0.00  0.00    +0.005 C 
ATOM     37  C   UNL     1      -7.596  -1.063  -3.654  0.00  0.00    +0.037 C 
ENDBRANCH  20  23
ENDBRANCH   5  20
TORSDOF 6
