REMARK  Name = ZINC32577579
REMARK  9 active torsions:
REMARK  status: ('A' for Active; 'I' for Inactive)
REMARK    1  A    between atoms: C_1  and  O_2
REMARK    2  A    between atoms: O_2  and  C_3
REMARK    3  A    between atoms: C_5  and  C_12
REMARK    4  A    between atoms: C_7  and  O_10
REMARK    5  A    between atoms: C_8  and  O_9
REMARK    6  A    between atoms: O_10  and  C_11
REMARK    7  A    between atoms: N_13  and  N_14
REMARK    8  A    between atoms: N_14  and  S_15
REMARK    9  A    between atoms: S_15  and  C_18
REMARK                            x       y       z     vdW  Elec       q    Type
REMARK                         _______ _______ _______ _____ _____    ______ ____
ROOT
ATOM      1  C   UNL     1       0.028   1.128   0.094  0.00  0.00    +0.139 C 
ATOM      2  N   UNL     1       0.026  -0.118  -0.268  0.00  0.00    -0.174 NA
ENDROOT
BRANCH   1   5
ATOM      3  C   UNL     1      -3.243   1.428   1.917  0.00  0.00    +0.166 A 
ATOM      4  C   UNL     1      -2.126   0.878   1.312  0.00  0.00    +0.059 A 
ATOM      5  C   UNL     1      -1.163   1.711   0.739  0.00  0.00    +0.002 A 
ATOM      6  C   UNL     1      -1.327   3.097   0.782  0.00  0.00    +0.059 A 
ATOM      7  C   UNL     1      -2.448   3.641   1.383  0.00  0.00    +0.166 A 
ATOM      8  C   UNL     1      -3.406   2.809   1.954  0.00  0.00    +0.201 A 
BRANCH   3  10
ATOM      9  C   UNL     1      -3.950  -0.790   2.401  0.00  0.00    +0.277 C 
ATOM     10  O   UNL     1      -4.181   0.618   2.475  0.00  0.00    -0.491 OA
ENDBRANCH   3  10
BRANCH   8  11
ATOM     11  O   UNL     1      -4.505   3.347   2.550  0.00  0.00    -0.501 OA
ATOM     12  H   UNL     1      -4.635   4.439   2.580  0.00  0.00    +0.292 HD
ENDBRANCH   8  11
BRANCH   7  13
ATOM     13  O   UNL     1      -2.612   4.991   1.421  0.00  0.00    -0.491 OA
ATOM     14  C   UNL     1      -1.590   5.785   0.816  0.00  0.00    +0.277 C 
ENDBRANCH   7  13
ENDBRANCH   1   5
BRANCH   2  15
ATOM     15  N   UNL     1      -1.189  -0.795  -0.441  0.00  0.00    -0.137 N 
ATOM     16  H   UNL     1      -2.026  -0.305  -0.410  0.00  0.00    +0.197 HD
BRANCH  15  17
ATOM     17  S   UNL     1      -1.196  -2.431  -0.699  0.00  0.00    +0.088 S 
ATOM     18  O   UNL     1      -2.558  -2.837  -0.690  0.00  0.00    -0.149 OA
ATOM     19  O   UNL     1      -0.336  -2.671  -1.805  0.00  0.00    -0.149 OA
BRANCH  17  20
ATOM     20  C   UNL     1      -0.437  -3.182   0.702  0.00  0.00    +0.130 A 
ATOM     21  C   UNL     1      -1.178  -4.001   1.533  0.00  0.00    +0.050 A 
ATOM     22  C   UNL     1      -0.581  -4.596   2.631  0.00  0.00    +0.043 A 
ATOM     23  C   UNL     1       0.756  -4.362   2.902  0.00  0.00    +0.021 A 
ATOM     24  C   UNL     1       1.495  -3.539   2.074  0.00  0.00    +0.023 A 
ATOM     25  C   UNL     1       0.899  -2.948   0.974  0.00  0.00    +0.068 A 
ATOM     26 CL   UNL     1       1.828  -1.915  -0.067  0.00  0.00    -0.082 Cl
ATOM     27 CL   UNL     1      -1.510  -5.629   3.671  0.00  0.00    -0.083 Cl
ENDBRANCH  17  20
ENDBRANCH  15  17
ENDBRANCH   2  15
TORSDOF 7
