REMARK  Name = ZINC33033547
REMARK  14 active torsions:
REMARK  status: ('A' for Active; 'I' for Inactive)
REMARK    1  A    between atoms: C_1  and  C_2
REMARK    2  A    between atoms: C_2  and  C_3
REMARK    3  A    between atoms: C_3  and  C_4
REMARK    4  A    between atoms: C_4  and  N_5
REMARK    5  A    between atoms: N_5  and  C_6
REMARK    6  A    between atoms: C_6  and  C_7
REMARK    7  A    between atoms: C_8  and  C_10
REMARK    8  A    between atoms: C_13  and  N_29
REMARK    9  A    between atoms: C_14  and  N_16
REMARK   10  A    between atoms: N_16  and  S_17
REMARK   11  A    between atoms: S_17  and  C_20
REMARK   12  A    between atoms: C_23  and  O_26
REMARK   13  A    between atoms: O_26  and  C_27
REMARK   14  A    between atoms: C_27  and  C_28
REMARK                            x       y       z     vdW  Elec       q    Type
REMARK                         _______ _______ _______ _____ _____    ______ ____
ROOT
ATOM      1  C   UNL     1      -2.877   1.416  -0.314  0.00  0.00    +0.039 A 
ATOM      2  C   UNL     1      -3.086   0.103   0.117  0.00  0.00    +0.015 A 
ATOM      3  C   UNL     1      -4.302  -0.508  -0.096  0.00  0.00    +0.026 A 
ATOM      4  C   UNL     1      -5.322   0.175  -0.749  0.00  0.00    +0.052 A 
ATOM      5  C   UNL     1      -5.118   1.486  -1.188  0.00  0.00    +0.070 A 
ATOM      6  C   UNL     1      -3.901   2.105  -0.972  0.00  0.00    +0.039 A 
ENDROOT
BRANCH   4   7
ATOM      7  N   UNL     1      -6.548  -0.449  -0.967  0.00  0.00    -0.332 N 
ATOM      8  C   UNL     1      -6.471  -1.885  -0.663  0.00  0.00    +0.086 C 
ATOM      9  C   UNL     1      -7.812  -2.546  -0.990  0.00  0.00    -0.063 C 
ATOM     10  N   UNL     1      -8.876  -1.902  -0.207  0.00  0.00    +0.381 N 
ATOM     11  C   UNL     1      -8.954  -0.466  -0.511  0.00  0.00    -0.063 C 
ATOM     12  C   UNL     1      -7.613   0.195  -0.184  0.00  0.00    +0.086 C 
ATOM     13  H   UNL     1      -9.842  -2.368  -0.450  0.00  0.00    -0.086 HD
ATOM     14  H   UNL     1      -8.668  -2.026   0.866  0.00  0.00    -0.086 HD
ENDBRANCH   4   7
BRANCH   1  16
ATOM     15  N   UNL     1      -0.468   1.326   0.093  0.00  0.00    -0.298 N 
ATOM     16  C   UNL     1      -1.577   2.072  -0.081  0.00  0.00    +0.247 C 
ATOM     17  O   UNL     1      -1.505   3.285  -0.046  0.00  0.00    -0.270 OA
BRANCH  15  18
ATOM     18  C   UNL     1      -0.539  -0.132  -0.025  0.00  0.00    +0.104 C 
ATOM     19  C   UNL     1      -0.452  -0.761   1.367  0.00  0.00    +0.024 C 
ENDBRANCH  15  18
BRANCH  15  20
ATOM     20  C   UNL     1       0.811   1.975   0.394  0.00  0.00    +0.108 C 
BRANCH  20  21
ATOM     21  C   UNL     1       1.538   2.301  -0.913  0.00  0.00    +0.019 C 
BRANCH  21  23
ATOM     22  C   UNL     1       3.600   3.304  -1.905  0.00  0.00    +0.004 C 
ATOM     23  C   UNL     1       2.873   2.978  -0.599  0.00  0.00    -0.002 C 
ENDBRANCH  21  23
ENDBRANCH  20  21
ENDBRANCH  15  20
ENDBRANCH   1  16
BRANCH   5  24
ATOM     24  N   UNL     1      -6.146   2.173  -1.846  0.00  0.00    -0.214 N 
ATOM     25  H   UNL     1      -6.919   2.696  -1.263  0.00  0.00    +0.174 HD
BRANCH  24  26
ATOM     26  S   UNL     1      -6.198   2.197  -3.501  0.00  0.00    +0.072 S 
ATOM     27  O   UNL     1      -7.364   2.926  -3.859  0.00  0.00    -0.150 OA
ATOM     28  O   UNL     1      -4.901   2.571  -3.943  0.00  0.00    -0.150 OA
BRANCH  26  29
ATOM     29  C   UNL     1      -6.456   0.539  -4.038  0.00  0.00    +0.109 A 
ATOM     30  C   UNL     1      -5.371  -0.280  -4.295  0.00  0.00    +0.032 A 
ATOM     31  C   UNL     1      -5.571  -1.582  -4.711  0.00  0.00    +0.047 A 
ATOM     32  C   UNL     1      -6.860  -2.064  -4.882  0.00  0.00    +0.121 A 
ATOM     33  C   UNL     1      -7.946  -1.239  -4.630  0.00  0.00    +0.047 A 
ATOM     34  C   UNL     1      -7.742   0.061  -4.209  0.00  0.00    +0.032 A 
BRANCH  32  35
ATOM     35  O   UNL     1      -7.059  -3.343  -5.297  0.00  0.00    -0.492 OA
BRANCH  35  36
ATOM     36  C   UNL     1      -5.894  -4.135  -5.537  0.00  0.00    +0.225 C 
ATOM     37  C   UNL     1      -6.314  -5.534  -5.993  0.00  0.00    +0.048 C 
ENDBRANCH  35  36
ENDBRANCH  32  35
ENDBRANCH  26  29
ENDBRANCH  24  26
ENDBRANCH   5  24
TORSDOF 11
