REMARK  Name = ZINC36218792
REMARK  8 active torsions:
REMARK  status: ('A' for Active; 'I' for Inactive)
REMARK    1  A    between atoms: C_1  and  C_2
REMARK    2  A    between atoms: C_5  and  C_8
REMARK    3  A    between atoms: C_8  and  N_9
REMARK    4  A    between atoms: C_10  and  C_27
REMARK    5  A    between atoms: C_12  and  C_17
REMARK    6  A    between atoms: C_21  and  N_23
REMARK    7  A    between atoms: C_24  and  C_26
REMARK    8  A    between atoms: N_29  and  C_30
REMARK                            x       y       z     vdW  Elec       q    Type
REMARK                         _______ _______ _______ _____ _____    ______ ____
ROOT
ATOM      1  N   UNL     1       2.255  -4.587   0.728  0.00  0.00    -0.248 N 
ATOM      2  C   UNL     1       2.497  -5.348  -0.514  0.00  0.00    +0.211 C 
ATOM      3  C   UNL     1       4.042  -5.351  -0.601  0.00  0.00    +0.238 C 
ATOM      4  O   UNL     1       4.420  -5.164   0.777  0.00  0.00    -0.440 OA
ATOM      5  C   UNL     1       3.422  -4.510   1.395  0.00  0.00    +0.405 C 
ATOM      6  O   UNL     1       3.557  -3.916   2.446  0.00  0.00    -0.226 OA
ENDROOT
BRANCH   3   7
ATOM      7  C   UNL     1       4.535  -4.211  -1.454  0.00  0.00    -0.003 A 
ATOM      8  C   UNL     1       4.723  -2.960  -0.894  0.00  0.00    +0.007 A 
ATOM      9  C   UNL     1       5.176  -1.912  -1.673  0.00  0.00    +0.002 A 
ATOM     10  C   UNL     1       5.442  -2.110  -3.014  0.00  0.00    +0.023 A 
ATOM     11  C   UNL     1       5.254  -3.364  -3.579  0.00  0.00    +0.034 A 
ATOM     12  C   UNL     1       4.804  -4.417  -2.792  0.00  0.00    +0.030 A 
BRANCH  11  13
ATOM     13  N   UNL     1       5.522  -3.569  -4.937  0.00  0.00    -0.286 N 
ATOM     14  C   UNL     1       6.514  -2.883  -5.539  0.00  0.00    +0.214 C 
ATOM     15  O   UNL     1       7.234  -2.159  -4.884  0.00  0.00    -0.276 OA
ATOM     16  C   UNL     1       6.728  -3.015  -7.024  0.00  0.00    +0.109 C 
ATOM     17  H   UNL     1       4.994  -4.204  -5.445  0.00  0.00    +0.155 HD
ENDBRANCH  11  13
ENDBRANCH   3   7
BRANCH   2  18
ATOM     18  C   UNL     1       1.959  -6.751  -0.397  0.00  0.00    +0.242 C 
ATOM     19  O   UNL     1       1.727  -7.222   0.696  0.00  0.00    -0.273 OA
ATOM     20  N   UNL     1       1.736  -7.482  -1.507  0.00  0.00    -0.284 N 
ATOM     21  H   UNL     1       1.991  -7.134  -2.376  0.00  0.00    +0.155 HD
BRANCH  20  22
ATOM     22  C   UNL     1       1.137  -8.743  -1.406  0.00  0.00    +0.034 A 
ATOM     23  C   UNL     1       1.492  -9.754  -2.290  0.00  0.00    +0.026 A 
ATOM     24  C   UNL     1       0.900 -10.998  -2.189  0.00  0.00    +0.040 A 
ATOM     25  C   UNL     1      -0.047 -11.237  -1.207  0.00  0.00    +0.124 A 
ATOM     26  C   UNL     1      -0.402 -10.230  -0.325  0.00  0.00    +0.040 A 
ATOM     27  C   UNL     1       0.192  -8.987  -0.419  0.00  0.00    +0.026 A 
ATOM     28  F   UNL     1      -0.626 -12.454  -1.110  0.00  0.00    -0.205 F 
ENDBRANCH  20  22
ENDBRANCH   2  18
BRANCH   1  29
ATOM     29  C   UNL     1       0.976  -4.013   1.154  0.00  0.00    +0.147 C 
BRANCH  29  34
ATOM     30  C   UNL     1       0.491   1.363  -0.907  0.00  0.00    +0.044 C 
ATOM     31  C   UNL     1       0.618  -0.039  -0.370  0.00  0.00    -0.050 A 
ATOM     32  C   UNL     1       0.155  -1.109  -1.113  0.00  0.00    +0.003 A 
ATOM     33  C   UNL     1       0.272  -2.395  -0.620  0.00  0.00    +0.005 A 
ATOM     34  C   UNL     1       0.851  -2.611   0.616  0.00  0.00    -0.030 A 
ATOM     35  C   UNL     1       1.314  -1.542   1.359  0.00  0.00    +0.005 A 
ATOM     36  C   UNL     1       1.202  -0.256   0.864  0.00  0.00    +0.003 A 
ENDBRANCH  29  34
ENDBRANCH   1  29
TORSDOF 6
