REMARK  Name = ZINC38903559
REMARK  6 active torsions:
REMARK  status: ('A' for Active; 'I' for Inactive)
REMARK    1  A    between atoms: N_7  and  S_8
REMARK    2  A    between atoms: S_8  and  C_11
REMARK    3  A    between atoms: C_14  and  N_17
REMARK    4  A    between atoms: N_17  and  C_18
REMARK    5  A    between atoms: C_19  and  C_20
REMARK    6  A    between atoms: C_20  and  C_22
REMARK                            x       y       z     vdW  Elec       q    Type
REMARK                         _______ _______ _______ _____ _____    ______ ____
ROOT
ATOM      1  C   UNL     1       7.016  -4.236  -0.085  0.00  0.00    +0.113 A 
ATOM      2  C   UNL     1       7.684  -4.351  -1.290  0.00  0.00    +0.031 A 
ATOM      3  C   UNL     1       9.042  -4.604  -1.307  0.00  0.00    +0.025 A 
ATOM      4  C   UNL     1       9.736  -4.743  -0.112  0.00  0.00    +0.031 A 
ATOM      5  C   UNL     1       9.061  -4.628   1.097  0.00  0.00    +0.025 A 
ATOM      6  C   UNL     1       7.704  -4.369   1.107  0.00  0.00    +0.031 A 
ENDROOT
BRANCH   1   7
ATOM      7  S   UNL     1       5.283  -3.914  -0.068  0.00  0.00    +0.100 S 
ATOM      8  O   UNL     1       4.794  -4.388   1.179  0.00  0.00    -0.146 OA
ATOM      9  O   UNL     1       4.772  -4.374  -1.312  0.00  0.00    -0.146 OA
BRANCH   7  16
ATOM     10  C   UNL     1      -0.016   1.347   0.009  0.00  0.00    +0.002 A 
ATOM     11  C   UNL     1       1.169   2.102   0.002  0.00  0.00    +0.002 A 
ATOM     12  C   UNL     1       2.395   1.536  -0.013  0.00  0.00    +0.030 A 
ATOM     13  C   UNL     1       2.534   0.125  -0.021  0.00  0.00    +0.089 A 
ATOM     14  N   UNL     1       3.732  -0.421  -0.035  0.00  0.00    -0.227 NA
ATOM     15  C   UNL     1       3.898  -1.753  -0.044  0.00  0.00    +0.170 C 
ATOM     16  N   UNL     1       5.092  -2.269  -0.057  0.00  0.00    -0.112 NA
ATOM     17  C   UNL     1       2.677  -2.645  -0.038  0.00  0.00    +0.191 C 
ATOM     18  N   UNL     1       1.355  -2.000  -0.022  0.00  0.00    -0.376 N 
ATOM     19  C   UNL     1       1.299  -0.697  -0.014  0.00  0.00    +0.061 A 
ATOM     20  C   UNL     1       0.002  -0.004   0.002  0.00  0.00    +0.027 A 
ATOM     21  H   UNL     1       0.544  -2.532  -0.018  0.00  0.00    +0.160 HD
ENDBRANCH   7  16
ENDBRANCH   1   7
BRANCH   4  22
ATOM     22  N   UNL     1      11.109  -5.000  -0.125  0.00  0.00    -0.320 N 
ATOM     23  H   UNL     1      11.579  -5.080  -0.970  0.00  0.00    +0.152 HD
BRANCH  22  24
ATOM     24  C   UNL     1      11.790  -5.137   1.052  0.00  0.00    +0.076 C 
ATOM     25  C   UNL     1      13.119  -5.385   1.039  0.00  0.00    +0.066 C 
BRANCH  25  26
ATOM     26  C   UNL     1      13.823  -5.527   2.256  0.00  0.00    +0.187 C 
ATOM     27  O   UNL     1      13.232  -5.426   3.317  0.00  0.00    -0.287 OA
BRANCH  26  28
ATOM     28  C   UNL     1      15.276  -5.798   2.241  0.00  0.00    +0.025 A 
ATOM     29  C   UNL     1      15.955  -5.909   1.026  0.00  0.00    +0.015 A 
ATOM     30  C   UNL     1      17.310  -6.161   1.015  0.00  0.00    +0.050 A 
ATOM     31  C   UNL     1      18.004  -6.306   2.209  0.00  0.00    +0.166 A 
ATOM     32  C   UNL     1      17.330  -6.197   3.426  0.00  0.00    +0.167 A 
ATOM     33  C   UNL     1      15.973  -5.939   3.443  0.00  0.00    +0.061 A 
ATOM     34  O   UNL     1      18.229  -6.378   4.438  0.00  0.00    -0.453 OA
ATOM     35  C   UNL     1      19.373  -7.003   3.828  0.00  0.00    +0.466 C 
ATOM     36  O   UNL     1      19.321  -6.554   2.461  0.00  0.00    -0.453 OA
ENDBRANCH  26  28
ENDBRANCH  25  26
ENDBRANCH  22  24
ENDBRANCH   4  22
TORSDOF 6
