REMARK  Name = ZINC12777016
REMARK  10 active torsions:
REMARK  status: ('A' for Active; 'I' for Inactive)
REMARK    1  A    between atoms: C_1  and  C_2
REMARK    2  A    between atoms: C_6  and  C_30
REMARK    3  A    between atoms: C_7  and  C_13
REMARK    4  A    between atoms: C_13  and  C_14
REMARK    5  A    between atoms: C_14  and  C_15
REMARK    6  A    between atoms: N_17  and  C_18
REMARK    7  A    between atoms: C_20  and  S_26
REMARK    8  A    between atoms: C_22  and  C_25
REMARK    9  A    between atoms: C_23  and  C_24
REMARK   10  A    between atoms: S_26  and  N_29
REMARK                            x       y       z     vdW  Elec       q    Type
REMARK                         _______ _______ _______ _____ _____    ______ ____
ROOT
ATOM      1  C   UNL     1      -3.768  -0.635   3.093  0.00  0.00    +0.218 C 
ATOM      2  O   UNL     1      -3.146  -0.973   2.108  0.00  0.00    -0.275 OA
ATOM      3  N   UNL     1      -3.492   0.539   3.695  0.00  0.00    -0.285 N 
ATOM      4  H   UNL     1      -3.944   0.780   4.519  0.00  0.00    +0.155 HD
ENDROOT
BRANCH   3   5
ATOM      5  C   UNL     1      -2.553   1.410   3.131  0.00  0.00    +0.038 A 
ATOM      6  C   UNL     1      -1.440   0.903   2.473  0.00  0.00    +0.052 A 
ATOM      7  C   UNL     1      -0.516   1.766   1.918  0.00  0.00    +0.107 A 
ATOM      8  C   UNL     1      -0.694   3.133   2.021  0.00  0.00    +0.032 A 
ATOM      9  C   UNL     1      -1.803   3.641   2.672  0.00  0.00    -0.044 A 
ATOM     10  C   UNL     1      -2.732   2.784   3.229  0.00  0.00    -0.026 A 
ATOM     11  C   UNL     1      -3.938   3.338   3.943  0.00  0.00    +0.046 C 
ATOM     12  C   UNL     1      -1.997   5.132   2.778  0.00  0.00    +0.044 C 
BRANCH   7  13
ATOM     13  S   UNL     1       0.896   1.123   1.082  0.00  0.00    +0.056 S 
ATOM     14  O   UNL     1       1.116  -0.182   1.601  0.00  0.00    -0.153 OA
ATOM     15  O   UNL     1       1.890   2.138   1.126  0.00  0.00    -0.153 OA
BRANCH  13  16
ATOM     16  N   UNL     1       0.480   0.936  -0.510  0.00  0.00    -0.204 NA
ATOM     17  H   UNL     1       0.517   0.058  -0.921  0.00  0.00    +0.144 HD
ATOM     18  H   UNL     1       0.200   1.704  -1.031  0.00  0.00    +0.144 HD
ENDBRANCH  13  16
ENDBRANCH   7  13
ENDBRANCH   3   5
BRANCH   1  19
ATOM     19  C   UNL     1      -4.851  -1.527   3.642  0.00  0.00    +0.101 C 
BRANCH  19  20
ATOM     20  C   UNL     1      -4.961  -2.786   2.780  0.00  0.00    +0.052 C 
BRANCH  20  27
ATOM     21  C   UNL     1     -11.272  -7.053   5.133  0.00  0.00    +0.044 C 
ATOM     22  C   UNL     1     -10.233  -6.133   4.546  0.00  0.00    -0.047 A 
ATOM     23  C   UNL     1     -10.606  -5.193   3.596  0.00  0.00    +0.004 A 
ATOM     24  C   UNL     1      -9.677  -4.350   3.052  0.00  0.00    +0.012 A 
ATOM     25  C   UNL     1      -8.342  -4.435   3.458  0.00  0.00    +0.021 A 
ATOM     26  C   UNL     1      -7.322  -3.545   2.895  0.00  0.00    -0.030 A 
ATOM     27  C   UNL     1      -6.044  -3.679   3.330  0.00  0.00    +0.041 A 
ATOM     28  C   UNL     1      -5.730  -4.660   4.296  0.00  0.00    +0.341 A 
ATOM     29  O   UNL     1      -4.579  -4.773   4.674  0.00  0.00    -0.245 OA
ATOM     30  O   UNL     1      -6.670  -5.468   4.811  0.00  0.00    -0.422 OA
ATOM     31  C   UNL     1      -7.960  -5.386   4.420  0.00  0.00    +0.140 A 
ATOM     32  C   UNL     1      -8.921  -6.233   4.959  0.00  0.00    +0.050 A 
ATOM     33  C   UNL     1      -7.684  -2.510   1.861  0.00  0.00    +0.045 C 
ENDBRANCH  20  27
ENDBRANCH  19  20
ENDBRANCH   1  19
TORSDOF 6
