REMARK  Name = ZINC14765750
REMARK  9 active torsions:
REMARK  status: ('A' for Active; 'I' for Inactive)
REMARK    1  A    between atoms: C_1  and  N_2
REMARK    2  A    between atoms: C_3  and  C_21
REMARK    3  A    between atoms: N_7  and  C_20
REMARK    4  A    between atoms: C_8  and  C_11
REMARK    5  A    between atoms: C_8  and  O_19
REMARK    6  A    between atoms: C_11  and  C_12
REMARK    7  A    between atoms: C_16  and  O_18
REMARK    8  A    between atoms: C_21  and  C_22
REMARK    9  A    between atoms: C_28  and  N_32
REMARK                            x       y       z     vdW  Elec       q    Type
REMARK                         _______ _______ _______ _____ _____    ______ ____
ROOT
ATOM      1  C   UNL     1      -2.524   3.922   4.236  0.00  0.00    +0.133 C 
ATOM      2  N   UNL     1      -1.859   3.027   3.285  0.00  0.00    -0.289 N 
ATOM      3  C   UNL     1      -2.673   2.333   2.296  0.00  0.00    +0.166 C 
ATOM      4  C   UNL     1      -1.840   1.860   1.143  0.00  0.00    +0.239 C 
ATOM      5  O   UNL     1      -2.392   1.601   0.095  0.00  0.00    -0.273 OA
ATOM      6  N   UNL     1      -0.515   1.707   1.224  0.00  0.00    -0.267 N 
ATOM      7  C   UNL     1       0.241   1.995   2.436  0.00  0.00    +0.217 C 
ATOM      8  C   UNL     1      -0.533   2.884   3.362  0.00  0.00    +0.267 C 
ATOM      9  O   UNL     1       0.070   3.498   4.217  0.00  0.00    -0.271 OA
ATOM     10  C   UNL     1       0.210   1.236   0.042  0.00  0.00    +0.135 C 
ENDROOT
BRANCH   7  11
ATOM     11  O   UNL     1       1.465   2.641   2.081  0.00  0.00    -0.364 OA
ATOM     12  H   UNL     1       1.347   3.477   1.609  0.00  0.00    +0.213 HD
ENDBRANCH   7  11
BRANCH   7  13
ATOM     13  C   UNL     1       0.558   0.681   3.153  0.00  0.00    +0.100 C 
BRANCH  13  14
ATOM     14  C   UNL     1       1.232   0.976   4.468  0.00  0.00    -0.039 A 
ATOM     15  C   UNL     1       2.610   1.069   4.532  0.00  0.00    +0.004 A 
ATOM     16  C   UNL     1       3.231   1.344   5.736  0.00  0.00    +0.004 A 
ATOM     17  C   UNL     1       2.477   1.517   6.880  0.00  0.00    +0.045 A 
ATOM     18  C   UNL     1       1.094   1.419   6.819  0.00  0.00    +0.117 A 
ATOM     19  C   UNL     1       0.473   1.148   5.609  0.00  0.00    +0.049 A 
BRANCH  18  20
ATOM     20  O   UNL     1       0.350   1.589   7.944  0.00  0.00    -0.507 OA
ATOM     21  H   UNL     1       0.188   0.772   8.435  0.00  0.00    +0.292 HD
ENDBRANCH  18  20
ENDBRANCH  13  14
ENDBRANCH   7  13
BRANCH   3  22
ATOM     22  C   UNL     1      -3.348   1.130   2.959  0.00  0.00    +0.069 C 
BRANCH  22  23
ATOM     23  C   UNL     1      -4.224   0.429   1.953  0.00  0.00    -0.018 A 
ATOM     24  C   UNL     1      -3.963  -0.738   1.343  0.00  0.00    +0.087 A 
ATOM     25  N   UNL     1      -4.989  -1.062   0.497  0.00  0.00    -0.360 N 
ATOM     26  H   UNL     1      -5.028  -1.861  -0.052  0.00  0.00    +0.165 HD
ATOM     27  C   UNL     1      -5.956  -0.082   0.537  0.00  0.00    +0.049 A 
ATOM     28  C   UNL     1      -5.519   0.895   1.451  0.00  0.00    +0.033 A 
ATOM     29  C   UNL     1      -6.308   2.020   1.698  0.00  0.00    +0.136 A 
ATOM     30  C   UNL     1      -7.501   2.167   1.049  0.00  0.00    +0.033 A 
ATOM     31  C   UNL     1      -7.937   1.207   0.147  0.00  0.00    +0.004 A 
ATOM     32  C   UNL     1      -7.175   0.088  -0.111  0.00  0.00    +0.026 A 
BRANCH  29  33
ATOM     33  N   UNL     1      -5.852   3.050   2.659  0.00  0.00    +0.057 N 
ATOM     34  O   UNL     1      -6.479   4.086   2.783  0.00  0.00    -0.126 OA
ATOM     35  O   UNL     1      -4.851   2.860   3.325  0.00  0.00    -0.126 OA
ENDBRANCH  29  33
ENDBRANCH  22  23
ENDBRANCH   3  22
TORSDOF 7
