REMARK  Name = ZINC09449626
REMARK  9 active torsions:
REMARK  status: ('A' for Active; 'I' for Inactive)
REMARK    1  A    between atoms: C_1  and  C_2
REMARK    2  A    between atoms: N_4  and  C_5
REMARK    3  A    between atoms: C_8  and  N_11
REMARK    4  A    between atoms: C_12  and  C_14
REMARK    5  A    between atoms: C_14  and  S_15
REMARK    6  A    between atoms: S_15  and  C_16
REMARK    7  A    between atoms: C_19  and  C_22
REMARK    8  A    between atoms: N_20  and  N_21
REMARK    9  A    between atoms: C_24  and  C_28
REMARK                            x       y       z     vdW  Elec       q    Type
REMARK                         _______ _______ _______ _____ _____    ______ ____
ROOT
ATOM      1  C   UNL     1      -3.002 -10.989  -0.249  0.00  0.00    +0.209 A 
ATOM      2  N   UNL     1      -1.824 -11.566  -0.182  0.00  0.00    -0.120 NA
ATOM      3  N   UNL     1      -1.953 -12.842  -0.261  0.00  0.00    -0.125 NA
ATOM      4  C   UNL     1      -3.221 -13.158  -0.383  0.00  0.00    +0.202 A 
ATOM      5  N   UNL     1      -3.933 -11.981  -0.373  0.00  0.00    -0.222 N 
ENDROOT
BRANCH   4   6
ATOM      6  C   UNL     1      -3.779 -14.522  -0.503  0.00  0.00    +0.132 A 
ATOM      7  C   UNL     1      -3.040 -15.719  -0.500  0.00  0.00    +0.061 A 
ATOM      8  C   UNL     1      -3.920 -16.753  -0.630  0.00  0.00    +0.066 A 
ATOM      9  N   UNL     1      -5.173 -16.220  -0.712  0.00  0.00    -0.276 N 
ATOM     10  H   UNL     1      -5.999 -16.718  -0.809  0.00  0.00    +0.189 HD
ATOM     11  N   UNL     1      -5.056 -14.826  -0.625  0.00  0.00    -0.170 NA
BRANCH   8  12
ATOM     12  C   UNL     1      -3.578 -18.192  -0.675  0.00  0.00    -0.000 A 
ATOM     13  C   UNL     1      -2.247 -18.598  -0.574  0.00  0.00    +0.013 A 
ATOM     14  C   UNL     1      -1.933 -19.941  -0.616  0.00  0.00    +0.039 A 
ATOM     15  C   UNL     1      -2.938 -20.885  -0.758  0.00  0.00    +0.123 A 
ATOM     16  C   UNL     1      -4.261 -20.487  -0.858  0.00  0.00    +0.039 A 
ATOM     17  C   UNL     1      -4.585 -19.147  -0.812  0.00  0.00    +0.013 A 
ATOM     18  F   UNL     1      -2.625 -22.199  -0.798  0.00  0.00    -0.205 F 
ENDBRANCH   8  12
ENDBRANCH   4   6
BRANCH   5  19
ATOM     19  N   UNL     1      -5.287 -11.835  -0.470  0.00  0.00    -0.295 N 
ATOM     20  H   UNL     1      -5.573 -11.748  -1.434  0.00  0.00    +0.163 HD
ATOM     21  H   UNL     1      -5.767 -12.599  -0.019  0.00  0.00    +0.163 HD
ENDBRANCH   5  19
BRANCH   1  22
ATOM     22  S   UNL     1      -3.323  -9.257  -0.183  0.00  0.00    -0.075 S 
BRANCH  22  23
ATOM     23  C   UNL     1      -1.678  -8.512  -0.017  0.00  0.00    +0.173 C 
BRANCH  23  25
ATOM     24  N   UNL     1      -0.710  -6.244   0.177  0.00  0.00    -0.285 N 
ATOM     25  C   UNL     1      -1.810  -7.012   0.052  0.00  0.00    +0.227 C 
ATOM     26  O   UNL     1      -2.906  -6.497  -0.006  0.00  0.00    -0.275 OA
ATOM     27  H   UNL     1       0.160  -6.657   0.291  0.00  0.00    +0.155 HD
BRANCH  24  31
ATOM     28  C   UNL     1      -1.047  -2.089   0.076  0.00  0.00    +0.033 A 
ATOM     29  C   UNL     1       0.068  -2.709  -0.474  0.00  0.00    +0.025 A 
ATOM     30  C   UNL     1       0.179  -4.084  -0.440  0.00  0.00    +0.025 A 
ATOM     31  C   UNL     1      -0.823  -4.848   0.143  0.00  0.00    +0.034 A 
ATOM     32  C   UNL     1      -1.938  -4.228   0.693  0.00  0.00    +0.025 A 
ATOM     33  C   UNL     1      -2.047  -2.853   0.664  0.00  0.00    +0.025 A 
BRANCH  28  37
ATOM     34  C   UNL     1      -1.766   1.468   1.081  0.00  0.00    +0.109 C 
ATOM     35  C   UNL     1      -1.737  -0.038   1.069  0.00  0.00    +0.214 C 
ATOM     36  O   UNL     1      -2.232  -0.662   1.984  0.00  0.00    -0.276 OA
ATOM     37  N   UNL     1      -1.161  -0.693   0.042  0.00  0.00    -0.286 N 
ATOM     38  H   UNL     1      -0.824  -0.198  -0.722  0.00  0.00    +0.155 HD
ENDBRANCH  28  37
ENDBRANCH  24  31
ENDBRANCH  23  25
ENDBRANCH  22  23
ENDBRANCH   1  22
TORSDOF 8
