REMARK  Name = ZINC36585784
REMARK  14 active torsions:
REMARK  status: ('A' for Active; 'I' for Inactive)
REMARK    1  A    between atoms: C_1  and  C_2
REMARK    2  A    between atoms: C_2  and  C_3
REMARK    3  A    between atoms: C_2  and  C_4
REMARK    4  A    between atoms: C_2  and  N_5
REMARK    5  A    between atoms: C_6  and  C_8
REMARK    6  A    between atoms: C_8  and  C_10
REMARK    7  A    between atoms: C_8  and  N_17
REMARK    8  A    between atoms: C_14  and  O_16
REMARK    9  A    between atoms: N_17  and  C_30
REMARK   10  A    between atoms: C_18  and  C_20
REMARK   11  A    between atoms: C_22  and  N_27
REMARK   12  A    between atoms: C_30  and  C_31
REMARK   13  A    between atoms: C_30  and  C_32
REMARK   14  A    between atoms: C_30  and  C_33
REMARK                            x       y       z     vdW  Elec       q    Type
REMARK                         _______ _______ _______ _____ _____    ______ ____
ROOT
ATOM      1  C   UNL     1       4.543   1.399  -0.865  0.00  0.00    +0.193 C 
ENDROOT
BRANCH   1   2
ATOM      2  C   UNL     1       3.100   1.707  -1.172  0.00  0.00    -0.015 A 
ATOM      3  C   UNL     1       2.751   2.220  -2.408  0.00  0.00    +0.006 A 
ATOM      4  C   UNL     1       1.428   2.503  -2.693  0.00  0.00    +0.004 A 
ATOM      5  C   UNL     1       0.451   2.273  -1.743  0.00  0.00    +0.045 A 
ATOM      6  C   UNL     1       0.798   1.758  -0.503  0.00  0.00    +0.117 A 
ATOM      7  C   UNL     1       2.126   1.470  -0.221  0.00  0.00    +0.051 A 
BRANCH   6   8
ATOM      8  O   UNL     1      -0.161   1.531   0.433  0.00  0.00    -0.507 OA
ATOM      9  H   UNL     1      -0.547   0.646   0.394  0.00  0.00    +0.292 HD
ENDBRANCH   6   8
ENDBRANCH   1   2
BRANCH   1  11
ATOM     10  N   UNL     1       4.407   2.803   1.168  0.00  0.00    -0.309 N 
ATOM     11  C   UNL     1       5.094   2.452   0.063  0.00  0.00    +0.239 C 
ATOM     12  O   UNL     1       6.156   2.983  -0.185  0.00  0.00    -0.273 OA
ATOM     13  H   UNL     1       3.557   2.378   1.366  0.00  0.00    +0.149 HD
BRANCH  10  15
ATOM     14  C   UNL     1       5.111   5.141   1.305  0.00  0.00    +0.031 C 
ATOM     15  C   UNL     1       4.942   3.826   2.069  0.00  0.00    +0.026 C 
ATOM     16  C   UNL     1       6.301   3.371   2.607  0.00  0.00    +0.031 C 
ATOM     17  C   UNL     1       3.975   4.035   3.236  0.00  0.00    +0.031 C 
ENDBRANCH  10  15
ENDBRANCH   1  11
BRANCH   1  18
ATOM     18  N   UNL     1       5.316   1.391  -2.109  0.00  0.00    -0.277 N 
ATOM     19  C   UNL     1       5.887   2.528  -2.554  0.00  0.00    +0.252 C 
ATOM     20  O   UNL     1       5.342   3.598  -2.364  0.00  0.00    -0.270 OA
BRANCH  19  21
ATOM     21  C   UNL     1       7.174   2.474  -3.274  0.00  0.00    +0.086 A 
ATOM     22  C   UNL     1       7.624   1.268  -3.819  0.00  0.00    +0.049 A 
ATOM     23  C   UNL     1       8.827   1.224  -4.490  0.00  0.00    +0.127 A 
ATOM     24  C   UNL     1       9.594   2.370  -4.626  0.00  0.00    +0.036 A 
ATOM     25  C   UNL     1       9.161   3.567  -4.092  0.00  0.00    +0.054 A 
ATOM     26  C   UNL     1       7.950   3.632  -3.419  0.00  0.00    +0.191 A 
ATOM     27  O   UNL     1       7.521   4.809  -2.899  0.00  0.00    -0.287 OA
BRANCH  23  28
ATOM     28  N   UNL     1       9.302  -0.053  -5.067  0.00  0.00    +0.056 N 
ATOM     29  O   UNL     1       8.592  -1.031  -5.037  0.00  0.00    -0.126 OA
ATOM     30  O   UNL     1      10.401  -0.119  -5.567  0.00  0.00    -0.126 OA
ENDBRANCH  23  28
ENDBRANCH  19  21
BRANCH  18  31
ATOM     31  C   UNL     1       5.468   0.148  -2.869  0.00  0.00    +0.030 C 
ATOM     32  C   UNL     1       4.243  -0.740  -2.645  0.00  0.00    +0.031 C 
ATOM     33  C   UNL     1       5.597   0.473  -4.358  0.00  0.00    +0.031 C 
ATOM     34  C   UNL     1       6.724  -0.588  -2.397  0.00  0.00    +0.031 C 
ENDBRANCH  18  31
ENDBRANCH   1  18
TORSDOF 8
