REMARK  Name = ZINC13978451
REMARK  9 active torsions:
REMARK  status: ('A' for Active; 'I' for Inactive)
REMARK    1  A    between atoms: C_1  and  O_2
REMARK    2  A    between atoms: O_2  and  C_3
REMARK    3  A    between atoms: C_3  and  C_5
REMARK    4  A    between atoms: C_9  and  N_10
REMARK    5  A    between atoms: N_10  and  C_11
REMARK    6  A    between atoms: C_11  and  N_13
REMARK    7  A    between atoms: C_14  and  C_16
REMARK    8  A    between atoms: C_16  and  O_17
REMARK    9  A    between atoms: O_17  and  C_18
REMARK                            x       y       z     vdW  Elec       q    Type
REMARK                         _______ _______ _______ _____ _____    ______ ____
ROOT
ATOM      1  C   UNL     1       5.162  -2.690  -0.064  0.00  0.00    +0.141 C 
ATOM      2  S   UNL     1       6.504  -1.627  -0.071  0.00  0.00    -0.018 S 
ENDROOT
BRANCH   1   3
ATOM      3  N   UNL     1       3.909  -2.193  -0.049  0.00  0.00    -0.265 N 
ATOM      4  C   UNL     1       3.713  -0.860  -0.040  0.00  0.00    +0.256 C 
ATOM      5  O   UNL     1       4.663  -0.107  -0.044  0.00  0.00    -0.272 OA
ATOM      6  H   UNL     1       3.149  -2.795  -0.045  0.00  0.00    +0.157 HD
BRANCH   4   7
ATOM      7  C   UNL     1       2.312  -0.304  -0.023  0.00  0.00    +0.325 C 
BRANCH   7   8
ATOM      8  O   UNL     1       2.366   1.124  -0.015  0.00  0.00    -0.481 OA
BRANCH   8   9
ATOM      9  C   UNL     1       1.179   1.786   0.000  0.00  0.00    +0.139 A 
ATOM     10  C   UNL     1      -0.013   1.076   0.008  0.00  0.00    +0.048 A 
ATOM     11  C   UNL     1      -1.218   1.751   0.017  0.00  0.00    +0.019 A 
ATOM     12  C   UNL     1      -1.238   3.134   0.030  0.00  0.00    +0.019 A 
ATOM     13  C   UNL     1      -0.051   3.845   0.023  0.00  0.00    +0.039 A 
ATOM     14  C   UNL     1       1.157   3.174   0.008  0.00  0.00    +0.084 A 
ATOM     15 CL   UNL     1       2.646   4.066  -0.002  0.00  0.00    -0.080 Cl
ATOM     16 BR   UNL     1      -2.890   4.054   0.050  0.00  0.00    -0.050 Br
ENDBRANCH   8   9
ENDBRANCH   7   8
ENDBRANCH   4   7
ENDBRANCH   1   3
BRANCH   1  17
ATOM     17  N   UNL     1       5.358  -4.023  -0.074  0.00  0.00    -0.290 N 
ATOM     18  H   UNL     1       4.598  -4.625  -0.070  0.00  0.00    +0.154 HD
BRANCH  17  23
ATOM     19  C   UNL     1       7.047  -5.863  -0.095  0.00  0.00    +0.091 A 
ATOM     20  C   UNL     1       8.475  -6.133  -0.117  0.00  0.00    -0.021 A 
ATOM     21  C   UNL     1       9.267  -5.039  -0.117  0.00  0.00    -0.004 A 
ATOM     22  S   UNL     1       8.147  -3.668  -0.098  0.00  0.00    -0.077 S 
ATOM     23  C   UNL     1       6.646  -4.534  -0.089  0.00  0.00    +0.086 A 
ATOM     24  C   UNL     1      10.764  -5.008  -0.131  0.00  0.00    +0.043 C 
ATOM     25  C   UNL     1      11.281  -6.407   0.234  0.00  0.00    +0.005 C 
ATOM     26  C   UNL     1      10.526  -7.445  -0.602  0.00  0.00    +0.005 C 
ATOM     27  C   UNL     1       9.073  -7.534  -0.132  0.00  0.00    +0.037 C 
BRANCH  19  28
ATOM     28  C   UNL     1       6.069  -6.952  -0.084  0.00  0.00    +0.342 C 
ATOM     29  O   UNL     1       5.650  -7.404  -1.133  0.00  0.00    -0.245 OA
BRANCH  28  31
ATOM     30  C   UNL     1       4.662  -8.533   1.024  0.00  0.00    +0.280 C 
ATOM     31  O   UNL     1       5.632  -7.454   1.089  0.00  0.00    -0.464 OA
ENDBRANCH  28  31
ENDBRANCH  19  28
ENDBRANCH  17  23
ENDBRANCH   1  17
TORSDOF 8
