REMARK  Name = ZINC65542762
REMARK  6 active torsions:
REMARK  status: ('A' for Active; 'I' for Inactive)
REMARK    1  A    between atoms: C_4  and  N_24
REMARK    2  A    between atoms: C_5  and  C_7
REMARK    3  A    between atoms: C_8  and  C_9
REMARK    4  A    between atoms: N_11  and  C_12
REMARK    5  A    between atoms: C_12  and  C_14
REMARK    6  A    between atoms: C_12  and  C_16
REMARK                            x       y       z     vdW  Elec       q    Type
REMARK                         _______ _______ _______ _____ _____    ______ ____
ROOT
ATOM      1  C   UNL     1      -0.145  -3.404   0.980  0.00  0.00    +0.238 C 
ATOM      2  O   UNL     1       0.797  -4.161   1.122  0.00  0.00    -0.271 OA
ATOM      3  N   UNL     1      -1.405  -3.867   1.099  0.00  0.00    -0.293 N 
ATOM      4  H   UNL     1      -2.156  -3.264   0.987  0.00  0.00    +0.151 HD
ENDROOT
BRANCH   1   6
ATOM      5  C   UNL     1       1.350  -1.527   0.561  0.00  0.00    +0.015 C 
ATOM      6  C   UNL     1       0.090  -1.990   0.680  0.00  0.00    +0.068 C 
BRANCH   5  11
ATOM      7  C   UNL     1       0.784   2.156   0.128  0.00  0.00    +0.001 A 
ATOM      8  C   UNL     1       2.030   2.569  -0.309  0.00  0.00    +0.002 A 
ATOM      9  C   UNL     1       3.056   1.653  -0.463  0.00  0.00    +0.033 A 
ATOM     10  C   UNL     1       2.843   0.320  -0.182  0.00  0.00    +0.133 A 
ATOM     11  C   UNL     1       1.586  -0.105   0.260  0.00  0.00    +0.005 A 
ATOM     12  C   UNL     1       0.555   0.827   0.413  0.00  0.00    +0.010 A 
BRANCH  10  13
ATOM     13  N   UNL     1       3.941  -0.658  -0.348  0.00  0.00    +0.057 N 
ATOM     14  O   UNL     1       5.072  -0.354  -0.047  0.00  0.00    -0.126 OA
ATOM     15  O   UNL     1       3.708  -1.762  -0.784  0.00  0.00    -0.126 OA
ENDBRANCH  10  13
ENDBRANCH   5  11
ENDBRANCH   1   6
BRANCH   3  16
ATOM     16  C   UNL     1      -1.640  -5.282   1.400  0.00  0.00    +0.210 C 
BRANCH  16  17
ATOM     17  C   UNL     1      -2.989  -5.691   0.867  0.00  0.00    +0.022 A 
ATOM     18  C   UNL     1      -3.994  -4.751   0.735  0.00  0.00    +0.012 A 
ATOM     19  C   UNL     1      -5.231  -5.124   0.246  0.00  0.00    +0.039 A 
ATOM     20  C   UNL     1      -5.466  -6.441  -0.112  0.00  0.00    +0.126 A 
ATOM     21  C   UNL     1      -4.461  -7.383   0.019  0.00  0.00    +0.077 A 
ATOM     22  C   UNL     1      -3.220  -7.007   0.504  0.00  0.00    +0.132 A 
ATOM     23  F   UNL     1      -2.236  -7.924   0.627  0.00  0.00    -0.205 F 
ATOM     24  F   UNL     1      -6.676  -6.806  -0.589  0.00  0.00    -0.205 F 
ENDBRANCH  16  17
BRANCH  16  25
ATOM     25  C   UNL     1      -1.606  -5.486   2.857  0.00  0.00    +0.090 C 
ATOM     26  N   UNL     1      -1.579  -5.644   3.982  0.00  0.00    -0.194 NA
ENDBRANCH  16  25
ENDBRANCH   3  16
TORSDOF 6
