REMARK  Name = ZINC48290454
REMARK  7 active torsions:
REMARK  status: ('A' for Active; 'I' for Inactive)
REMARK    1  A    between atoms: C_4  and  C_7
REMARK    2  A    between atoms: C_10  and  N_13
REMARK    3  A    between atoms: N_16  and  C_17
REMARK    4  A    between atoms: N_16  and  C_25
REMARK    5  A    between atoms: C_17  and  C_18
REMARK    6  A    between atoms: C_23  and  O_24
REMARK    7  A    between atoms: C_25  and  C_26
REMARK                            x       y       z     vdW  Elec       q    Type
REMARK                         _______ _______ _______ _____ _____    ______ ____
ROOT
ATOM      1  N   UNL     1       7.341  -2.716  -0.085  0.00  0.00    -0.269 N 
ATOM      2  C   UNL     1       7.365  -4.060   0.004  0.00  0.00    +0.307 C 
ATOM      3  O   UNL     1       6.324  -4.688   0.007  0.00  0.00    -0.252 OA
ATOM      4  N   UNL     1       8.543  -4.709   0.091  0.00  0.00    -0.278 N 
ATOM      5  H   UNL     1       8.171  -2.220  -0.165  0.00  0.00    +0.156 HD
ENDROOT
BRANCH   1   9
ATOM      6  C   UNL     1       3.700  -0.687  -0.019  0.00  0.00    -0.018 A 
ATOM      7  C   UNL     1       3.859  -1.860   0.718  0.00  0.00    +0.010 A 
ATOM      8  C   UNL     1       5.064  -2.529   0.694  0.00  0.00    +0.024 A 
ATOM      9  C   UNL     1       6.120  -2.035  -0.063  0.00  0.00    +0.035 A 
ATOM     10  C   UNL     1       5.963  -0.866  -0.798  0.00  0.00    +0.024 A 
ATOM     11  C   UNL     1       4.758  -0.197  -0.782  0.00  0.00    +0.010 A 
BRANCH   6  15
ATOM     12  C   UNL     1      -0.015   1.381   0.048  0.00  0.00    +0.000 A 
ATOM     13  C   UNL     1       0.141   0.221   0.784  0.00  0.00    +0.001 A 
ATOM     14  C   UNL     1       1.344  -0.455   0.766  0.00  0.00    +0.008 A 
ATOM     15  C   UNL     1       2.404   0.034   0.004  0.00  0.00    -0.018 A 
ATOM     16  C   UNL     1       2.241   1.204  -0.737  0.00  0.00    +0.008 A 
ATOM     17  C   UNL     1       1.033   1.871  -0.711  0.00  0.00    +0.001 A 
ENDBRANCH   6  15
ENDBRANCH   1   9
BRANCH   4  18
ATOM     18  C   UNL     1       8.570  -6.170   0.188  0.00  0.00    +0.148 C 
BRANCH  18  19
ATOM     19  C   UNL     1       8.631  -6.765  -1.196  0.00  0.00    +0.011 A 
ATOM     20  C   UNL     1       7.483  -7.247  -1.793  0.00  0.00    +0.009 A 
ATOM     21  C   UNL     1       7.539  -7.793  -3.062  0.00  0.00    +0.001 A 
ATOM     22  C   UNL     1       8.744  -7.857  -3.737  0.00  0.00    +0.004 A 
ATOM     23  C   UNL     1       9.895  -7.376  -3.145  0.00  0.00    +0.046 A 
ATOM     24  C   UNL     1       9.841  -6.823  -1.873  0.00  0.00    +0.122 A 
BRANCH  24  25
ATOM     25  O   UNL     1      10.971  -6.344  -1.290  0.00  0.00    -0.506 OA
ATOM     26  H   UNL     1      11.455  -7.001  -0.772  0.00  0.00    +0.292 HD
ENDBRANCH  24  25
ENDBRANCH  18  19
ENDBRANCH   4  18
BRANCH   4  27
ATOM     27  C   UNL     1       9.798  -3.953   0.088  0.00  0.00    +0.141 C 
BRANCH  27  28
ATOM     28  C   UNL     1      10.181  -3.595   1.525  0.00  0.00    +0.136 C 
ATOM     29  C   UNL     1      11.436  -2.695   1.524  0.00  0.00    +0.035 C 
ATOM     30  C   UNL     1      12.230  -3.235   2.745  0.00  0.00    +0.031 C 
ATOM     31  C   UNL     1      11.872  -4.742   2.685  0.00  0.00    +0.160 C 
ATOM     32  O   UNL     1      10.501  -4.786   2.253  0.00  0.00    -0.375 OA
ENDBRANCH  27  28
ENDBRANCH   4  27
TORSDOF 7
