REMARK  Name = ZINC07321463
REMARK  9 active torsions:
REMARK  status: ('A' for Active; 'I' for Inactive)
REMARK    1  A    between atoms: C_1  and  C_2
REMARK    2  A    between atoms: C_2  and  C_3
REMARK    3  A    between atoms: C_3  and  N_4
REMARK    4  A    between atoms: C_5  and  N_27
REMARK    5  A    between atoms: C_6  and  C_13
REMARK    6  A    between atoms: N_9  and  C_12
REMARK    7  A    between atoms: N_18  and  C_19
REMARK    8  A    between atoms: C_22  and  C_26
REMARK    9  A    between atoms: C_23  and  C_25
REMARK                            x       y       z     vdW  Elec       q    Type
REMARK                         _______ _______ _______ _____ _____    ______ ____
ROOT
ATOM      1  N   UNL     1       0.823  -1.877  -1.302  0.00  0.00    -0.281 N 
ATOM      2  C   UNL     1      -0.105  -2.602  -2.009  0.00  0.00    +0.115 A 
ATOM      3  C   UNL     1       0.153  -3.937  -2.291  0.00  0.00    +0.103 A 
ATOM      4  C   UNL     1       1.366  -4.505  -1.838  0.00  0.00    +0.267 A 
ATOM      5  O   UNL     1       1.621  -5.674  -2.069  0.00  0.00    -0.267 OA
ATOM      6  N   UNL     1       2.237  -3.742  -1.148  0.00  0.00    -0.263 N 
ATOM      7  C   UNL     1       1.968  -2.450  -0.891  0.00  0.00    +0.333 A 
ATOM      8  O   UNL     1       2.776  -1.786  -0.271  0.00  0.00    -0.246 OA
ATOM      9  C   UNL     1       3.494  -4.327  -0.677  0.00  0.00    +0.157 C 
ENDROOT
BRANCH   3  10
ATOM     10  C   UNL     1      -0.826  -4.751  -3.053  0.00  0.00    +0.089 A 
ATOM     11  C   UNL     1      -0.621  -6.086  -3.258  0.00  0.00    +0.077 A 
ATOM     12  S   UNL     1      -2.079  -6.506  -4.201  0.00  0.00    -0.060 S 
ATOM     13  C   UNL     1      -2.796  -4.926  -4.233  0.00  0.00    +0.163 A 
ATOM     14  N   UNL     1      -1.927  -4.206  -3.550  0.00  0.00    -0.224 NA
ATOM     15  N   UNL     1      -3.985  -4.523  -4.821  0.00  0.00    -0.294 N 
ATOM     16  H   UNL     1      -4.228  -3.584  -4.831  0.00  0.00    +0.154 HD
BRANCH  15  17
ATOM     17  C   UNL     1      -4.834  -5.470  -5.401  0.00  0.00    +0.033 A 
ATOM     18  C   UNL     1      -4.929  -6.745  -4.858  0.00  0.00    +0.023 A 
ATOM     19  C   UNL     1      -5.768  -7.678  -5.433  0.00  0.00    +0.005 A 
ATOM     20  C   UNL     1      -6.513  -7.345  -6.550  0.00  0.00    -0.047 A 
ATOM     21  C   UNL     1      -6.421  -6.077  -7.093  0.00  0.00    -0.046 A 
ATOM     22  C   UNL     1      -5.588  -5.137  -6.519  0.00  0.00    +0.027 A 
ATOM     23  C   UNL     1      -7.235  -5.718  -8.310  0.00  0.00    +0.044 C 
ATOM     24  C   UNL     1      -7.428  -8.366  -7.176  0.00  0.00    +0.044 C 
ENDBRANCH  15  17
ENDBRANCH   3  10
BRANCH   2  25
ATOM     25  N   UNL     1      -1.269  -2.015  -2.432  0.00  0.00    -0.344 N 
ATOM     26  H   UNL     1      -1.728  -2.357  -3.215  0.00  0.00    +0.144 HD
ATOM     27  H   UNL     1      -1.634  -1.258  -1.948  0.00  0.00    +0.144 HD
ENDBRANCH   2  25
BRANCH   1  28
ATOM     28  C   UNL     1       0.565  -0.468  -0.997  0.00  0.00    +0.128 C 
BRANCH  28  30
ATOM     29  C   UNL     1      -0.436   1.111   0.662  0.00  0.00    +0.005 C 
ATOM     30  C   UNL     1      -0.167  -0.361   0.343  0.00  0.00    +0.018 C 
ENDBRANCH  28  30
ENDBRANCH   1  28
TORSDOF 5
