REMARK  Name = ZINC00891481
REMARK  10 active torsions:
REMARK  status: ('A' for Active; 'I' for Inactive)
REMARK    1  A    between atoms: C_1  and  C_2
REMARK    2  A    between atoms: C_7  and  C_8
REMARK    3  A    between atoms: C_8  and  C_9
REMARK    4  A    between atoms: C_9  and  N_10
REMARK    5  A    between atoms: N_10  and  C_11
REMARK    6  A    between atoms: N_10  and  C_28
REMARK    7  A    between atoms: C_11  and  C_12
REMARK    8  A    between atoms: C_28  and  N_30
REMARK    9  A    between atoms: N_30  and  C_31
REMARK   10  A    between atoms: C_31  and  C_32
REMARK                            x       y       z     vdW  Elec       q    Type
REMARK                         _______ _______ _______ _____ _____    ______ ____
ROOT
ATOM      1  N   UNL     1      -2.686   2.940   1.456  0.00  0.00    -0.308 N 
ENDROOT
BRANCH   1   2
ATOM      2  C   UNL     1      -3.860   2.334   1.187  0.00  0.00    +0.133 C 
ATOM      3  S   UNL     1      -5.293   3.262   1.059  0.00  0.00    -0.019 S 
BRANCH   2   4
ATOM      4  N   UNL     1      -3.905   0.997   1.019  0.00  0.00    -0.324 N 
ATOM      5  H   UNL     1      -3.107   0.463   1.159  0.00  0.00    +0.148 HD
BRANCH   4   6
ATOM      6  C   UNL     1      -5.160   0.350   0.625  0.00  0.00    +0.134 C 
BRANCH   6   7
ATOM      7  C   UNL     1      -4.939  -1.159   0.505  0.00  0.00    +0.135 C 
ATOM      8  C   UNL     1      -6.253  -1.849   0.091  0.00  0.00    +0.035 C 
ATOM      9  C   UNL     1      -5.903  -2.569  -1.234  0.00  0.00    +0.031 C 
ATOM     10  C   UNL     1      -4.359  -2.673  -1.149  0.00  0.00    +0.160 C 
ATOM     11  O   UNL     1      -3.972  -1.431  -0.523  0.00  0.00    -0.375 OA
ENDBRANCH   6   7
ENDBRANCH   4   6
ENDBRANCH   2   4
ENDBRANCH   1   2
BRANCH   1  12
ATOM     12  C   UNL     1      -1.448   2.158   1.483  0.00  0.00    +0.112 C 
BRANCH  12  13
ATOM     13  C   UNL     1      -0.913   2.000   0.058  0.00  0.00    +0.054 C 
BRANCH  13  20
ATOM     14  C   UNL     1      -0.892  -0.889   0.086  0.00  0.00    +0.044 C 
ATOM     15  C   UNL     1       0.407  -0.126   0.103  0.00  0.00    -0.047 A 
ATOM     16  C   UNL     1       1.609  -0.808   0.129  0.00  0.00    +0.003 A 
ATOM     17  C   UNL     1       2.801  -0.109   0.143  0.00  0.00    +0.000 A 
ATOM     18  C   UNL     1       2.791   1.274   0.133  0.00  0.00    +0.000 A 
ATOM     19  C   UNL     1       1.589   1.956   0.108  0.00  0.00    +0.004 A 
ATOM     20  C   UNL     1       0.397   1.256   0.092  0.00  0.00    -0.043 A 
ENDBRANCH  13  20
ENDBRANCH  12  13
ENDBRANCH   1  12
BRANCH   1  21
ATOM     21  C   UNL     1      -2.649   4.380   1.720  0.00  0.00    +0.147 C 
BRANCH  21  22
ATOM     22  C   UNL     1      -2.449   5.124   0.425  0.00  0.00    +0.035 A 
ATOM     23  C   UNL     1      -3.523   5.604  -0.252  0.00  0.00    +0.020 A 
ATOM     24  C   UNL     1      -3.295   6.321  -1.506  0.00  0.00    +0.003 A 
ATOM     25  C   UNL     1      -4.364   6.837  -2.248  0.00  0.00    +0.059 A 
ATOM     26  C   UNL     1      -4.119   7.507  -3.428  0.00  0.00    +0.163 A 
ATOM     27  C   UNL     1      -2.808   7.674  -3.883  0.00  0.00    +0.164 A 
ATOM     28  C   UNL     1      -1.744   7.168  -3.155  0.00  0.00    +0.075 A 
ATOM     29  C   UNL     1      -1.974   6.490  -1.966  0.00  0.00    +0.053 A 
ATOM     30  N   UNL     1      -0.926   5.978  -1.228  0.00  0.00    -0.322 N 
ATOM     31  H   UNL     1      -0.017   6.095  -1.546  0.00  0.00    +0.169 HD
ATOM     32  C   UNL     1      -1.146   5.324  -0.075  0.00  0.00    +0.254 A 
ATOM     33  O   UNL     1      -0.196   4.889   0.553  0.00  0.00    -0.268 OA
ATOM     34  O   UNL     1      -2.557   8.337  -5.045  0.00  0.00    -0.485 OA
ATOM     35  C   UNL     1      -3.660   8.505  -5.941  0.00  0.00    +0.270 C 
ATOM     36  C   UNL     1      -4.870   8.988  -5.131  0.00  0.00    +0.270 C 
ATOM     37  O   UNL     1      -5.171   7.998  -4.141  0.00  0.00    -0.485 OA
ENDBRANCH  21  22
ENDBRANCH   1  21
TORSDOF 9
