REMARK  Name = ZINC63376179
REMARK  6 active torsions:
REMARK  status: ('A' for Active; 'I' for Inactive)
REMARK    1  A    between atoms: C_1  and  O_2
REMARK    2  A    between atoms: O_2  and  C_3
REMARK    3  A    between atoms: C_3  and  C_4
REMARK    4  A    between atoms: C_4  and  N_5
REMARK    5  A    between atoms: C_10  and  C_28
REMARK    6  A    between atoms: C_28  and  C_29
REMARK                            x       y       z     vdW  Elec       q    Type
REMARK                         _______ _______ _______ _____ _____    ______ ____
ROOT
ATOM      1  N   UNL     1       1.401  -2.532  -0.162  0.00  0.00    -0.239 N 
ATOM      2  C   UNL     1       0.855  -2.664  -1.376  0.00  0.00    +0.227 C 
ATOM      3  O   UNL     1      -0.308  -2.454  -1.647  0.00  0.00    -0.275 OA
ATOM      4  C   UNL     1       1.913  -3.116  -2.357  0.00  0.00    +0.107 C 
ATOM      5  C   UNL     1       1.605  -4.561  -2.803  0.00  0.00    +0.072 C 
ATOM      6  N   UNL     1       2.908  -5.273  -2.716  0.00  0.00    -0.295 NA
ATOM      7  C   UNL     1       3.538  -4.727  -1.500  0.00  0.00    +0.136 C 
ATOM      8  C   UNL     1       3.193  -3.217  -1.482  0.00  0.00    +0.122 C 
ATOM      9  C   UNL     1       2.708  -2.812  -0.108  0.00  0.00    +0.228 C 
ATOM     10  O   UNL     1       3.396  -2.755   0.888  0.00  0.00    -0.275 OA
ATOM     11  C   UNL     1       5.024  -4.948  -1.503  0.00  0.00    +0.005 A 
ATOM     12  C   UNL     1       6.036  -4.566  -2.354  0.00  0.00    +0.027 A 
ATOM     13  C   UNL     1       7.344  -4.933  -2.083  0.00  0.00    +0.041 A 
ATOM     14  C   UNL     1       7.629  -5.682  -0.955  0.00  0.00    +0.022 A 
ATOM     15  C   UNL     1       6.617  -6.065  -0.100  0.00  0.00    +0.025 A 
ATOM     16  C   UNL     1       5.299  -5.701  -0.365  0.00  0.00    +0.039 A 
ATOM     17  N   UNL     1       4.120  -5.963   0.337  0.00  0.00    -0.283 N 
ATOM     18  C   UNL     1       3.041  -5.426  -0.264  0.00  0.00    +0.243 C 
ATOM     19  O   UNL     1       1.891  -5.494   0.117  0.00  0.00    -0.273 OA
ATOM     20 CL   UNL     1       8.622  -4.454  -3.156  0.00  0.00    -0.084 Cl
ATOM     21  H   UNL     1       2.771  -6.269  -2.637  0.00  0.00    +0.124 HD
ATOM     22  H   UNL     1       4.083  -6.472   1.162  0.00  0.00    +0.155 HD
ENDROOT
BRANCH   1  23
ATOM     23  C   UNL     1       0.633  -2.108   1.011  0.00  0.00    +0.144 C 
BRANCH  23  24
ATOM     24  C   UNL     1       0.673  -0.582   1.123  0.00  0.00    +0.179 C 
BRANCH  24  26
ATOM     25  C   UNL     1      -0.017   1.425   0.010  0.00  0.00    +0.194 C 
ATOM     26  O   UNL     1       0.002  -0.004   0.002  0.00  0.00    -0.381 OA
ENDBRANCH  24  26
ENDBRANCH  23  24
ENDBRANCH   1  23
BRANCH   5  27
ATOM     27  C   UNL     1       1.083  -4.575  -4.241  0.00  0.00    +0.052 C 
BRANCH  27  28
ATOM     28  C   UNL     1       0.674  -5.977  -4.614  0.00  0.00    -0.040 C 
ATOM     29  C   UNL     1      -0.569  -6.507  -4.545  0.00  0.00    -0.001 A 
ATOM     30  C   UNL     1      -1.862  -5.958  -4.120  0.00  0.00    +0.010 A 
ATOM     31  C   UNL     1      -2.957  -6.750  -4.164  0.00  0.00    +0.001 A 
ATOM     32  C   UNL     1      -2.889  -8.079  -4.604  0.00  0.00    +0.002 A 
ATOM     33  C   UNL     1      -1.738  -8.654  -5.011  0.00  0.00    +0.026 A 
ATOM     34  C   UNL     1      -0.523  -7.913  -5.007  0.00  0.00    +0.043 A 
ATOM     35  N   UNL     1       0.700  -8.240  -5.347  0.00  0.00    -0.380 N 
ATOM     36  C   UNL     1       1.568  -7.075  -5.145  0.00  0.00    +0.144 C 
ATOM     37  H   UNL     1       0.982  -9.106  -5.680  0.00  0.00    +0.160 HD
ENDBRANCH  27  28
ENDBRANCH   5  27
TORSDOF 5
