REMARK  Name = ZINC13642719
REMARK  8 active torsions:
REMARK  status: ('A' for Active; 'I' for Inactive)
REMARK    1  A    between atoms: C_1  and  C_2
REMARK    2  A    between atoms: C_2  and  C_3
REMARK    3  A    between atoms: C_3  and  N_4
REMARK    4  A    between atoms: N_4  and  S_5
REMARK    5  A    between atoms: S_5  and  C_8
REMARK    6  A    between atoms: C_21  and  C_24
REMARK    7  A    between atoms: N_36  and  C_37
REMARK    8  A    between atoms: C_37  and  C_38
REMARK                            x       y       z     vdW  Elec       q    Type
REMARK                         _______ _______ _______ _____ _____    ______ ____
ROOT
ATOM      1  C   UNL     1       3.414  11.613   0.762  0.00  0.00    +0.106 A 
ATOM      2  C   UNL     1       3.141  11.683  -0.592  0.00  0.00    +0.030 A 
ATOM      3  C   UNL     1       1.973  11.137  -1.084  0.00  0.00    +0.025 A 
ATOM      4  C   UNL     1       1.077  10.520  -0.219  0.00  0.00    +0.031 A 
ATOM      5  C   UNL     1       1.343  10.451   1.137  0.00  0.00    -0.018 A 
ATOM      6  C   UNL     1       2.523  11.002   1.621  0.00  0.00    +0.034 A 
ATOM      7  C   UNL     1       0.409   9.804   2.123  0.00  0.00    +0.049 C 
ATOM      8  C   UNL     1       0.002  10.868   3.134  0.00  0.00    -0.023 C 
ATOM      9  C   UNL     1      -1.150  11.396   2.803  0.00  0.00    -0.030 C 
ATOM     10  C   UNL     1      -1.692  10.753   1.530  0.00  0.00    +0.033 C 
ATOM     11  C   UNL     1      -0.934   9.405   1.484  0.00  0.00    +0.029 C 
ATOM     12  C   UNL     1      -0.767   8.924   0.055  0.00  0.00    +0.105 C 
ATOM     13  N   UNL     1      -0.110   9.967  -0.741  0.00  0.00    -0.336 N 
ATOM     14  H   UNL     1      -0.474  10.251  -1.594  0.00  0.00    +0.147 HD
ENDROOT
BRANCH  12  15
ATOM     15  C   UNL     1       0.076   7.675   0.041  0.00  0.00    -0.026 A 
ATOM     16  C   UNL     1       1.458   7.775  -0.023  0.00  0.00    +0.007 A 
ATOM     17  C   UNL     1       2.243   6.643  -0.038  0.00  0.00    +0.027 A 
ATOM     18  C   UNL     1       1.651   5.384   0.014  0.00  0.00    +0.050 A 
ATOM     19  C   UNL     1       0.253   5.285   0.078  0.00  0.00    +0.008 A 
ATOM     20  C   UNL     1      -0.528   6.438   0.091  0.00  0.00    +0.016 A 
ATOM     21  C   UNL     1      -0.062   3.845   0.120  0.00  0.00    +0.008 A 
ATOM     22  C   UNL     1      -1.253   3.126   0.187  0.00  0.00    +0.010 A 
ATOM     23  C   UNL     1      -1.221   1.748   0.206  0.00  0.00    +0.001 A 
ATOM     24  C   UNL     1      -0.008   1.077   0.169  0.00  0.00    +0.002 A 
ATOM     25  C   UNL     1       1.178   1.776   0.103  0.00  0.00    +0.026 A 
ATOM     26  C   UNL     1       1.166   3.167   0.077  0.00  0.00    +0.050 A 
ATOM     27  N   UNL     1       2.180   4.106   0.014  0.00  0.00    -0.340 N 
BRANCH  27  28
ATOM     28  C   UNL     1       3.610   3.792  -0.044  0.00  0.00    +0.119 C 
ATOM     29  C   UNL     1       4.043   3.655  -1.505  0.00  0.00    +0.027 C 
ENDBRANCH  27  28
ENDBRANCH  12  15
BRANCH   1  30
ATOM     30  S   UNL     1       4.906  12.306   1.393  0.00  0.00    +0.058 S 
ATOM     31  O   UNL     1       5.316  13.301   0.465  0.00  0.00    -0.153 OA
ATOM     32  O   UNL     1       4.672  12.593   2.765  0.00  0.00    -0.153 OA
BRANCH  30  33
ATOM     33  N   UNL     1       6.056  11.115   1.349  0.00  0.00    -0.190 NA
ATOM     34  H   UNL     1       6.434  10.775   2.175  0.00  0.00    +0.148 HD
BRANCH  33  35
ATOM     35  C   UNL     1       6.502  10.575   0.062  0.00  0.00    +0.105 C 
BRANCH  35  37
ATOM     36  C   UNL     1       8.264   9.222  -1.082  0.00  0.00    +0.005 C 
ATOM     37  C   UNL     1       7.798   9.786   0.262  0.00  0.00    +0.013 C 
ENDBRANCH  35  37
ENDBRANCH  33  35
ENDBRANCH  30  33
ENDBRANCH   1  30
TORSDOF 6
