REMARK  Name = ZINC40373898
REMARK  7 active torsions:
REMARK  status: ('A' for Active; 'I' for Inactive)
REMARK    1  A    between atoms: C_1  and  C_2
REMARK    2  A    between atoms: C_2  and  C_3
REMARK    3  A    between atoms: C_3  and  C_4
REMARK    4  A    between atoms: C_3  and  C_5
REMARK    5  A    between atoms: C_3  and  N_9
REMARK    6  A    between atoms: N_6  and  O_7
REMARK    7  A    between atoms: C_10  and  C_12
REMARK                            x       y       z     vdW  Elec       q    Type
REMARK                         _______ _______ _______ _____ _____    ______ ____
ROOT
ATOM      1  N   UNL     1      -2.155   0.035   1.154  0.00  0.00    -0.299 N 
ATOM      2  C   UNL     1      -1.716  -0.190   2.409  0.00  0.00    +0.245 C 
ATOM      3  O   UNL     1      -0.721  -0.864   2.593  0.00  0.00    -0.270 OA
ATOM      4  H   UNL     1      -2.949   0.572   1.007  0.00  0.00    +0.150 HD
ENDROOT
BRANCH   2   5
ATOM      5  C   UNL     1      -2.444   0.384   3.561  0.00  0.00    +0.037 A 
ATOM      6  C   UNL     1      -3.590   1.153   3.354  0.00  0.00    +0.013 A 
ATOM      7  C   UNL     1      -4.262   1.683   4.434  0.00  0.00    +0.004 A 
ATOM      8  C   UNL     1      -3.808   1.457   5.724  0.00  0.00    -0.044 A 
ATOM      9  C   UNL     1      -2.672   0.695   5.935  0.00  0.00    -0.043 A 
ATOM     10  C   UNL     1      -1.993   0.154   4.860  0.00  0.00    +0.017 A 
ATOM     11  C   UNL     1      -2.390   0.599   7.420  0.00  0.00    +0.036 C 
ATOM     12  C   UNL     1      -3.212   1.736   8.062  0.00  0.00    +0.009 C 
ATOM     13  C   UNL     1      -4.364   1.923   7.053  0.00  0.00    +0.036 C 
ENDBRANCH   2   5
BRANCH   1  14
ATOM     14  C   UNL     1      -1.433  -0.534   0.013  0.00  0.00    +0.090 C 
ATOM     15  C   UNL     1      -1.413  -2.059   0.130  0.00  0.00    +0.040 C 
BRANCH  14  16
ATOM     16  C   UNL     1      -2.125  -0.137  -1.266  0.00  0.00    +0.155 C 
ATOM     17  N   UNL     1      -1.463   0.463  -2.199  0.00  0.00    -0.075 NA
ATOM     18  N   UNL     1      -3.462  -0.415  -1.440  0.00  0.00    -0.342 N 
ATOM     19  H   UNL     1      -3.959  -0.865  -0.740  0.00  0.00    +0.144 HD
ATOM     20  H   UNL     1      -3.907  -0.160  -2.264  0.00  0.00    +0.144 HD
BRANCH  17  21
ATOM     21  O   UNL     1      -2.112   0.835  -3.401  0.00  0.00    -0.408 OA
ATOM     22  H   UNL     1      -1.536   1.278  -4.039  0.00  0.00    +0.328 HD
ENDBRANCH  17  21
ENDBRANCH  14  16
BRANCH  14  24
ATOM     23  C   UNL     1      -0.019   1.526   0.010  0.00  0.00    +0.006 C 
ATOM     24  C   UNL     1       0.002  -0.004   0.002  0.00  0.00    +0.030 C 
ENDBRANCH  14  24
ENDBRANCH   1  14
TORSDOF 5
