REMARK  Name = ZINC58614788
REMARK  8 active torsions:
REMARK  status: ('A' for Active; 'I' for Inactive)
REMARK    1  A    between atoms: C_6  and  C_7
REMARK    2  A    between atoms: C_7  and  C_9
REMARK    3  A    between atoms: C_7  and  N_30
REMARK    4  A    between atoms: C_9  and  N_10
REMARK    5  A    between atoms: N_13  and  C_14
REMARK    6  A    between atoms: C_14  and  C_15
REMARK    7  A    between atoms: C_15  and  C_17
REMARK    8  A    between atoms: C_15  and  N_24
REMARK                            x       y       z     vdW  Elec       q    Type
REMARK                         _______ _______ _______ _____ _____    ______ ____
ROOT
ATOM      1  N   UNL     1      -2.978  -2.236  -1.499  0.00  0.00    -0.298 N 
ATOM      2  C   UNL     1      -3.453  -2.936  -2.549  0.00  0.00    +0.300 C 
ATOM      3  O   UNL     1      -2.892  -2.872  -3.625  0.00  0.00    -0.253 OA
ATOM      4  N   UNL     1      -4.549  -3.706  -2.404  0.00  0.00    -0.298 N 
ATOM      5  H   UNL     1      -3.426  -2.287  -0.640  0.00  0.00    +0.150 HD
ATOM      6  H   UNL     1      -4.997  -3.757  -1.545  0.00  0.00    +0.150 HD
ENDROOT
BRANCH   1   7
ATOM      7  C   UNL     1      -1.787  -1.398  -1.656  0.00  0.00    +0.129 C 
BRANCH   7   8
ATOM      8  C   UNL     1      -1.400  -0.802  -0.301  0.00  0.00    +0.104 C 
BRANCH   8  14
ATOM      9  C   UNL     1      -3.407  -0.375   1.133  0.00  0.00    +0.008 A 
ATOM     10  C   UNL     1      -4.425   0.444   1.583  0.00  0.00    +0.038 A 
ATOM     11  C   UNL     1      -4.545   1.732   1.091  0.00  0.00    +0.123 A 
ATOM     12  C   UNL     1      -3.646   2.198   0.147  0.00  0.00    +0.038 A 
ATOM     13  C   UNL     1      -2.629   1.378  -0.302  0.00  0.00    +0.008 A 
ATOM     14  C   UNL     1      -2.509   0.092   0.190  0.00  0.00    -0.029 A 
ATOM     15  F   UNL     1      -5.540   2.533   1.530  0.00  0.00    -0.205 F 
ENDBRANCH   8  14
BRANCH   8  16
ATOM     16  N   UNL     1      -0.166  -0.018  -0.445  0.00  0.00    -0.290 NA
ATOM     17  C   UNL     1       0.912  -0.833  -1.022  0.00  0.00    +0.113 C 
ATOM     18  C   UNL     1       2.158   0.037  -1.209  0.00  0.00    +0.175 C 
ATOM     19  O   UNL     1       2.526   0.611   0.048  0.00  0.00    -0.377 OA
ATOM     20  C   UNL     1       1.499   1.412   0.638  0.00  0.00    +0.175 C 
ATOM     21  C   UNL     1       0.247   0.556   0.844  0.00  0.00    +0.113 C 
ENDBRANCH   8  16
ENDBRANCH   7   8
ENDBRANCH   1   7
BRANCH   4  22
ATOM     22  C   UNL     1      -5.065  -4.467  -3.545  0.00  0.00    +0.129 C 
BRANCH  22  23
ATOM     23  C   UNL     1      -6.241  -5.334  -3.090  0.00  0.00    +0.104 C 
BRANCH  23  24
ATOM     24  C   UNL     1      -7.372  -4.449  -2.636  0.00  0.00    -0.029 A 
ATOM     25  C   UNL     1      -8.213  -3.869  -3.568  0.00  0.00    +0.008 A 
ATOM     26  C   UNL     1      -9.251  -3.057  -3.152  0.00  0.00    +0.038 A 
ATOM     27  C   UNL     1      -9.449  -2.824  -1.802  0.00  0.00    +0.123 A 
ATOM     28  C   UNL     1      -8.607  -3.405  -0.869  0.00  0.00    +0.038 A 
ATOM     29  C   UNL     1      -7.573  -4.221  -1.287  0.00  0.00    +0.008 A 
ATOM     30  F   UNL     1     -10.464  -2.030  -1.395  0.00  0.00    -0.205 F 
ENDBRANCH  23  24
BRANCH  23  31
ATOM     31  N   UNL     1      -6.693  -6.172  -4.208  0.00  0.00    -0.290 NA
ATOM     32  C   UNL     1      -5.591  -6.992  -4.732  0.00  0.00    +0.113 C 
ATOM     33  C   UNL     1      -6.090  -7.802  -5.931  0.00  0.00    +0.175 C 
ATOM     34  O   UNL     1      -7.211  -8.595  -5.531  0.00  0.00    -0.377 OA
ATOM     35  C   UNL     1      -8.304  -7.828  -5.017  0.00  0.00    +0.175 C 
ATOM     36  C   UNL     1      -7.827  -7.018  -3.808  0.00  0.00    +0.113 C 
ENDBRANCH  23  31
ENDBRANCH  22  23
ENDBRANCH   4  22
TORSDOF 8
