REMARK  Name = ZINC09449626
REMARK  9 active torsions:
REMARK  status: ('A' for Active; 'I' for Inactive)
REMARK    1  A    between atoms: C_1  and  C_2
REMARK    2  A    between atoms: N_4  and  C_5
REMARK    3  A    between atoms: C_8  and  N_11
REMARK    4  A    between atoms: C_12  and  C_14
REMARK    5  A    between atoms: C_14  and  S_15
REMARK    6  A    between atoms: S_15  and  C_16
REMARK    7  A    between atoms: C_19  and  C_22
REMARK    8  A    between atoms: N_20  and  N_21
REMARK    9  A    between atoms: C_24  and  C_28
REMARK                            x       y       z     vdW  Elec       q    Type
REMARK                         _______ _______ _______ _____ _____    ______ ____
ROOT
ATOM      1  C   UNL     1      -3.016 -10.991  -0.290  0.00  0.00    +0.209 A 
ATOM      2  N   UNL     1      -1.839 -11.552  -0.130  0.00  0.00    -0.120 NA
ATOM      3  N   UNL     1      -1.947 -12.831  -0.185  0.00  0.00    -0.125 NA
ATOM      4  C   UNL     1      -3.202 -13.166  -0.385  0.00  0.00    +0.199 A 
ATOM      5  N   UNL     1      -3.926 -11.996  -0.454  0.00  0.00    -0.223 N 
ENDROOT
BRANCH   4   6
ATOM      6  C   UNL     1      -3.735 -14.534  -0.508  0.00  0.00    +0.105 A 
ATOM      7  C   UNL     1      -3.099 -15.686  -0.137  0.00  0.00    +0.061 A 
ATOM      8  C   UNL     1      -3.956 -16.761  -0.425  0.00  0.00    +0.093 A 
ATOM      9  N   UNL     1      -5.064 -16.279  -0.949  0.00  0.00    -0.173 NA
ATOM     10  N   UNL     1      -4.957 -14.884  -1.009  0.00  0.00    -0.273 N 
ATOM     11  H   UNL     1      -5.631 -14.274  -1.347  0.00  0.00    +0.189 HD
BRANCH   8  12
ATOM     12  C   UNL     1      -3.663 -18.195  -0.181  0.00  0.00    +0.002 A 
ATOM     13  C   UNL     1      -2.448 -18.573   0.387  0.00  0.00    +0.013 A 
ATOM     14  C   UNL     1      -2.179 -19.908   0.613  0.00  0.00    +0.039 A 
ATOM     15  C   UNL     1      -3.115 -20.871   0.275  0.00  0.00    +0.123 A 
ATOM     16  C   UNL     1      -4.324 -20.500  -0.291  0.00  0.00    +0.039 A 
ATOM     17  C   UNL     1      -4.603 -19.167  -0.514  0.00  0.00    +0.013 A 
ATOM     18  F   UNL     1      -2.848 -22.177   0.496  0.00  0.00    -0.205 F 
ENDBRANCH   8  12
ENDBRANCH   4   6
BRANCH   5  19
ATOM     19  N   UNL     1      -5.272 -11.869  -0.647  0.00  0.00    -0.295 N 
ATOM     20  H   UNL     1      -5.500 -11.893  -1.630  0.00  0.00    +0.163 HD
ATOM     21  H   UNL     1      -5.779 -12.579  -0.141  0.00  0.00    +0.163 HD
ENDBRANCH   5  19
BRANCH   1  22
ATOM     22  S   UNL     1      -3.359  -9.262  -0.288  0.00  0.00    -0.075 S 
BRANCH  22  23
ATOM     23  C   UNL     1      -1.736  -8.493  -0.028  0.00  0.00    +0.173 C 
BRANCH  23  25
ATOM     24  N   UNL     1      -0.808  -6.210   0.177  0.00  0.00    -0.285 N 
ATOM     25  C   UNL     1      -1.889  -6.994  -0.005  0.00  0.00    +0.227 C 
ATOM     26  O   UNL     1      -2.984  -6.494  -0.150  0.00  0.00    -0.275 OA
ATOM     27  H   UNL     1       0.056  -6.610   0.360  0.00  0.00    +0.155 HD
BRANCH  24  31
ATOM     28  C   UNL     1      -1.181  -2.063  -0.049  0.00  0.00    +0.033 A 
ATOM     29  C   UNL     1      -0.027  -2.683  -0.511  0.00  0.00    +0.025 A 
ATOM     30  C   UNL     1       0.096  -4.055  -0.436  0.00  0.00    +0.025 A 
ATOM     31  C   UNL     1      -0.933  -4.817   0.101  0.00  0.00    +0.034 A 
ATOM     32  C   UNL     1      -2.087  -4.197   0.563  0.00  0.00    +0.025 A 
ATOM     33  C   UNL     1      -2.208  -2.824   0.494  0.00  0.00    +0.025 A 
BRANCH  28  37
ATOM     34  C   UNL     1      -1.993   1.509   0.823  0.00  0.00    +0.109 C 
ATOM     35  C   UNL     1      -1.948   0.003   0.851  0.00  0.00    +0.214 C 
ATOM     36  O   UNL     1      -2.491  -0.603   1.750  0.00  0.00    -0.276 OA
ATOM     37  N   UNL     1      -1.306  -0.670  -0.125  0.00  0.00    -0.286 N 
ATOM     38  H   UNL     1      -0.930  -0.190  -0.879  0.00  0.00    +0.155 HD
ENDBRANCH  28  37
ENDBRANCH  24  31
ENDBRANCH  23  25
ENDBRANCH  22  23
ENDBRANCH   1  22
TORSDOF 8
