REMARK  Name = ZINC36058820
REMARK  10 active torsions:
REMARK  status: ('A' for Active; 'I' for Inactive)
REMARK    1  A    between atoms: C_1  and  C_2
REMARK    2  A    between atoms: C_3  and  C_24
REMARK    3  A    between atoms: C_4  and  C_19
REMARK    4  A    between atoms: C_7  and  C_12
REMARK    5  A    between atoms: C_13  and  N_15
REMARK    6  A    between atoms: N_15  and  C_16
REMARK    7  A    between atoms: C_24  and  O_26
REMARK    8  A    between atoms: O_26  and  C_27
REMARK    9  A    between atoms: C_27  and  C_28
REMARK   10  A    between atoms: C_27  and  C_29
REMARK                            x       y       z     vdW  Elec       q    Type
REMARK                         _______ _______ _______ _____ _____    ______ ____
ROOT
ATOM      1  C   UNL     1      -0.424   1.728  -0.115  0.00  0.00    +0.066 C 
ATOM      2  C   UNL     1      -0.285   0.231  -0.007  0.00  0.00    +0.053 C 
ATOM      3  C   UNL     1      -1.415  -0.564   0.005  0.00  0.00    +0.083 C 
ATOM      4  C   UNL     1      -1.224  -2.060   0.114  0.00  0.00    +0.156 C 
ATOM      5  N   UNL     1       0.175  -2.559   0.200  0.00  0.00    -0.267 N 
ATOM      6  C   UNL     1       0.583  -3.874   0.305  0.00  0.00    +0.048 C 
ATOM      7  C   UNL     1       1.911  -4.114   0.371  0.00  0.00    +0.072 C 
ATOM      8  S   UNL     1       2.589  -2.469   0.284  0.00  0.00    -0.060 S 
ATOM      9  C   UNL     1       1.154  -1.605   0.172  0.00  0.00    +0.166 C 
ATOM     10  N   UNL     1       0.918  -0.313   0.070  0.00  0.00    -0.230 NA
ENDROOT
BRANCH   4  11
ATOM     11  C   UNL     1      -1.870  -2.700  -1.088  0.00  0.00    +0.015 A 
ATOM     12  C   UNL     1      -3.032  -3.393  -1.165  0.00  0.00    +0.013 A 
ATOM     13  C   UNL     1      -3.434  -3.894  -2.388  0.00  0.00    +0.008 A 
ATOM     14  C   UNL     1      -2.655  -3.677  -3.476  0.00  0.00    +0.045 A 
ATOM     15  S   UNL     1      -1.307  -2.733  -2.782  0.00  0.00    -0.099 S 
ENDBRANCH   4  11
BRANCH   6  16
ATOM     16  C   UNL     1      -0.392  -4.973   0.344  0.00  0.00    +0.091 C 
ATOM     17  C   UNL     1       0.020  -6.231   0.593  0.00  0.00    +0.239 C 
ATOM     18  O   UNL     1       1.310  -6.465   0.938  0.00  0.00    -0.271 OA
BRANCH  17  19
ATOM     19  N   UNL     1      -0.873  -7.284   0.498  0.00  0.00    -0.309 N 
ATOM     20  H   UNL     1      -1.811  -7.110   0.324  0.00  0.00    +0.149 HD
BRANCH  19  21
ATOM     21  C   UNL     1      -0.402  -8.662   0.659  0.00  0.00    +0.073 C 
ATOM     22  C   UNL     1      -0.856  -9.690  -0.378  0.00  0.00    +0.024 C 
ATOM     23  C   UNL     1      -1.437  -9.723   1.037  0.00  0.00    +0.024 C 
ENDBRANCH  19  21
ENDBRANCH  17  19
ENDBRANCH   6  16
BRANCH   3  24
ATOM     24  C   UNL     1      -2.695  -0.003  -0.081  0.00  0.00    +0.339 C 
ATOM     25  O   UNL     1      -2.826   1.206  -0.168  0.00  0.00    -0.245 OA
BRANCH  24  26
ATOM     26  O   UNL     1      -3.785  -0.802  -0.067  0.00  0.00    -0.459 OA
BRANCH  26  27
ATOM     27  C   UNL     1      -5.059  -0.161  -0.158  0.00  0.00    +0.171 C 
ATOM     28  C   UNL     1      -6.051  -1.095  -0.855  0.00  0.00    +0.052 C 
ATOM     29  C   UNL     1      -5.568   0.165   1.248  0.00  0.00    +0.052 C 
ENDBRANCH  26  27
ENDBRANCH  24  26
ENDBRANCH   3  24
TORSDOF 7
