REMARK  Name = ZINC26540638
REMARK  12 active torsions:
REMARK  status: ('A' for Active; 'I' for Inactive)
REMARK    1  A    between atoms: C_1  and  C_2
REMARK    2  A    between atoms: C_2  and  C_3
REMARK    3  A    between atoms: C_2  and  C_4
REMARK    4  A    between atoms: C_2  and  C_5
REMARK    5  A    between atoms: C_8  and  S_11
REMARK    6  A    between atoms: S_11  and  N_14
REMARK    7  A    between atoms: N_14  and  C_15
REMARK    8  A    between atoms: C_17  and  N_25
REMARK    9  A    between atoms: C_20  and  N_21
REMARK   10  A    between atoms: N_21  and  C_22
REMARK   11  A    between atoms: C_22  and  C_23
REMARK   12  A    between atoms: C_23  and  O_24
REMARK                            x       y       z     vdW  Elec       q    Type
REMARK                         _______ _______ _______ _____ _____    ______ ____
ROOT
ATOM      1  N   UNL     1      -4.907   1.185   0.031  0.00  0.00    -0.214 N 
ATOM      2  H   UNL     1      -5.752   1.549  -0.572  0.00  0.00    +0.174 HD
ENDROOT
BRANCH   1   3
ATOM      3  C   UNL     1      -3.771   1.986   0.200  0.00  0.00    +0.071 A 
ATOM      4  C   UNL     1      -2.514   1.403   0.265  0.00  0.00    +0.059 A 
ATOM      5  C   UNL     1      -1.393   2.196   0.431  0.00  0.00    +0.128 A 
ATOM      6  C   UNL     1      -1.521   3.568   0.538  0.00  0.00    +0.034 A 
ATOM      7  C   UNL     1      -2.770   4.157   0.469  0.00  0.00    +0.027 A 
ATOM      8  C   UNL     1      -3.900   3.370   0.303  0.00  0.00    +0.050 A 
BRANCH   5   9
ATOM      9  N   UNL     1      -0.052   1.572   0.500  0.00  0.00    +0.056 N 
ATOM     10  O   UNL     1       0.062   0.363   0.410  0.00  0.00    -0.126 OA
ATOM     11  O   UNL     1       0.937   2.269   0.641  0.00  0.00    -0.126 OA
ENDBRANCH   5   9
BRANCH   8  12
ATOM     12  N   UNL     1      -5.166   3.965   0.238  0.00  0.00    -0.340 N 
ATOM     13  H   UNL     1      -6.061   3.339   0.105  0.00  0.00    +0.146 HD
BRANCH  12  14
ATOM     14  C   UNL     1      -5.299   5.420   0.346  0.00  0.00    +0.129 C 
BRANCH  14  15
ATOM     15  C   UNL     1      -6.776   5.806   0.245  0.00  0.00    +0.174 C 
BRANCH  15  16
ATOM     16  O   UNL     1      -7.484   5.277   1.367  0.00  0.00    -0.393 OA
ATOM     17  H   UNL     1      -8.566   5.453   1.468  0.00  0.00    +0.209 HD
ENDBRANCH  15  16
ENDBRANCH  14  15
ENDBRANCH  12  14
ENDBRANCH   8  12
ENDBRANCH   1   3
BRANCH   1  18
ATOM     18  S   UNL     1      -4.980  -0.310   0.740  0.00  0.00    +0.072 S 
ATOM     19  O   UNL     1      -6.288  -0.810   0.500  0.00  0.00    -0.150 OA
ATOM     20  O   UNL     1      -3.811  -1.008   0.335  0.00  0.00    -0.150 OA
BRANCH  18  24
ATOM     21  C   UNL     1      -4.632   0.310   5.211  0.00  0.00    -0.042 A 
ATOM     22  C   UNL     1      -5.876   0.311   4.607  0.00  0.00    +0.006 A 
ATOM     23  C   UNL     1      -5.982   0.122   3.242  0.00  0.00    +0.029 A 
ATOM     24  C   UNL     1      -4.844  -0.068   2.480  0.00  0.00    +0.109 A 
ATOM     25  C   UNL     1      -3.601  -0.075   3.084  0.00  0.00    +0.029 A 
ATOM     26  C   UNL     1      -3.495   0.119   4.449  0.00  0.00    +0.006 A 
BRANCH  21  28
ATOM     27  C   UNL     1      -5.283  -0.589   7.428  0.00  0.00    +0.015 C 
ATOM     28  C   UNL     1      -4.516   0.516   6.699  0.00  0.00    -0.013 C 
ATOM     29  C   UNL     1      -3.043   0.470   7.107  0.00  0.00    +0.015 C 
ATOM     30  C   UNL     1      -5.107   1.877   7.072  0.00  0.00    +0.015 C 
ENDBRANCH  21  28
ENDBRANCH  18  24
ENDBRANCH   1  18
TORSDOF 9
