REMARK  Name = ZINC02336805
REMARK  7 active torsions:
REMARK  status: ('A' for Active; 'I' for Inactive)
REMARK    1  A    between atoms: C_1  and  C_2
REMARK    2  A    between atoms: C_2  and  C_3
REMARK    3  A    between atoms: C_3  and  C_4
REMARK    4  A    between atoms: C_4  and  N_5
REMARK    5  A    between atoms: C_11  and  S_12
REMARK    6  A    between atoms: S_12  and  C_13
REMARK    7  A    between atoms: C_13  and  C_14
REMARK                            x       y       z     vdW  Elec       q    Type
REMARK                         _______ _______ _______ _____ _____    ______ ____
ROOT
ATOM      1  N   UNL     1      -0.698   1.558   1.213  0.00  0.00    -0.288 N 
ATOM      2  C   UNL     1      -0.347   2.738   1.769  0.00  0.00    +0.259 A 
ATOM      3  O   UNL     1       0.548   3.413   1.286  0.00  0.00    -0.267 OA
ATOM      4  C   UNL     1      -1.034   3.173   2.910  0.00  0.00    +0.050 A 
ATOM      5  C   UNL     1      -2.049   2.379   3.424  0.00  0.00    +0.083 A 
ATOM      6  N   UNL     1      -2.334   1.208   2.847  0.00  0.00    -0.223 NA
ATOM      7  C   UNL     1      -1.685   0.804   1.773  0.00  0.00    +0.173 A 
ATOM      8  C   UNL     1      -2.789   2.845   4.618  0.00  0.00    +0.004 A 
ATOM      9  C   UNL     1      -3.575   1.970   5.361  0.00  0.00    +0.010 A 
ATOM     10  C   UNL     1      -4.246   2.430   6.476  0.00  0.00    +0.001 A 
ATOM     11  C   UNL     1      -4.143   3.759   6.848  0.00  0.00    +0.000 A 
ATOM     12  C   UNL     1      -3.380   4.638   6.100  0.00  0.00    +0.004 A 
ATOM     13  C   UNL     1      -2.712   4.191   4.979  0.00  0.00    -0.037 A 
ATOM     14  C   UNL     1      -1.921   5.152   4.131  0.00  0.00    +0.047 C 
ATOM     15  C   UNL     1      -0.671   4.472   3.576  0.00  0.00    +0.007 C 
ATOM     16  C   UNL     1       0.307   4.197   4.722  0.00  0.00    +0.012 C 
ATOM     17  C   UNL     1       0.682   5.516   5.399  0.00  0.00    +0.001 C 
ATOM     18  C   UNL     1       1.347   6.443   4.379  0.00  0.00    +0.000 C 
ATOM     19  C   UNL     1       0.373   6.716   3.230  0.00  0.00    +0.001 C 
ATOM     20  C   UNL     1      -0.002   5.396   2.554  0.00  0.00    +0.012 C 
ENDROOT
BRANCH   1  21
ATOM     21  C   UNL     1      -0.013   1.086   0.008  0.00  0.00    +0.127 C 
BRANCH  21  22
ATOM     22  C   UNL     1      -0.753   1.593  -1.232  0.00  0.00    +0.021 C 
BRANCH  22  24
ATOM     23  C   UNL     1      -0.777   1.606  -3.730  0.00  0.00    +0.004 C 
ATOM     24  C   UNL     1      -0.037   1.099  -2.490  0.00  0.00    -0.002 C 
ENDBRANCH  22  24
ENDBRANCH  21  22
ENDBRANCH   1  21
BRANCH   7  25
ATOM     25  S   UNL     1      -2.102  -0.746   1.047  0.00  0.00    -0.078 S 
BRANCH  25  26
ATOM     26  C   UNL     1      -3.420  -1.275   2.169  0.00  0.00    +0.172 C 
BRANCH  26  27
ATOM     27  C   UNL     1      -3.944  -2.618   1.730  0.00  0.00    +0.221 C 
ATOM     28  O   UNL     1      -3.473  -3.164   0.754  0.00  0.00    -0.275 OA
ATOM     29  N   UNL     1      -4.936  -3.213   2.422  0.00  0.00    -0.329 N 
ATOM     30  H   UNL     1      -5.313  -2.776   3.202  0.00  0.00    +0.145 HD
ATOM     31  H   UNL     1      -5.274  -4.077   2.139  0.00  0.00    +0.145 HD
ENDBRANCH  26  27
ENDBRANCH  25  26
ENDBRANCH   7  25
TORSDOF 6
