REMARK  Name = ZINC48439118
REMARK  5 active torsions:
REMARK  status: ('A' for Active; 'I' for Inactive)
REMARK    1  A    between atoms: C_1  and  C_2
REMARK    2  A    between atoms: C_4  and  N_9
REMARK    3  A    between atoms: C_10  and  C_12
REMARK    4  A    between atoms: C_14  and  N_18
REMARK    5  A    between atoms: C_15  and  C_17
REMARK                            x       y       z     vdW  Elec       q    Type
REMARK                         _______ _______ _______ _____ _____    ______ ____
ROOT
ATOM      1  N   UNL     1       0.028  -2.771  -2.419  0.00  0.00    -0.281 N 
ATOM      2  C   UNL     1       0.148  -4.113  -2.427  0.00  0.00    +0.255 C 
ATOM      3  O   UNL     1       0.162  -4.729  -1.377  0.00  0.00    -0.269 OA
ATOM      4  H   UNL     1      -0.060  -2.287  -3.255  0.00  0.00    +0.155 HD
ENDROOT
BRANCH   1   8
ATOM      5  C   UNL     1       1.621  -2.349   2.212  0.00  0.00    +0.045 C 
ATOM      6  C   UNL     1       0.794  -1.849   1.056  0.00  0.00    -0.035 A 
ATOM      7  C   UNL     1       0.793  -2.538  -0.141  0.00  0.00    +0.027 A 
ATOM      8  C   UNL     1       0.030  -2.075  -1.206  0.00  0.00    +0.034 A 
ATOM      9  C   UNL     1      -0.729  -0.921  -1.063  0.00  0.00    +0.024 A 
ATOM     10  C   UNL     1      -0.725  -0.237   0.136  0.00  0.00    +0.017 A 
ATOM     11  C   UNL     1       0.032  -0.703   1.197  0.00  0.00    +0.021 A 
ATOM     12 BR   UNL     1       0.030   0.233   2.840  0.00  0.00    -0.050 Br
ENDBRANCH   1   8
BRANCH   2  13
ATOM     13  C   UNL     1       0.261  -4.831  -3.700  0.00  0.00    +0.077 A 
ATOM     14  C   UNL     1       0.386  -6.194  -3.926  0.00  0.00    +0.053 A 
ATOM     15  C   UNL     1       0.473  -6.574  -5.244  0.00  0.00    +0.137 A 
ATOM     16  C   UNL     1       0.433  -5.622  -6.209  0.00  0.00    +0.018 A 
ATOM     17  S   UNL     1       0.268  -4.181  -5.360  0.00  0.00    -0.087 S 
ATOM     18  C   UNL     1       0.511  -5.812  -7.702  0.00  0.00    +0.054 C 
BRANCH  15  19
ATOM     19  N   UNL     1       0.609  -8.003  -5.606  0.00  0.00    +0.057 N 
ATOM     20  O   UNL     1       0.644  -8.845  -4.739  0.00  0.00    -0.126 OA
ATOM     21  O   UNL     1       0.686  -8.328  -6.767  0.00  0.00    -0.126 OA
ENDBRANCH  15  19
ENDBRANCH   2  13
TORSDOF 3
