REMARK  Name = ZINC05911759
REMARK  7 active torsions:
REMARK  status: ('A' for Active; 'I' for Inactive)
REMARK    1  A    between atoms: C_1  and  C_2
REMARK    2  A    between atoms: C_2  and  C_3
REMARK    3  A    between atoms: C_6  and  C_9
REMARK    4  A    between atoms: C_15  and  C_17
REMARK    5  A    between atoms: C_25  and  C_27
REMARK    6  A    between atoms: C_30  and  C_31
REMARK    7  A    between atoms: C_30  and  C_32
REMARK                            x       y       z     vdW  Elec       q    Type
REMARK                         _______ _______ _______ _____ _____    ______ ____
ROOT
ATOM      1  C   UNL     1      -3.449  -1.577   5.635  0.00  0.00    +0.080 A 
ATOM      2  C   UNL     1      -2.719  -2.698   5.354  0.00  0.00    +0.076 A 
ATOM      3  S   UNL     1      -1.686  -2.097   4.025  0.00  0.00    -0.060 S 
ATOM      4  C   UNL     1      -2.327  -0.429   3.981  0.00  0.00    +0.165 A 
ATOM      5  N   UNL     1      -3.229  -0.468   4.944  0.00  0.00    -0.225 NA
ATOM      6  N   UNL     1      -1.967   0.630   3.156  0.00  0.00    -0.264 N 
ATOM      7  C   UNL     1      -1.005   0.463   2.227  0.00  0.00    +0.223 C 
ATOM      8  O   UNL     1      -0.454  -0.611   2.110  0.00  0.00    -0.275 OA
ATOM      9  H   UNL     1      -2.408   1.489   3.249  0.00  0.00    +0.157 HD
ENDROOT
BRANCH   7  10
ATOM     10  C   UNL     1      -0.615   1.612   1.332  0.00  0.00    +0.097 C 
ATOM     11  C   UNL     1       0.486   2.465   2.032  0.00  0.00    +0.028 C 
ATOM     12  C   UNL     1       1.550   1.440   2.531  0.00  0.00    +0.009 C 
ATOM     13  C   UNL     1       2.227   0.934   1.236  0.00  0.00    +0.009 C 
ATOM     14  C   UNL     1       1.499   1.708   0.096  0.00  0.00    +0.030 C 
ATOM     15  C   UNL     1       0.069   1.089   0.047  0.00  0.00    +0.122 C 
ATOM     16  C   UNL     1       1.205   3.062   0.779  0.00  0.00    -0.063 C 
ATOM     17  C   UNL     1       1.483   4.293   0.426  0.00  0.00    -0.076 C 
ATOM     18  C   UNL     1       2.219   4.559  -0.861  0.00  0.00    +0.039 C 
ATOM     19  C   UNL     1       1.066   5.442   1.308  0.00  0.00    +0.039 C 
BRANCH  15  20
ATOM     20  C   UNL     1      -0.670   1.563  -1.177  0.00  0.00    +0.360 C 
ATOM     21  O   UNL     1      -0.122   2.293  -1.969  0.00  0.00    -0.246 OA
ATOM     22  O   UNL     1      -1.937   1.174  -1.389  0.00  0.00    -0.246 OA
ENDBRANCH  15  20
ENDBRANCH   7  10
BRANCH   1  26
ATOM     23  C   UNL     1      -6.384  -1.640   8.711  0.00  0.00    -0.048 A 
ATOM     24  C   UNL     1      -6.165  -0.479   7.990  0.00  0.00    +0.004 A 
ATOM     25  C   UNL     1      -5.214  -0.453   6.991  0.00  0.00    +0.010 A 
ATOM     26  C   UNL     1      -4.473  -1.599   6.708  0.00  0.00    +0.001 A 
ATOM     27  C   UNL     1      -4.701  -2.767   7.433  0.00  0.00    +0.010 A 
ATOM     28  C   UNL     1      -5.651  -2.780   8.434  0.00  0.00    +0.004 A 
BRANCH  23  30
ATOM     29  C   UNL     1      -8.773  -2.078   9.210  0.00  0.00    +0.009 C 
ATOM     30  C   UNL     1      -7.424  -1.662   9.801  0.00  0.00    +0.032 C 
ENDBRANCH  23  30
ENDBRANCH   1  26
TORSDOF 4
