REMARK  Name = ZINC17075757
REMARK  7 active torsions:
REMARK  status: ('A' for Active; 'I' for Inactive)
REMARK    1  A    between atoms: C_1  and  C_2
REMARK    2  A    between atoms: C_4  and  C_26
REMARK    3  A    between atoms: C_6  and  C_8
REMARK    4  A    between atoms: N_10  and  C_11
REMARK    5  A    between atoms: C_11  and  N_13
REMARK    6  A    between atoms: N_13  and  C_14
REMARK    7  A    between atoms: C_19  and  N_20
REMARK                            x       y       z     vdW  Elec       q    Type
REMARK                         _______ _______ _______ _____ _____    ______ ____
ROOT
ATOM      1  C   UNL     1      -0.183  -2.829   4.795  0.00  0.00    +0.141 C 
ATOM      2  S   UNL     1      -0.494  -4.512   4.772  0.00  0.00    -0.018 S 
ENDROOT
BRANCH   1   5
ATOM      3  C   UNL     1      -0.425  -2.752   2.475  0.00  0.00    +0.250 C 
ATOM      4  O   UNL     1      -0.645  -3.947   2.458  0.00  0.00    -0.270 OA
ATOM      5  N   UNL     1      -0.182  -2.128   3.644  0.00  0.00    -0.264 N 
ATOM      6  H   UNL     1      -0.005  -1.174   3.657  0.00  0.00    +0.157 HD
BRANCH   3  12
ATOM      7  C   UNL     1       0.103   1.582   0.060  0.00  0.00    +0.044 C 
ATOM      8  C   UNL     1      -0.170   0.100   0.046  0.00  0.00    -0.049 A 
ATOM      9  C   UNL     1      -0.420  -0.544  -1.153  0.00  0.00    +0.006 A 
ATOM     10  C   UNL     1      -0.672  -1.904  -1.175  0.00  0.00    -0.049 A 
ATOM     11  C   UNL     1      -0.675  -2.628  -0.001  0.00  0.00    +0.016 A 
ATOM     12  C   UNL     1      -0.423  -1.984   1.212  0.00  0.00    +0.038 A 
ATOM     13  C   UNL     1      -0.165  -0.612   1.227  0.00  0.00    +0.016 A 
ATOM     14  C   UNL     1      -0.943  -2.597  -2.486  0.00  0.00    +0.044 C 
ENDBRANCH   3  12
ENDBRANCH   1   5
BRANCH   1  15
ATOM     15  N   UNL     1       0.060  -2.204   5.965  0.00  0.00    -0.295 N 
ATOM     16  H   UNL     1       0.298  -1.264   5.972  0.00  0.00    +0.154 HD
BRANCH  15  17
ATOM     17  C   UNL     1      -0.030  -2.914   7.170  0.00  0.00    +0.054 A 
ATOM     18  C   UNL     1       0.577  -4.154   7.294  0.00  0.00    +0.025 A 
ATOM     19  C   UNL     1       0.487  -4.852   8.484  0.00  0.00    +0.002 A 
ATOM     20  C   UNL     1      -0.209  -4.318   9.553  0.00  0.00    +0.002 A 
ATOM     21  C   UNL     1      -0.819  -3.082   9.438  0.00  0.00    +0.025 A 
ATOM     22  C   UNL     1      -0.727  -2.372   8.250  0.00  0.00    +0.051 A 
BRANCH  22  23
ATOM     23  N   UNL     1      -1.338  -1.118   8.133  0.00  0.00    -0.324 N 
ATOM     24  C   UNL     1      -2.729  -0.994   7.670  0.00  0.00    +0.133 C 
ATOM     25  C   UNL     1      -3.492  -0.110   8.664  0.00  0.00    +0.178 C 
ATOM     26  O   UNL     1      -2.774   1.111   8.855  0.00  0.00    -0.377 OA
ATOM     27  C   UNL     1      -1.474   0.944   9.425  0.00  0.00    +0.178 C 
ATOM     28  C   UNL     1      -0.610   0.114   8.475  0.00  0.00    +0.133 C 
ENDBRANCH  22  23
ENDBRANCH  15  17
ENDBRANCH   1  15
TORSDOF 5
