REMARK  Name = ZINC39630801
REMARK  11 active torsions:
REMARK  status: ('A' for Active; 'I' for Inactive)
REMARK    1  A    between atoms: C_1  and  C_2
REMARK    2  A    between atoms: C_6  and  C_9
REMARK    3  A    between atoms: C_13  and  C_22
REMARK    4  A    between atoms: N_24  and  C_25
REMARK    5  A    between atoms: C_25  and  C_26
REMARK    6  A    between atoms: C_26  and  C_27
REMARK    7  A    between atoms: C_26  and  C_28
REMARK    8  A    between atoms: C_26  and  C_29
REMARK    9  A    between atoms: C_29  and  N_30
REMARK   10  A    between atoms: N_30  and  C_31
REMARK   11  A    between atoms: N_30  and  C_32
REMARK                            x       y       z     vdW  Elec       q    Type
REMARK                         _______ _______ _______ _____ _____    ______ ____
ROOT
ATOM      1  C   UNL     1       0.201  -2.960   2.744  0.00  0.00    +0.251 C 
ATOM      2  O   UNL     1       1.290  -3.235   3.209  0.00  0.00    -0.270 OA
ATOM      3  N   UNL     1      -0.920  -3.414   3.339  0.00  0.00    -0.296 N 
ATOM      4  C   UNL     1      -2.324  -3.193   2.921  0.00  0.00    +0.121 C 
ATOM      5  C   UNL     1      -3.026  -4.545   3.177  0.00  0.00    +0.100 C 
ATOM      6  C   UNL     1      -2.171  -5.233   4.255  0.00  0.00    -0.004 C 
ATOM      7  C   UNL     1      -1.026  -4.255   4.556  0.00  0.00    +0.115 C 
ATOM      8  C   UNL     1      -3.001  -5.479   5.511  0.00  0.00    -0.010 C 
ATOM      9  C   UNL     1      -2.146  -6.215   6.546  0.00  0.00    -0.082 C 
ATOM     10  N   UNL     1      -1.684  -7.490   5.983  0.00  0.00    +0.379 N 
ATOM     11  C   UNL     1      -0.810  -7.241   4.831  0.00  0.00    -0.082 C 
ATOM     12  C   UNL     1      -1.608  -6.547   3.723  0.00  0.00    -0.010 C 
ATOM     13  H   UNL     1      -1.172  -8.001   6.687  0.00  0.00    -0.086 HD
ATOM     14  H   UNL     1      -2.480  -8.035   5.689  0.00  0.00    -0.086 HD
ENDROOT
BRANCH   1  20
ATOM     15  C   UNL     1      -0.164   1.535   0.599  0.00  0.00    +0.047 C 
ATOM     16  C   UNL     1      -0.070   0.035   0.489  0.00  0.00    -0.014 A 
ATOM     17  C   UNL     1      -0.073  -0.568  -0.756  0.00  0.00    +0.007 A 
ATOM     18  C   UNL     1       0.012  -1.944  -0.867  0.00  0.00    +0.021 A 
ATOM     19  C   UNL     1       0.102  -2.728   0.266  0.00  0.00    +0.056 A 
ATOM     20  C   UNL     1       0.106  -2.128   1.528  0.00  0.00    +0.091 A 
ATOM     21  C   UNL     1       0.025  -0.736   1.633  0.00  0.00    +0.140 A 
ATOM     22  F   UNL     1       0.033  -0.146   2.848  0.00  0.00    -0.204 F 
ATOM     23 CL   UNL     1       0.208  -4.455   0.122  0.00  0.00    -0.083 Cl
ENDBRANCH   1  20
BRANCH   5  24
ATOM     24  C   UNL     1      -3.050  -5.371   1.917  0.00  0.00    +0.218 C 
ATOM     25  O   UNL     1      -2.213  -5.191   1.058  0.00  0.00    -0.275 OA
ATOM     26  N   UNL     1      -4.002  -6.310   1.745  0.00  0.00    -0.315 N 
ATOM     27  H   UNL     1      -4.671  -6.454   2.432  0.00  0.00    +0.149 HD
BRANCH  26  28
ATOM     28  C   UNL     1      -4.025  -7.113   0.520  0.00  0.00    +0.108 C 
BRANCH  28  29
ATOM     29  C   UNL     1      -5.196  -8.096   0.577  0.00  0.00    -0.034 C 
ATOM     30  C   UNL     1      -5.029  -9.017   1.787  0.00  0.00    +0.010 C 
ATOM     31  C   UNL     1      -6.508  -7.320   0.703  0.00  0.00    +0.010 C 
BRANCH  29  32
ATOM     32  C   UNL     1      -5.220  -8.935  -0.703  0.00  0.00    -0.072 C 
BRANCH  32  33
ATOM     33  N   UNL     1      -6.341  -9.883  -0.645  0.00  0.00    +0.376 N 
ATOM     34  C   UNL     1      -7.554  -9.240  -1.167  0.00  0.00    -0.097 C 
ATOM     35  C   UNL     1      -6.025 -11.065  -1.459  0.00  0.00    -0.097 C 
ATOM     36  H   UNL     1      -6.494 -10.165   0.312  0.00  0.00    -0.083 HD
ENDBRANCH  32  33
ENDBRANCH  29  32
ENDBRANCH  28  29
ENDBRANCH  26  28
ENDBRANCH   5  24
TORSDOF 6
