REMARK  Name = ZINC14159420
REMARK  7 active torsions:
REMARK  status: ('A' for Active; 'I' for Inactive)
REMARK    1  A    between atoms: C_1  and  C_2
REMARK    2  A    between atoms: C_4  and  C_32
REMARK    3  A    between atoms: N_10  and  C_11
REMARK    4  A    between atoms: C_11  and  N_13
REMARK    5  A    between atoms: N_13  and  C_14
REMARK    6  A    between atoms: C_14  and  C_15
REMARK    7  A    between atoms: N_21  and  C_22
REMARK                            x       y       z     vdW  Elec       q    Type
REMARK                         _______ _______ _______ _____ _____    ______ ____
ROOT
ATOM      1  C   UNL     1       0.062   1.349  -0.734  0.00  0.00    +0.066 C 
ATOM      2  C   UNL     1       0.002  -0.145  -0.548  0.00  0.00    +0.044 A 
ATOM      3  C   UNL     1      -1.220  -0.795  -0.476  0.00  0.00    +0.046 A 
ATOM      4  C   UNL     1      -1.230  -2.170  -0.304  0.00  0.00    +0.044 A 
ATOM      5  N   UNL     1      -0.080  -2.817  -0.214  0.00  0.00    -0.217 NA
ATOM      6  C   UNL     1       1.071  -2.166  -0.286  0.00  0.00    +0.231 A 
ATOM      7  N   UNL     1       1.115  -0.852  -0.446  0.00  0.00    -0.217 NA
ATOM      8  N   UNL     1       2.259  -2.877  -0.187  0.00  0.00    -0.297 N 
ATOM      9  C   UNL     1       3.451  -2.209  -0.102  0.00  0.00    +0.200 C 
ATOM     10  N   UNL     1       4.589  -2.882  -0.129  0.00  0.00    -0.160 NA
ATOM     11  N   UNL     1       3.466  -0.847   0.009  0.00  0.00    -0.326 N 
ATOM     12  C   UNL     1      -2.535  -2.919  -0.220  0.00  0.00    +0.066 C 
ATOM     13  H   UNL     1       2.245  -3.847  -0.178  0.00  0.00    +0.172 HD
ATOM     14  H   UNL     1       2.644  -0.368   0.198  0.00  0.00    +0.169 HD
ENDROOT
BRANCH  11  15
ATOM     15  C   UNL     1       4.665  -0.145  -0.149  0.00  0.00    +0.061 A 
ATOM     16  C   UNL     1       4.658   1.131  -0.678  0.00  0.00    +0.037 A 
ATOM     17  C   UNL     1       5.889   1.796  -0.817  0.00  0.00    +0.002 A 
ATOM     18  C   UNL     1       5.962   3.094  -1.348  0.00  0.00    +0.010 A 
ATOM     19  C   UNL     1       7.173   3.705  -1.468  0.00  0.00    +0.001 A 
ATOM     20  C   UNL     1       8.342   3.059  -1.071  0.00  0.00    +0.002 A 
ATOM     21  C   UNL     1       8.308   1.804  -0.548  0.00  0.00    +0.028 A 
ATOM     22  C   UNL     1       7.077   1.136  -0.413  0.00  0.00    +0.071 A 
ATOM     23  N   UNL     1       7.018  -0.100   0.092  0.00  0.00    -0.253 NA
ATOM     24  C   UNL     1       5.879  -0.731   0.228  0.00  0.00    +0.137 A 
ENDBRANCH  11  15
BRANCH  10  25
ATOM     25  C   UNL     1       4.575  -4.221  -0.204  0.00  0.00    +0.157 C 
ATOM     26  S   UNL     1       3.951  -4.992  -1.600  0.00  0.00    -0.017 S 
BRANCH  25  27
ATOM     27  N   UNL     1       5.051  -4.958   0.818  0.00  0.00    -0.322 N 
ATOM     28  H   UNL     1       5.404  -4.521   1.608  0.00  0.00    +0.148 HD
BRANCH  27  29
ATOM     29  C   UNL     1       5.035  -6.421   0.735  0.00  0.00    +0.134 C 
BRANCH  29  30
ATOM     30  C   UNL     1       5.628  -7.011   2.017  0.00  0.00    +0.135 C 
ATOM     31  C   UNL     1       5.623  -8.550   1.937  0.00  0.00    +0.035 C 
ATOM     32  C   UNL     1       7.111  -8.943   2.101  0.00  0.00    +0.031 C 
ATOM     33  C   UNL     1       7.705  -7.685   2.785  0.00  0.00    +0.160 C 
ATOM     34  O   UNL     1       6.995  -6.591   2.161  0.00  0.00    -0.375 OA
ENDBRANCH  29  30
ENDBRANCH  27  29
ENDBRANCH  25  27
ENDBRANCH  10  25
TORSDOF 5
