REMARK  Name = ZINC09311059
REMARK  7 active torsions:
REMARK  status: ('A' for Active; 'I' for Inactive)
REMARK    1  A    between atoms: C_7  and  C_21
REMARK    2  A    between atoms: N_9  and  C_10
REMARK    3  A    between atoms: C_10  and  C_11
REMARK    4  A    between atoms: N_13  and  C_14
REMARK    5  A    between atoms: N_22  and  N_23
REMARK    6  A    between atoms: C_24  and  C_26
REMARK    7  A    between atoms: C_29  and  O_32
REMARK                            x       y       z     vdW  Elec       q    Type
REMARK                         _______ _______ _______ _____ _____    ______ ____
ROOT
ATOM      1  C   UNL     1       0.217  -8.107  -0.019  0.00  0.00    +0.001 A 
ATOM      2  C   UNL     1       0.732  -9.396  -0.028  0.00  0.00    +0.002 A 
ATOM      3  C   UNL     1       2.092  -9.609  -0.049  0.00  0.00    +0.026 A 
ATOM      4  C   UNL     1       2.965  -8.525  -0.061  0.00  0.00    +0.050 A 
ATOM      5  C   UNL     1       2.443  -7.221  -0.046  0.00  0.00    +0.009 A 
ATOM      6  C   UNL     1       1.064  -7.021  -0.031  0.00  0.00    +0.010 A 
ATOM      7  C   UNL     1       3.607  -6.317  -0.070  0.00  0.00    +0.020 A 
ATOM      8  C   UNL     1       4.713  -7.109  -0.087  0.00  0.00    +0.096 A 
ATOM      9  N   UNL     1       4.339  -8.420  -0.082  0.00  0.00    -0.337 N 
ENDROOT
BRANCH   7  10
ATOM     10  C   UNL     1       3.578  -4.846  -0.068  0.00  0.00    +0.140 C 
ATOM     11  N   UNL     1       2.441  -4.218  -0.050  0.00  0.00    -0.187 NA
BRANCH  11  12
ATOM     12  N   UNL     1       2.413  -2.817  -0.048  0.00  0.00    -0.203 N 
ATOM     13  C   UNL     1       1.234  -2.166  -0.029  0.00  0.00    +0.263 C 
ATOM     14  O   UNL     1       0.192  -2.795  -0.014  0.00  0.00    -0.268 OA
ATOM     15  H   UNL     1       3.244  -2.316  -0.060  0.00  0.00    +0.178 HD
BRANCH  13  16
ATOM     16  C   UNL     1       1.205  -0.691  -0.028  0.00  0.00    +0.039 A 
ATOM     17  C   UNL     1      -0.018  -0.014  -0.008  0.00  0.00    +0.016 A 
ATOM     18  C   UNL     1      -0.040   1.363  -0.006  0.00  0.00    +0.046 A 
ATOM     19  C   UNL     1       1.151   2.080  -0.023  0.00  0.00    +0.117 A 
ATOM     20  C   UNL     1       2.369   1.410  -0.043  0.00  0.00    +0.046 A 
ATOM     21  C   UNL     1       2.400   0.033  -0.045  0.00  0.00    +0.016 A 
BRANCH  19  22
ATOM     22  O   UNL     1       1.125   3.437  -0.021  0.00  0.00    -0.507 OA
ATOM     23  H   UNL     1       1.131   3.829   0.863  0.00  0.00    +0.292 HD
ENDBRANCH  19  22
ENDBRANCH  13  16
ENDBRANCH  11  12
ENDBRANCH   7  10
BRANCH   9  24
ATOM     24  C   UNL     1       5.265  -9.555  -0.097  0.00  0.00    +0.217 C 
BRANCH  24  25
ATOM     25  C   UNL     1       5.466 -10.021  -1.516  0.00  0.00    +0.237 C 
ATOM     26  O   UNL     1       4.892  -9.460  -2.425  0.00  0.00    -0.274 OA
ATOM     27  N   UNL     1       6.284 -11.061  -1.774  0.00  0.00    -0.284 N 
ATOM     28  H   UNL     1       6.795 -11.466  -1.056  0.00  0.00    +0.155 HD
BRANCH  27  29
ATOM     29  C   UNL     1       6.396 -11.556  -3.079  0.00  0.00    +0.034 A 
ATOM     30  C   UNL     1       6.581 -12.915  -3.293  0.00  0.00    +0.026 A 
ATOM     31  C   UNL     1       6.684 -13.402  -4.582  0.00  0.00    +0.040 A 
ATOM     32  C   UNL     1       6.617 -12.534  -5.659  0.00  0.00    +0.124 A 
ATOM     33  C   UNL     1       6.438 -11.178  -5.447  0.00  0.00    +0.040 A 
ATOM     34  C   UNL     1       6.327 -10.687  -4.160  0.00  0.00    +0.026 A 
ATOM     35  F   UNL     1       6.724 -13.012  -6.918  0.00  0.00    -0.205 F 
ENDBRANCH  27  29
ENDBRANCH  24  25
ENDBRANCH   9  24
TORSDOF 7
