REMARK  Name = ZINC09294989
REMARK  7 active torsions:
REMARK  status: ('A' for Active; 'I' for Inactive)
REMARK    1  A    between atoms: C_1  and  C_2
REMARK    2  A    between atoms: C_2  and  C_3
REMARK    3  A    between atoms: C_3  and  C_4
REMARK    4  A    between atoms: C_10  and  C_25
REMARK    5  A    between atoms: C_12  and  C_15
REMARK    6  A    between atoms: N_17  and  C_18
REMARK    7  A    between atoms: C_28  and  C_31
REMARK                            x       y       z     vdW  Elec       q    Type
REMARK                         _______ _______ _______ _____ _____    ______ ____
ROOT
ATOM      1  C   UNL     1      -1.206   2.019   0.038  0.00  0.00    +0.151 A 
ATOM      2  N   UNL     1      -1.926   0.945  -0.129  0.00  0.00    -0.132 NA
ATOM      3  N   UNL     1      -1.164  -0.089  -0.237  0.00  0.00    -0.121 NA
ATOM      4  C   UNL     1       0.083   0.281  -0.146  0.00  0.00    +0.209 A 
ATOM      5  N   UNL     1       0.104   1.634   0.040  0.00  0.00    -0.225 N 
ATOM      6  N   UNL     1       1.200   2.421   0.199  0.00  0.00    -0.272 N 
ATOM      7  C   UNL     1       2.430   1.832  -0.331  0.00  0.00    +0.140 C 
ATOM      8  C   UNL     1       2.729   0.497   0.365  0.00  0.00    +0.166 C 
ATOM      9  S   UNL     1       1.529  -0.727  -0.241  0.00  0.00    -0.069 S 
ATOM     10  H   UNL     1       1.044   3.340  -0.187  0.00  0.00    +0.167 HD
ENDROOT
BRANCH   7  11
ATOM     11  C   UNL     1       3.577   2.782  -0.100  0.00  0.00    -0.024 A 
ATOM     12  C   UNL     1       3.675   3.470   1.095  0.00  0.00    +0.006 A 
ATOM     13  C   UNL     1       4.729   4.337   1.309  0.00  0.00    +0.004 A 
ATOM     14  C   UNL     1       5.681   4.524   0.324  0.00  0.00    -0.050 A 
ATOM     15  C   UNL     1       5.581   3.841  -0.873  0.00  0.00    +0.004 A 
ATOM     16  C   UNL     1       4.529   2.969  -1.085  0.00  0.00    +0.006 A 
ATOM     17  C   UNL     1       6.828   5.474   0.555  0.00  0.00    +0.044 C 
ENDBRANCH   7  11
BRANCH   8  18
ATOM     18  C   UNL     1       4.128   0.049   0.032  0.00  0.00    +0.233 C 
ATOM     19  O   UNL     1       4.636   0.377  -1.020  0.00  0.00    -0.274 OA
ATOM     20  N   UNL     1       4.816  -0.717   0.902  0.00  0.00    -0.285 N 
ATOM     21  H   UNL     1       4.441  -0.915   1.775  0.00  0.00    +0.155 HD
BRANCH  20  22
ATOM     22  C   UNL     1       6.071  -1.225   0.548  0.00  0.00    +0.034 A 
ATOM     23  C   UNL     1       6.333  -1.572  -0.771  0.00  0.00    +0.025 A 
ATOM     24  C   UNL     1       7.574  -2.069  -1.119  0.00  0.00    +0.022 A 
ATOM     25  C   UNL     1       8.552  -2.231  -0.153  0.00  0.00    +0.041 A 
ATOM     26  C   UNL     1       8.291  -1.890   1.163  0.00  0.00    +0.022 A 
ATOM     27  C   UNL     1       7.053  -1.388   1.515  0.00  0.00    +0.025 A 
ATOM     28 CL   UNL     1      10.108  -2.861  -0.592  0.00  0.00    -0.084 Cl
ENDBRANCH  20  22
ENDBRANCH   8  18
BRANCH   1  29
ATOM     29  C   UNL     1      -1.723   3.425   0.200  0.00  0.00    +0.078 C 
BRANCH  29  31
ATOM     30  C   UNL     1      -2.367   5.514  -1.011  0.00  0.00    +0.004 C 
ATOM     31  C   UNL     1      -1.842   4.087  -1.175  0.00  0.00    +0.004 C 
ENDBRANCH  29  31
ENDBRANCH   1  29
TORSDOF 5
