REMARK  Name = ZINC14668384
REMARK  11 active torsions:
REMARK  status: ('A' for Active; 'I' for Inactive)
REMARK    1  A    between atoms: C_1  and  C_2
REMARK    2  A    between atoms: C_2  and  C_3
REMARK    3  A    between atoms: C_2  and  O_4
REMARK    4  A    between atoms: O_4  and  C_5
REMARK    5  A    between atoms: C_10  and  C_11
REMARK    6  A    between atoms: N_13  and  C_14
REMARK    7  A    between atoms: C_14  and  N_16
REMARK    8  A    between atoms: N_16  and  C_17
REMARK    9  A    between atoms: C_18  and  C_25
REMARK   10  A    between atoms: C_25  and  O_27
REMARK   11  A    between atoms: O_27  and  C_28
REMARK                            x       y       z     vdW  Elec       q    Type
REMARK                         _______ _______ _______ _____ _____    ______ ____
ROOT
ATOM      1  C   UNL     1      -1.124  -0.619  -0.870  0.00  0.00    +0.141 C 
ATOM      2  S   UNL     1      -2.618   0.217  -0.854  0.00  0.00    -0.018 S 
ENDROOT
BRANCH   1   5
ATOM      3  C   UNL     1       0.000   1.382  -0.445  0.00  0.00    +0.253 C 
ATOM      4  O   UNL     1      -1.060   1.977  -0.438  0.00  0.00    -0.270 OA
ATOM      5  N   UNL     1       0.026   0.053  -0.664  0.00  0.00    -0.263 N 
ATOM      6  H   UNL     1       0.872  -0.421  -0.674  0.00  0.00    +0.157 HD
BRANCH   3  12
ATOM      7  C   UNL     1       1.236   3.500   0.009  0.00  0.00    +0.133 A 
ATOM      8  C   UNL     1       2.426   4.181   0.221  0.00  0.00    +0.047 A 
ATOM      9  C   UNL     1       3.626   3.499   0.206  0.00  0.00    +0.019 A 
ATOM     10  C   UNL     1       3.653   2.131  -0.020  0.00  0.00    +0.019 A 
ATOM     11  C   UNL     1       2.480   1.438  -0.226  0.00  0.00    +0.032 A 
ATOM     12  C   UNL     1       1.258   2.117  -0.219  0.00  0.00    +0.080 A 
ATOM     13 BR   UNL     1       5.306   1.212  -0.037  0.00  0.00    -0.050 Br
BRANCH   7  14
ATOM     14  O   UNL     1       0.056   4.169   0.024  0.00  0.00    -0.489 OA
BRANCH  14  16
ATOM     15  C   UNL     1      -1.144   6.210  -0.462  0.00  0.00    +0.051 C 
ATOM     16  C   UNL     1       0.119   5.592   0.142  0.00  0.00    +0.167 C 
ATOM     17  C   UNL     1       0.218   5.976   1.620  0.00  0.00    +0.051 C 
ENDBRANCH  14  16
ENDBRANCH   7  14
ENDBRANCH   3  12
ENDBRANCH   1   5
BRANCH   1  18
ATOM     18  N   UNL     1      -1.098  -1.948  -1.090  0.00  0.00    -0.290 N 
ATOM     19  H   UNL     1      -0.252  -2.422  -1.099  0.00  0.00    +0.154 HD
BRANCH  18  20
ATOM     20  C   UNL     1      -2.280  -2.638  -1.302  0.00  0.00    +0.086 A 
ATOM     21  C   UNL     1      -2.456  -3.991  -1.547  0.00  0.00    +0.091 A 
ATOM     22  C   UNL     1      -3.825  -4.472  -1.736  0.00  0.00    -0.021 A 
ATOM     23  C   UNL     1      -4.778  -3.527  -1.656  0.00  0.00    -0.004 A 
ATOM     24  S   UNL     1      -3.897  -2.020  -1.332  0.00  0.00    -0.077 S 
ATOM     25  C   UNL     1      -6.156  -4.097  -1.861  0.00  0.00    +0.043 C 
ATOM     26  C   UNL     1      -5.983  -5.618  -1.655  0.00  0.00    +0.010 C 
ATOM     27  C   UNL     1      -4.497  -5.816  -2.017  0.00  0.00    +0.037 C 
BRANCH  21  28
ATOM     28  C   UNL     1      -1.315  -4.905  -1.612  0.00  0.00    +0.342 C 
ATOM     29  O   UNL     1      -0.924  -5.462  -0.604  0.00  0.00    -0.245 OA
BRANCH  28  30
ATOM     30  O   UNL     1      -0.696  -5.130  -2.789  0.00  0.00    -0.464 OA
ATOM     31  C   UNL     1       0.428  -6.048  -2.779  0.00  0.00    +0.280 C 
ENDBRANCH  28  30
ENDBRANCH  21  28
ENDBRANCH  18  20
ENDBRANCH   1  18
TORSDOF 8
