REMARK  Name = ZINC08885389
REMARK  3 active torsions:
REMARK  status: ('A' for Active; 'I' for Inactive)
REMARK    1  A    between atoms: C_6  and  C_7
REMARK    2  A    between atoms: C_7  and  C_9
REMARK    3  A    between atoms: C_9  and  N_10
REMARK                            x       y       z     vdW  Elec       q    Type
REMARK                         _______ _______ _______ _____ _____    ______ ____
ROOT
ATOM      1  N   UNL     1      -3.672  -1.001   0.033  0.00  0.00    -0.217 N 
ATOM      2  C   UNL     1      -4.271  -1.477  -1.088  0.00  0.00    +0.247 C 
ATOM      3  O   UNL     1      -4.162  -1.003  -2.186  0.00  0.00    -0.273 OA
ATOM      4  C   UNL     1      -5.041  -2.699  -0.601  0.00  0.00    +0.113 C 
ATOM      5  C   UNL     1      -4.151  -3.936  -0.807  0.00  0.00    +0.035 C 
ATOM      6  C   UNL     1      -4.713  -4.834  -1.917  0.00  0.00    +0.003 C 
ATOM      7  C   UNL     1      -4.034  -4.576  -3.258  0.00  0.00    +0.000 C 
ATOM      8  C   UNL     1      -4.606  -3.285  -3.868  0.00  0.00    +0.000 C 
ATOM      9  C   UNL     1      -6.125  -3.272  -3.692  0.00  0.00    +0.000 C 
ATOM     10  C   UNL     1      -6.528  -2.263  -2.621  0.00  0.00    +0.003 C 
ATOM     11  C   UNL     1      -6.416  -2.818  -1.210  0.00  0.00    +0.035 C 
ATOM     12  N   UNL     1      -5.150  -2.451   0.851  0.00  0.00    -0.285 N 
ATOM     13  C   UNL     1      -4.231  -1.511   1.137  0.00  0.00    +0.310 C 
ATOM     14  O   UNL     1      -3.942  -1.166   2.265  0.00  0.00    -0.252 OA
ATOM     15  H   UNL     1      -5.760  -2.883   1.466  0.00  0.00    +0.151 HD
ENDROOT
BRANCH   1  16
ATOM     16  C   UNL     1      -2.577  -0.031   0.027  0.00  0.00    +0.197 C 
BRANCH  16  17
ATOM     17  C   UNL     1      -1.259  -0.762   0.011  0.00  0.00    +0.181 C 
ATOM     18  O   UNL     1      -1.238  -1.974   0.004  0.00  0.00    -0.290 OA
BRANCH  17  24
ATOM     19  C   UNL     1      -0.017   1.394   0.010  0.00  0.00    +0.012 A 
ATOM     20  C   UNL     1       1.170   2.094   0.002  0.00  0.00    +0.004 A 
ATOM     21  C   UNL     1       2.382   1.421  -0.014  0.00  0.00    -0.044 A 
ATOM     22  C   UNL     1       2.409   0.037  -0.021  0.00  0.00    -0.044 A 
ATOM     23  C   UNL     1       1.227  -0.677  -0.013  0.00  0.00    +0.015 A 
ATOM     24  C   UNL     1       0.002  -0.004   0.002  0.00  0.00    +0.019 A 
ATOM     25  C   UNL     1       3.844  -0.446  -0.039  0.00  0.00    +0.036 C 
ATOM     26  C   UNL     1       4.676   0.775  -0.481  0.00  0.00    +0.009 C 
ATOM     27  C   UNL     1       3.798   1.959  -0.025  0.00  0.00    +0.036 C 
ENDBRANCH  17  24
ENDBRANCH  16  17
ENDBRANCH   1  16
TORSDOF 3
