REMARK  Name = ZINC21575135
REMARK  14 active torsions:
REMARK  status: ('A' for Active; 'I' for Inactive)
REMARK    1  A    between atoms: C_1  and  C_2
REMARK    2  A    between atoms: C_4  and  C_36
REMARK    3  A    between atoms: N_10  and  C_11
REMARK    4  A    between atoms: C_11  and  N_13
REMARK    5  A    between atoms: N_13  and  C_14
REMARK    6  A    between atoms: C_16  and  O_23
REMARK    7  A    between atoms: C_19  and  O_20
REMARK    8  A    between atoms: O_20  and  C_21
REMARK    9  A    between atoms: O_23  and  C_24
REMARK   10  A    between atoms: N_25  and  C_26
REMARK   11  A    between atoms: C_28  and  C_34
REMARK   12  A    between atoms: C_28  and  C_35
REMARK   13  A    between atoms: C_30  and  C_32
REMARK   14  A    between atoms: C_30  and  C_33
REMARK                            x       y       z     vdW  Elec       q    Type
REMARK                         _______ _______ _______ _____ _____    ______ ____
ROOT
ATOM      1  C   UNL     1       0.720   6.002  -0.632  0.00  0.00    +0.066 C 
ATOM      2  C   UNL     1      -0.496   5.170  -0.316  0.00  0.00    +0.044 A 
ATOM      3  C   UNL     1      -1.752   5.752  -0.268  0.00  0.00    +0.046 A 
ATOM      4  C   UNL     1      -2.844   4.950   0.026  0.00  0.00    +0.044 A 
ATOM      5  N   UNL     1      -2.655   3.661   0.251  0.00  0.00    -0.217 NA
ATOM      6  C   UNL     1      -1.440   3.135   0.198  0.00  0.00    +0.231 A 
ATOM      7  N   UNL     1      -0.376   3.874  -0.075  0.00  0.00    -0.217 NA
ATOM      8  N   UNL     1      -1.278   1.778   0.439  0.00  0.00    -0.297 N 
ATOM      9  C   UNL     1      -0.030   1.217   0.388  0.00  0.00    +0.196 C 
ATOM     10  N   UNL     1       1.020   1.968   0.103  0.00  0.00    -0.159 NA
ATOM     11  N   UNL     1       0.129  -0.118   0.626  0.00  0.00    -0.355 N 
ATOM     12  C   UNL     1      -4.229   5.540   0.089  0.00  0.00    +0.066 C 
ATOM     13  H   UNL     1      -2.153   1.152   0.672  0.00  0.00    +0.171 HD
ATOM     14  H   UNL     1       1.121  -0.581   0.519  0.00  0.00    +0.163 HD
ENDROOT
BRANCH  11  15
ATOM     15  C   UNL     1      -1.024  -0.935   1.024  0.00  0.00    +0.079 C 
ATOM     16  C   UNL     1      -1.193  -0.863   2.541  0.00  0.00    +0.011 C 
ATOM     17  C   UNL     1      -2.374  -1.722   2.986  0.00  0.00    -0.071 C 
ATOM     18  N   UNL     1      -2.340  -3.059   2.431  0.00  0.00    +0.386 N 
ATOM     19  C   UNL     1      -1.943  -3.269   1.055  0.00  0.00    -0.071 C 
ATOM     20  C   UNL     1      -0.769  -2.390   0.632  0.00  0.00    +0.011 C 
ATOM     21  C   UNL     1      -3.121  -3.045   0.099  0.00  0.00    -0.010 C 
ATOM     22  C   UNL     1      -1.502  -4.742   0.899  0.00  0.00    -0.010 C 
ATOM     23  C   UNL     1      -3.686  -1.010   2.635  0.00  0.00    -0.010 C 
ATOM     24  C   UNL     1      -2.313  -1.836   4.525  0.00  0.00    -0.010 C 
ATOM     25  H   UNL     1      -1.633  -3.676   3.006  0.00  0.00    -0.084 HD
ATOM     26  H   UNL     1      -3.344  -3.505   2.487  0.00  0.00    -0.084 HD
ENDBRANCH  11  15
BRANCH  10  27
ATOM     27  C   UNL     1       2.222   1.400  -0.071  0.00  0.00    +0.162 C 
ATOM     28  S   UNL     1       2.483   0.336  -1.387  0.00  0.00    -0.016 S 
BRANCH  27  29
ATOM     29  N   UNL     1       3.224   1.667   0.789  0.00  0.00    -0.292 N 
ATOM     30  H   UNL     1       3.080   2.408   1.589  0.00  0.00    +0.154 HD
BRANCH  29  31
ATOM     31  C   UNL     1       4.451   1.001   0.665  0.00  0.00    +0.078 A 
ATOM     32  C   UNL     1       5.056   0.887  -0.578  0.00  0.00    +0.074 A 
ATOM     33  C   UNL     1       6.272   0.232  -0.698  0.00  0.00    +0.140 A 
ATOM     34  C   UNL     1       6.878  -0.319   0.422  0.00  0.00    +0.086 A 
ATOM     35  C   UNL     1       6.273  -0.211   1.662  0.00  0.00    +0.071 A 
ATOM     36  C   UNL     1       5.061   0.447   1.788  0.00  0.00    +0.143 A 
ATOM     37 CL   UNL     1       8.397  -1.144   0.268  0.00  0.00    -0.080 Cl
BRANCH  36  38
ATOM     38  O   UNL     1       4.467   0.553   3.007  0.00  0.00    -0.493 OA
ATOM     39  C   UNL     1       5.149  -0.038   4.115  0.00  0.00    +0.277 C 
ENDBRANCH  36  38
BRANCH  33  40
ATOM     40  O   UNL     1       6.869   0.124  -1.915  0.00  0.00    -0.494 OA
ATOM     41  C   UNL     1       6.189   0.714  -3.026  0.00  0.00    +0.277 C 
ENDBRANCH  33  40
ENDBRANCH  29  31
ENDBRANCH  27  29
ENDBRANCH  10  27
TORSDOF 6
