REMARK  Name = ZINC21263792
REMARK  14 active torsions:
REMARK  status: ('A' for Active; 'I' for Inactive)
REMARK    1  A    between atoms: C_1  and  C_2
REMARK    2  A    between atoms: C_7  and  C_8
REMARK    3  A    between atoms: C_8  and  N_9
REMARK    4  A    between atoms: N_9  and  C_10
REMARK    5  A    between atoms: N_9  and  C_19
REMARK    6  A    between atoms: C_10  and  C_11
REMARK    7  A    between atoms: C_11  and  C_12
REMARK    8  A    between atoms: C_12  and  N_13
REMARK    9  A    between atoms: C_19  and  N_21
REMARK   10  A    between atoms: N_21  and  C_22
REMARK   11  A    between atoms: C_24  and  C_30
REMARK   12  A    between atoms: C_24  and  C_31
REMARK   13  A    between atoms: C_26  and  C_28
REMARK   14  A    between atoms: C_26  and  C_29
REMARK                            x       y       z     vdW  Elec       q    Type
REMARK                         _______ _______ _______ _____ _____    ______ ____
ROOT
ATOM      1  N   UNL     1      -0.063   6.996  -2.295  0.00  0.00    -0.308 N 
ENDROOT
BRANCH   1   2
ATOM      2  C   UNL     1       0.059   5.656  -2.211  0.00  0.00    +0.133 C 
ATOM      3  S   UNL     1      -0.408   4.670  -3.530  0.00  0.00    -0.019 S 
BRANCH   2   4
ATOM      4  N   UNL     1       0.547   5.094  -1.088  0.00  0.00    -0.324 N 
ATOM      5  H   UNL     1       0.847   5.728  -0.240  0.00  0.00    +0.148 HD
BRANCH   4   6
ATOM      6  C   UNL     1       0.679   3.634  -0.996  0.00  0.00    +0.069 C 
ATOM      7  C   UNL     1       1.770   3.292   0.021  0.00  0.00    +0.009 C 
ATOM      8  C   UNL     1       1.924   1.775   0.128  0.00  0.00    -0.072 C 
ATOM      9  N   UNL     1       0.659   1.106   0.358  0.00  0.00    +0.386 N 
ATOM     10  C   UNL     1      -0.524   1.523  -0.366  0.00  0.00    -0.072 C 
ATOM     11  C   UNL     1      -0.640   3.039  -0.505  0.00  0.00    +0.009 C 
ATOM     12  C   UNL     1      -0.581   0.875  -1.755  0.00  0.00    -0.010 C 
ATOM     13  C   UNL     1      -1.764   1.033   0.416  0.00  0.00    -0.010 C 
ATOM     14  C   UNL     1       2.848   1.486   1.331  0.00  0.00    -0.010 C 
ATOM     15  C   UNL     1       2.622   1.236  -1.124  0.00  0.00    -0.010 C 
ATOM     16  H   UNL     1       0.758   0.039   0.112  0.00  0.00    -0.084 HD
ATOM     17  H   UNL     1       0.374   1.214   1.415  0.00  0.00    -0.084 HD
ENDBRANCH   4   6
ENDBRANCH   2   4
ENDBRANCH   1   2
BRANCH   1  18
ATOM     18  C   UNL     1       0.336   7.840  -1.167  0.00  0.00    +0.142 C 
BRANCH  18  25
ATOM     19  C   UNL     1       1.657   9.238   0.990  0.00  0.00    +0.044 C 
ATOM     20  C   UNL     1       2.450   8.774  -0.205  0.00  0.00    -0.046 A 
ATOM     21  C   UNL     1       3.809   9.018  -0.270  0.00  0.00    +0.003 A 
ATOM     22  C   UNL     1       4.536   8.593  -1.366  0.00  0.00    +0.000 A 
ATOM     23  C   UNL     1       3.904   7.924  -2.398  0.00  0.00    +0.000 A 
ATOM     24  C   UNL     1       2.546   7.676  -2.331  0.00  0.00    +0.005 A 
ATOM     25  C   UNL     1       1.818   8.106  -1.237  0.00  0.00    -0.027 A 
ENDBRANCH  18  25
ENDBRANCH   1  18
BRANCH   1  26
ATOM     26  C   UNL     1      -0.594   7.608  -3.516  0.00  0.00    +0.108 C 
BRANCH  26  27
ATOM     27  C   UNL     1      -2.101   7.822  -3.365  0.00  0.00    +0.034 C 
BRANCH  27  28
ATOM     28  C   UNL     1      -2.656   8.461  -4.640  0.00  0.00    +0.086 C 
BRANCH  28  29
ATOM     29  N   UNL     1      -4.103   8.667  -4.495  0.00  0.00    -0.298 NA
ATOM     30  C   UNL     1      -4.813   7.381  -4.419  0.00  0.00    +0.112 C 
ATOM     31  C   UNL     1      -6.307   7.641  -4.208  0.00  0.00    +0.175 C 
ATOM     32  O   UNL     1      -6.796   8.467  -5.269  0.00  0.00    -0.377 OA
ATOM     33  C   UNL     1      -6.127   9.727  -5.372  0.00  0.00    +0.175 C 
ATOM     34  C   UNL     1      -4.631   9.489  -5.593  0.00  0.00    +0.112 C 
ENDBRANCH  28  29
ENDBRANCH  27  28
ENDBRANCH  26  27
ENDBRANCH   1  26
TORSDOF 9
