REMARK  Name = ZINC27664483
REMARK  10 active torsions:
REMARK  status: ('A' for Active; 'I' for Inactive)
REMARK    1  A    between atoms: C_1  and  C_2
REMARK    2  A    between atoms: C_5  and  N_8
REMARK    3  A    between atoms: C_9  and  C_11
REMARK    4  A    between atoms: C_12  and  N_20
REMARK    5  A    between atoms: C_21  and  C_23
REMARK    6  A    between atoms: C_23  and  C_25
REMARK    7  A    between atoms: C_23  and  O_26
REMARK    8  A    between atoms: O_26  and  C_27
REMARK    9  A    between atoms: C_32  and  O_33
REMARK   10  A    between atoms: O_33  and  C_34
REMARK                            x       y       z     vdW  Elec       q    Type
REMARK                         _______ _______ _______ _____ _____    ______ ____
ROOT
ATOM      1  C   UNL     1       3.711   0.138  -0.307  0.00  0.00    +0.212 A 
ATOM      2  C   UNL     1       3.537   1.486  -0.464  0.00  0.00    +0.092 A 
ATOM      3  C   UNL     1       4.872   2.035  -0.728  0.00  0.00    +0.042 A 
ATOM      4  C   UNL     1       5.364   3.320  -0.962  0.00  0.00    +0.013 A 
ATOM      5  C   UNL     1       6.702   3.506  -1.172  0.00  0.00    +0.001 A 
ATOM      6  C   UNL     1       7.573   2.426  -1.147  0.00  0.00    +0.004 A 
ATOM      7  C   UNL     1       7.107   1.151  -0.912  0.00  0.00    +0.047 A 
ATOM      8  C   UNL     1       5.750   0.938  -0.696  0.00  0.00    +0.138 A 
ATOM      9  O   UNL     1       5.021  -0.167  -0.448  0.00  0.00    -0.448 OA
ENDROOT
BRANCH   1  11
ATOM     10  N   UNL     1       2.949  -2.116   0.205  0.00  0.00    -0.279 N 
ATOM     11  C   UNL     1       2.646  -0.824  -0.032  0.00  0.00    +0.285 C 
ATOM     12  O   UNL     1       1.484  -0.459  -0.018  0.00  0.00    -0.266 OA
ATOM     13  H   UNL     1       3.988  -2.463   0.112  0.00  0.00    +0.155 HD
BRANCH  10  18
ATOM     14  C   UNL     1      -1.137  -5.761   1.686  0.00  0.00    +0.044 C 
ATOM     15  C   UNL     1      -0.051  -4.792   1.293  0.00  0.00    -0.050 A 
ATOM     16  C   UNL     1       1.010  -5.223   0.519  0.00  0.00    +0.005 A 
ATOM     17  C   UNL     1       2.007  -4.338   0.156  0.00  0.00    +0.023 A 
ATOM     18  C   UNL     1       1.942  -3.014   0.571  0.00  0.00    +0.034 A 
ATOM     19  C   UNL     1       0.877  -2.586   1.353  0.00  0.00    +0.023 A 
ATOM     20  C   UNL     1      -0.119  -3.475   1.707  0.00  0.00    +0.005 A 
ENDBRANCH  10  18
ENDBRANCH   1  11
BRANCH   2  21
ATOM     21  N   UNL     1       2.340   2.189  -0.392  0.00  0.00    -0.279 N 
ATOM     22  C   UNL     1       2.344   3.490  -0.039  0.00  0.00    +0.258 C 
ATOM     23  O   UNL     1       3.382   4.029   0.280  0.00  0.00    -0.271 OA
ATOM     24  H   UNL     1       1.391   1.685  -0.624  0.00  0.00    +0.155 HD
BRANCH  22  25
ATOM     25  C   UNL     1       1.056   4.273  -0.035  0.00  0.00    +0.256 C 
ATOM     26  C   UNL     1       0.458   4.279  -1.444  0.00  0.00    +0.062 C 
BRANCH  25  27
ATOM     27  O   UNL     1       1.316   5.616   0.378  0.00  0.00    -0.476 OA
BRANCH  27  28
ATOM     28  C   UNL     1       0.278   6.308   0.918  0.00  0.00    +0.163 A 
ATOM     29  C   UNL     1      -0.990   5.750   0.944  0.00  0.00    +0.049 A 
ATOM     30  C   UNL     1      -2.045   6.455   1.494  0.00  0.00    +0.004 A 
ATOM     31  C   UNL     1      -1.837   7.717   2.018  0.00  0.00    +0.004 A 
ATOM     32  C   UNL     1      -0.575   8.280   1.996  0.00  0.00    +0.049 A 
ATOM     33  C   UNL     1       0.488   7.576   1.452  0.00  0.00    +0.162 A 
BRANCH  33  34
ATOM     34  O   UNL     1       1.731   8.126   1.434  0.00  0.00    -0.491 OA
ATOM     35  C   UNL     1       1.872   9.431   1.999  0.00  0.00    +0.277 C 
ENDBRANCH  33  34
ENDBRANCH  27  28
ENDBRANCH  25  27
ENDBRANCH  22  25
ENDBRANCH   2  21
TORSDOF 7
