REMARK  Name = ZINC09781885
REMARK  6 active torsions:
REMARK  status: ('A' for Active; 'I' for Inactive)
REMARK    1  A    between atoms: C_1  and  C_2
REMARK    2  A    between atoms: C_4  and  C_32
REMARK    3  A    between atoms: N_8  and  S_9
REMARK    4  A    between atoms: S_9  and  C_12
REMARK    5  A    between atoms: C_15  and  N_18
REMARK    6  A    between atoms: C_21  and  C_24
REMARK                            x       y       z     vdW  Elec       q    Type
REMARK                         _______ _______ _______ _____ _____    ______ ____
ROOT
ATOM      1  C   UNL     1      -0.131   0.341   0.592  0.00  0.00    +0.109 A 
ATOM      2  C   UNL     1      -0.003   1.715   0.678  0.00  0.00    +0.030 A 
ATOM      3  C   UNL     1       1.228   2.309   0.475  0.00  0.00    +0.025 A 
ATOM      4  C   UNL     1       2.336   1.525   0.185  0.00  0.00    +0.033 A 
ATOM      5  C   UNL     1       2.204   0.144   0.100  0.00  0.00    +0.025 A 
ATOM      6  C   UNL     1       0.971  -0.443   0.304  0.00  0.00    +0.030 A 
ENDROOT
BRANCH   4   7
ATOM      7  N   UNL     1       3.583   2.122  -0.021  0.00  0.00    -0.294 N 
ATOM      8  C   UNL     1       3.670   3.325  -0.705  0.00  0.00    +0.163 A 
ATOM      9  N   UNL     1       4.723   4.097  -0.906  0.00  0.00    -0.225 NA
ATOM     10  C   UNL     1       4.625   5.228  -1.591  0.00  0.00    +0.083 A 
ATOM     11  C   UNL     1       3.412   5.602  -2.098  0.00  0.00    +0.077 A 
ATOM     12  S   UNL     1       2.390   4.240  -1.553  0.00  0.00    -0.060 S 
ATOM     13  H   UNL     1       4.387   1.696   0.314  0.00  0.00    +0.154 HD
BRANCH  10  14
ATOM     14  C   UNL     1       5.820   6.079  -1.806  0.00  0.00    +0.036 A 
ATOM     15  C   UNL     1       5.714   7.263  -2.532  0.00  0.00    +0.016 A 
ATOM     16  C   UNL     1       6.828   8.054  -2.726  0.00  0.00    +0.039 A 
ATOM     17  C   UNL     1       8.054   7.668  -2.209  0.00  0.00    +0.126 A 
ATOM     18  C   UNL     1       8.168   6.490  -1.490  0.00  0.00    +0.077 A 
ATOM     19  C   UNL     1       7.057   5.693  -1.287  0.00  0.00    +0.135 A 
ATOM     20  F   UNL     1       7.168   4.543  -0.587  0.00  0.00    -0.205 F 
ATOM     21  F   UNL     1       9.142   8.444  -2.405  0.00  0.00    -0.205 F 
ENDBRANCH  10  14
ENDBRANCH   4   7
BRANCH   1  22
ATOM     22  S   UNL     1      -1.703  -0.413   0.852  0.00  0.00    +0.075 S 
ATOM     23  O   UNL     1      -1.449  -1.752   1.255  0.00  0.00    -0.150 OA
ATOM     24  O   UNL     1      -2.461   0.491   1.644  0.00  0.00    -0.150 OA
BRANCH  22  32
ATOM     25  C   UNL     1       1.266  -2.998  -2.312  0.00  0.00    +0.066 C 
ATOM     26  C   UNL     1      -0.148  -2.496  -2.450  0.00  0.00    +0.044 A 
ATOM     27  C   UNL     1      -0.904  -2.826  -3.564  0.00  0.00    +0.046 A 
ATOM     28  C   UNL     1      -2.200  -2.344  -3.652  0.00  0.00    +0.044 A 
ATOM     29  N   UNL     1      -2.675  -1.587  -2.676  0.00  0.00    -0.219 NA
ATOM     30  C   UNL     1      -1.926  -1.290  -1.624  0.00  0.00    +0.235 A 
ATOM     31  N   UNL     1      -0.682  -1.731  -1.512  0.00  0.00    -0.219 NA
ATOM     32  N   UNL     1      -2.455  -0.496  -0.621  0.00  0.00    -0.184 N 
ATOM     33  C   UNL     1      -3.059  -2.677  -4.845  0.00  0.00    +0.066 C 
ATOM     34  H   UNL     1      -3.266   0.011  -0.781  0.00  0.00    +0.177 HD
ENDBRANCH  22  32
ENDBRANCH   1  22
TORSDOF 4
