REMARK  Name = ZINC06239020
REMARK  12 active torsions:
REMARK  status: ('A' for Active; 'I' for Inactive)
REMARK    1  A    between atoms: C_1  and  O_2
REMARK    2  A    between atoms: O_2  and  C_3
REMARK    3  A    between atoms: C_3  and  C_4
REMARK    4  A    between atoms: C_4  and  N_5
REMARK    5  A    between atoms: N_5  and  C_6
REMARK    6  A    between atoms: C_6  and  N_8
REMARK    7  A    between atoms: N_8  and  C_9
REMARK    8  A    between atoms: N_8  and  C_17
REMARK    9  A    between atoms: C_9  and  C_10
REMARK   10  A    between atoms: C_10  and  C_11
REMARK   11  A    between atoms: C_11  and  N_62
REMARK   12  A    between atoms: C_17  and  C_18
REMARK                            x       y       z     vdW  Elec       q    Type
REMARK                         _______ _______ _______ _____ _____    ______ ____
ROOT
ATOM      1  N   UNL     1       0.002  -0.004   0.002  0.00  0.00    -0.308 N 
ENDROOT
BRANCH   1   2
ATOM      2  C   UNL     1       1.028  -0.667   0.572  0.00  0.00    +0.133 C 
ATOM      3  S   UNL     1       2.307   0.202   1.306  0.00  0.00    -0.019 S 
BRANCH   2   4
ATOM      4  N   UNL     1       1.046  -2.015   0.565  0.00  0.00    -0.324 N 
ATOM      5  H   UNL     1       0.321  -2.507   0.149  0.00  0.00    +0.148 HD
BRANCH   4   6
ATOM      6  C   UNL     1       2.160  -2.736   1.185  0.00  0.00    +0.131 C 
BRANCH   6   7
ATOM      7  C   UNL     1       1.937  -4.242   1.039  0.00  0.00    +0.178 C 
BRANCH   7   9
ATOM      8  C   UNL     1       1.781  -5.992  -0.592  0.00  0.00    +0.194 C 
ATOM      9  O   UNL     1       1.979  -4.598  -0.344  0.00  0.00    -0.381 OA
ENDBRANCH   7   9
ENDBRANCH   6   7
ENDBRANCH   4   6
ENDBRANCH   2   4
ENDBRANCH   1   2
BRANCH   1  10
ATOM     10  C   UNL     1      -1.093  -0.748  -0.626  0.00  0.00    +0.105 C 
BRANCH  10  11
ATOM     11  C   UNL     1      -0.764  -0.991  -2.100  0.00  0.00    +0.000 C 
BRANCH  11  12
ATOM     12  C   UNL     1      -1.908  -1.768  -2.756  0.00  0.00    -0.077 C 
BRANCH  12  18
ATOM     13  C   UNL     1      -1.564  -0.735  -4.920  0.00  0.00    -0.050 C 
ATOM     14  C   UNL     1      -1.175  -1.017  -6.374  0.00  0.00    +0.141 C 
ATOM     15  O   UNL     1      -2.095  -1.957  -6.935  0.00  0.00    -0.383 OA
ATOM     16  C   UNL     1      -2.148  -3.201  -6.231  0.00  0.00    +0.141 C 
ATOM     17  C   UNL     1      -2.547  -2.941  -4.776  0.00  0.00    -0.050 C 
ATOM     18  N   UNL     1      -1.568  -2.011  -4.175  0.00  0.00    +0.383 N 
ATOM     19  H   UNL     1      -0.633  -2.431  -4.227  0.00  0.00    -0.082 HD
ENDBRANCH  12  18
ENDBRANCH  11  12
ENDBRANCH  10  11
ENDBRANCH   1  10
BRANCH   1  20
ATOM     20  C   UNL     1      -0.018   1.461   0.010  0.00  0.00    +0.147 C 
BRANCH  20  21
ATOM     21  C   UNL     1      -0.723   1.947   1.250  0.00  0.00    +0.035 A 
ATOM     22  C   UNL     1      -0.003   2.273   2.354  0.00  0.00    +0.020 A 
ATOM     23  C   UNL     1      -0.717   2.742   3.541  0.00  0.00    +0.003 A 
ATOM     24  C   UNL     1      -0.025   3.094   4.707  0.00  0.00    +0.059 A 
ATOM     25  C   UNL     1      -0.725   3.533   5.809  0.00  0.00    +0.167 A 
ATOM     26  C   UNL     1      -2.122   3.629   5.766  0.00  0.00    +0.168 A 
ATOM     27  C   UNL     1      -2.812   3.283   4.619  0.00  0.00    +0.075 A 
ATOM     28  C   UNL     1      -2.121   2.839   3.499  0.00  0.00    +0.053 A 
ATOM     29  N   UNL     1      -2.794   2.491   2.345  0.00  0.00    -0.322 N 
ATOM     30  H   UNL     1      -3.791   2.556   2.318  0.00  0.00    +0.169 HD
ATOM     31  C   UNL     1      -2.127   2.067   1.257  0.00  0.00    +0.254 A 
ATOM     32  O   UNL     1      -2.754   1.773   0.253  0.00  0.00    -0.268 OA
ATOM     33  O   UNL     1      -2.561   4.085   6.975  0.00  0.00    -0.453 OA
ATOM     34  C   UNL     1      -1.406   4.658   7.614  0.00  0.00    +0.466 C 
ATOM     35  O   UNL     1      -0.301   3.932   7.045  0.00  0.00    -0.453 OA
ENDBRANCH  20  21
ENDBRANCH   1  20
TORSDOF 11
