REMARK  Name = ZINC13552419
REMARK  5 active torsions:
REMARK  status: ('A' for Active; 'I' for Inactive)
REMARK    1  A    between atoms: C_3  and  O_30
REMARK    2  A    between atoms: C_6  and  C_7
REMARK    3  A    between atoms: C_7  and  C_8
REMARK    4  A    between atoms: C_8  and  N_9
REMARK    5  A    between atoms: C_10  and  C_12
REMARK                            x       y       z     vdW  Elec       q    Type
REMARK                         _______ _______ _______ _____ _____    ______ ____
ROOT
ATOM      1  C   UNL     1      -4.876  -2.877  -2.599  0.00  0.00    +0.092 C 
ATOM      2  C   UNL     1      -4.677  -4.207  -1.870  0.00  0.00    +0.016 C 
ATOM      3  C   UNL     1      -6.006  -4.965  -1.814  0.00  0.00    +0.020 C 
ATOM      4  C   UNL     1      -6.480  -5.261  -3.241  0.00  0.00    +0.106 C 
ATOM      5  N   UNL     1      -6.535  -3.999  -3.992  0.00  0.00    -0.313 N 
ATOM      6  C   UNL     1      -5.338  -3.148  -4.034  0.00  0.00    +0.119 C 
ATOM      7  C   UNL     1      -7.692  -3.620  -4.649  0.00  0.00    +0.154 A 
ATOM      8  C   UNL     1      -8.797  -4.486  -4.716  0.00  0.00    +0.148 A 
ATOM      9  C   UNL     1      -9.945  -4.045  -5.396  0.00  0.00    +0.164 A 
ATOM     10  N   UNL     1     -10.853  -5.070  -5.310  0.00  0.00    -0.329 N 
ATOM     11  H   UNL     1     -11.749  -5.076  -5.681  0.00  0.00    +0.168 HD
ATOM     12  C   UNL     1     -10.265  -6.079  -4.605  0.00  0.00    +0.198 A 
ATOM     13  N   UNL     1      -9.059  -5.734  -4.258  0.00  0.00    -0.231 NA
ATOM     14  N   UNL     1      -9.945  -2.835  -5.947  0.00  0.00    -0.198 NA
ATOM     15  C   UNL     1      -8.886  -2.057  -5.859  0.00  0.00    +0.226 A 
ATOM     16  N   UNL     1      -7.787  -2.426  -5.224  0.00  0.00    -0.200 NA
ATOM     17 CL   UNL     1      -8.939  -0.487  -6.597  0.00  0.00    -0.041 Cl
ENDROOT
BRANCH   1  19
ATOM     18  N   UNL     1      -2.975  -1.768  -1.469  0.00  0.00    -0.315 N 
ATOM     19  C   UNL     1      -3.575  -2.117  -2.624  0.00  0.00    +0.218 C 
ATOM     20  O   UNL     1      -3.066  -1.821  -3.685  0.00  0.00    -0.275 OA
ATOM     21  H   UNL     1      -3.382  -2.005  -0.621  0.00  0.00    +0.149 HD
BRANCH  18  22
ATOM     22  C   UNL     1      -1.710  -1.030  -1.494  0.00  0.00    +0.109 C 
BRANCH  22  23
ATOM     23  C   UNL     1      -1.249  -0.760  -0.060  0.00  0.00    +0.054 C 
BRANCH  23  29
ATOM     24  C   UNL     1       0.045   1.382  -0.098  0.00  0.00    +0.007 A 
ATOM     25  C   UNL     1       1.237   2.080  -0.121  0.00  0.00    +0.045 A 
ATOM     26  C   UNL     1       2.442   1.393  -0.132  0.00  0.00    +0.117 A 
ATOM     27  C   UNL     1       2.447   0.006  -0.120  0.00  0.00    +0.045 A 
ATOM     28  C   UNL     1       1.253  -0.688  -0.097  0.00  0.00    +0.007 A 
ATOM     29  C   UNL     1       0.053  -0.001  -0.086  0.00  0.00    -0.046 A 
BRANCH  26  30
ATOM     30  O   UNL     1       3.616   2.077  -0.155  0.00  0.00    -0.507 OA
ATOM     31  H   UNL     1       3.968   2.284   0.721  0.00  0.00    +0.292 HD
ENDBRANCH  26  30
ENDBRANCH  23  29
ENDBRANCH  22  23
ENDBRANCH  18  22
ENDBRANCH   1  19
TORSDOF 5
