REMARK  Name = ZINC12871167
REMARK  6 active torsions:
REMARK  status: ('A' for Active; 'I' for Inactive)
REMARK    1  A    between atoms: C_1  and  C_2
REMARK    2  A    between atoms: C_5  and  N_11
REMARK    3  A    between atoms: C_7  and  N_8
REMARK    4  A    between atoms: C_12  and  C_14
REMARK    5  A    between atoms: C_14  and  C_15
REMARK    6  A    between atoms: C_15  and  C_16
REMARK                            x       y       z     vdW  Elec       q    Type
REMARK                         _______ _______ _______ _____ _____    ______ ____
ROOT
ATOM      1  N   UNL     1      -1.683  -1.795  -0.161  0.00  0.00    -0.285 N 
ATOM      2  C   UNL     1      -1.476  -0.464  -0.110  0.00  0.00    +0.217 C 
ATOM      3  O   UNL     1      -2.416   0.292   0.013  0.00  0.00    -0.275 OA
ATOM      4  H   UNL     1      -0.942  -2.395  -0.336  0.00  0.00    +0.155 HD
ENDROOT
BRANCH   1   9
ATOM      5  C   UNL     1      -6.894  -3.886   0.650  0.00  0.00    +0.046 C 
ATOM      6  C   UNL     1      -5.510  -3.330   0.435  0.00  0.00    -0.020 A 
ATOM      7  C   UNL     1      -5.345  -2.124  -0.222  0.00  0.00    +0.007 A 
ATOM      8  C   UNL     1      -4.078  -1.612  -0.421  0.00  0.00    +0.024 A 
ATOM      9  C   UNL     1      -2.969  -2.310   0.040  0.00  0.00    +0.036 A 
ATOM     10  C   UNL     1      -3.138  -3.523   0.694  0.00  0.00    +0.056 A 
ATOM     11  C   UNL     1      -4.408  -4.027   0.894  0.00  0.00    +0.131 A 
BRANCH  11  12
ATOM     12  N   UNL     1      -4.589  -5.317   1.596  0.00  0.00    +0.057 N 
ATOM     13  O   UNL     1      -3.617  -5.955   1.958  0.00  0.00    -0.126 OA
ATOM     14  O   UNL     1      -5.711  -5.742   1.811  0.00  0.00    -0.126 OA
ENDBRANCH  11  12
ENDBRANCH   1   9
BRANCH   2  15
ATOM     15  C   UNL     1      -0.075   0.084  -0.206  0.00  0.00    +0.097 C 
BRANCH  15  16
ATOM     16  C   UNL     1      -0.118   1.611  -0.123  0.00  0.00    +0.022 C 
BRANCH  16  17
ATOM     17  C   UNL     1       1.303   2.168  -0.221  0.00  0.00    +0.080 C 
ATOM     18  C   UNL     1       1.249   3.695  -0.270  0.00  0.00    +0.049 C 
ATOM     19  C   UNL     1       2.634   4.258  -0.080  0.00  0.00    -0.025 A 
ATOM     20  C   UNL     1       2.995   5.433  -0.711  0.00  0.00    +0.005 A 
ATOM     21  C   UNL     1       4.251   5.972  -0.506  0.00  0.00    +0.000 A 
ATOM     22  C   UNL     1       5.149   5.339   0.334  0.00  0.00    +0.002 A 
ATOM     23  C   UNL     1       4.797   4.161   0.962  0.00  0.00    +0.023 A 
ATOM     24  C   UNL     1       3.543   3.606   0.743  0.00  0.00    +0.037 A 
ATOM     25  N   UNL     1       3.188   2.409   1.369  0.00  0.00    -0.285 N 
ATOM     26  C   UNL     1       2.098   1.725   0.979  0.00  0.00    +0.221 C 
ATOM     27  O   UNL     1       1.752   0.742   1.599  0.00  0.00    -0.275 OA
ATOM     28  H   UNL     1       3.734   2.067   2.095  0.00  0.00    +0.155 HD
ENDBRANCH  16  17
ENDBRANCH  15  16
ENDBRANCH   2  15
TORSDOF 5
