REMARK  Name = ZINC09659969
REMARK  3 active torsions:
REMARK  status: ('A' for Active; 'I' for Inactive)
REMARK    1  A    between atoms: C_3  and  C_6
REMARK    2  A    between atoms: N_8  and  C_9
REMARK    3  A    between atoms: C_18  and  C_20
REMARK                            x       y       z     vdW  Elec       q    Type
REMARK                         _______ _______ _______ _____ _____    ______ ____
ROOT
ATOM      1  C   UNL     1      -2.102  -3.096  -0.086  0.00  0.00    +0.035 A 
ATOM      2  C   UNL     1      -3.397  -2.589  -0.170  0.00  0.00    +0.027 A 
ATOM      3  C   UNL     1      -4.479  -3.438  -0.255  0.00  0.00    +0.049 A 
ATOM      4  C   UNL     1      -4.284  -4.814  -0.258  0.00  0.00    +0.139 A 
ATOM      5  C   UNL     1      -2.980  -5.327  -0.174  0.00  0.00    +0.066 A 
ATOM      6  C   UNL     1      -1.890  -4.463  -0.093  0.00  0.00    +0.038 A 
ATOM      7  C   UNL     1      -2.798  -6.793  -0.178  0.00  0.00    +0.193 A 
ATOM      8  O   UNL     1      -1.688  -7.294  -0.107  0.00  0.00    -0.287 OA
ATOM      9  C   UNL     1      -3.961  -7.591  -0.269  0.00  0.00    +0.098 A 
ATOM     10  C   UNL     1      -5.181  -6.993  -0.346  0.00  0.00    +0.139 A 
ATOM     11  O   UNL     1      -5.333  -5.660  -0.341  0.00  0.00    -0.455 OA
ENDROOT
BRANCH  10  12
ATOM     12  C   UNL     1      -6.383  -7.844  -0.440  0.00  0.00    +0.018 A 
ATOM     13  C   UNL     1      -6.259  -9.235  -0.453  0.00  0.00    +0.014 A 
ATOM     14  C   UNL     1      -7.386 -10.024  -0.535  0.00  0.00    +0.039 A 
ATOM     15  C   UNL     1      -8.641  -9.440  -0.615  0.00  0.00    +0.123 A 
ATOM     16  C   UNL     1      -8.770  -8.060  -0.607  0.00  0.00    +0.039 A 
ATOM     17  C   UNL     1      -7.651  -7.260  -0.520  0.00  0.00    +0.014 A 
ATOM     18  F   UNL     1      -9.741 -10.219  -0.701  0.00  0.00    -0.205 F 
ENDBRANCH  10  12
BRANCH   1  21
ATOM     19  C   UNL     1       0.075  -2.567   0.715  0.00  0.00    +0.284 C 
ATOM     20  O   UNL     1       0.075  -3.598   1.362  0.00  0.00    -0.266 OA
ATOM     21  N   UNL     1      -1.014  -2.220   0.001  0.00  0.00    -0.279 N 
ATOM     22  H   UNL     1      -1.043  -1.363  -0.454  0.00  0.00    +0.155 HD
BRANCH  19  25
ATOM     23  C   UNL     1       3.279  -0.859   1.099  0.00  0.00    +0.042 A 
ATOM     24  C   UNL     1       2.424  -1.935   1.387  0.00  0.00    +0.054 A 
ATOM     25  C   UNL     1       1.260  -1.703   0.711  0.00  0.00    +0.189 A 
ATOM     26  O   UNL     1       1.392  -0.541   0.039  0.00  0.00    -0.458 OA
ATOM     27  C   UNL     1       2.608  -0.029   0.271  0.00  0.00    +0.196 A 
ENDBRANCH  19  25
ENDBRANCH   1  21
TORSDOF 3
