REMARK  Name = ZINC13164621
REMARK  11 active torsions:
REMARK  status: ('A' for Active; 'I' for Inactive)
REMARK    1  A    between atoms: C_1  and  C_2
REMARK    2  A    between atoms: C_2  and  C_3
REMARK    3  A    between atoms: C_3  and  N_59
REMARK    4  A    between atoms: C_4  and  C_5
REMARK    5  A    between atoms: C_4  and  N_59
REMARK    6  A    between atoms: C_8  and  C_10
REMARK    7  A    between atoms: C_15  and  C_16
REMARK    8  A    between atoms: C_15  and  N_59
REMARK    9  A    between atoms: N_18  and  C_19
REMARK   10  A    between atoms: C_24  and  C_25
REMARK   11  A    between atoms: N_27  and  C_28
REMARK                            x       y       z     vdW  Elec       q    Type
REMARK                         _______ _______ _______ _____ _____    ______ ____
ROOT
ATOM      1  C   UNL     1       2.704  -0.933   0.992  0.00  0.00    +0.201 C 
ATOM      2  O   UNL     1       3.853  -0.545   0.998  0.00  0.00    -0.278 OA
ATOM      3  N   UNL     1       1.714  -0.101   0.612  0.00  0.00    -0.286 N 
ATOM      4  H   UNL     1       0.806  -0.432   0.533  0.00  0.00    +0.155 HD
ENDROOT
BRANCH   3   5
ATOM      5  C   UNL     1       1.996   1.234   0.330  0.00  0.00    +0.046 A 
ATOM      6  C   UNL     1       3.076   1.862   0.937  0.00  0.00    +0.024 A 
ATOM      7  C   UNL     1       3.354   3.184   0.656  0.00  0.00    +0.002 A 
ATOM      8  C   UNL     1       2.560   3.895  -0.230  0.00  0.00    +0.001 A 
ATOM      9  C   UNL     1       1.487   3.287  -0.845  0.00  0.00    +0.015 A 
ATOM     10  C   UNL     1       1.190   1.951  -0.567  0.00  0.00    +0.058 A 
BRANCH  10  11
ATOM     11  C   UNL     1       0.040   1.295  -1.218  0.00  0.00    +0.250 C 
ATOM     12  O   UNL     1      -0.153   0.106  -1.056  0.00  0.00    -0.270 OA
ATOM     13  N   UNL     1      -0.793   2.014  -1.996  0.00  0.00    -0.281 N 
ATOM     14  H   UNL     1      -0.602   2.947  -2.179  0.00  0.00    +0.155 HD
BRANCH  13  15
ATOM     15  C   UNL     1      -1.934   1.414  -2.540  0.00  0.00    +0.034 A 
ATOM     16  C   UNL     1      -1.894   0.087  -2.950  0.00  0.00    +0.026 A 
ATOM     17  C   UNL     1      -3.023  -0.504  -3.482  0.00  0.00    +0.040 A 
ATOM     18  C   UNL     1      -4.191   0.227  -3.616  0.00  0.00    +0.124 A 
ATOM     19  C   UNL     1      -4.232   1.551  -3.213  0.00  0.00    +0.040 A 
ATOM     20  C   UNL     1      -3.107   2.145  -2.675  0.00  0.00    +0.026 A 
ATOM     21  F   UNL     1      -5.293  -0.353  -4.141  0.00  0.00    -0.205 F 
ENDBRANCH  13  15
ENDBRANCH  10  11
ENDBRANCH   3   5
BRANCH   1  22
ATOM     22  C   UNL     1       2.383  -2.344   1.411  0.00  0.00    +0.020 C 
BRANCH  22  23
ATOM     23  N   UNL     1       3.624  -2.991   1.886  0.00  0.00    +0.391 N 
ATOM     24  H   UNL     1       4.395  -2.735   1.258  0.00  0.00    -0.080 HD
BRANCH  23  25
ATOM     25  C   UNL     1       3.463  -4.461   1.874  0.00  0.00    -0.078 C 
BRANCH  25  27
ATOM     26  C   UNL     1       3.343  -6.464   0.386  0.00  0.00    +0.002 C 
ATOM     27  C   UNL     1       3.603  -4.957   0.434  0.00  0.00    -0.022 C 
ENDBRANCH  25  27
ENDBRANCH  23  25
BRANCH  23  28
ATOM     28  C   UNL     1       3.943  -2.529   3.253  0.00  0.00    +0.021 C 
BRANCH  28  29
ATOM     29  C   UNL     1       5.316  -3.027   3.626  0.00  0.00    +0.202 A 
ATOM     30  N   UNL     1       6.444  -2.414   3.401  0.00  0.00    -0.114 NA
ATOM     31  N   UNL     1       7.418  -3.122   3.853  0.00  0.00    -0.104 NA
ATOM     32  C   UNL     1       6.940  -4.228   4.381  0.00  0.00    +0.284 A 
ATOM     33  O   UNL     1       5.598  -4.187   4.246  0.00  0.00    -0.420 OA
BRANCH  32  34
ATOM     34  C   UNL     1       7.722  -5.308   5.002  0.00  0.00    +0.191 A 
ATOM     35  C   UNL     1       9.078  -5.340   5.134  0.00  0.00    +0.055 A 
ATOM     36  C   UNL     1       9.393  -6.549   5.782  0.00  0.00    +0.042 A 
ATOM     37  C   UNL     1       8.229  -7.189   6.013  0.00  0.00    +0.196 A 
ATOM     38  O   UNL     1       7.222  -6.436   5.545  0.00  0.00    -0.458 OA
ENDBRANCH  32  34
ENDBRANCH  28  29
ENDBRANCH  23  28
ENDBRANCH  22  23
ENDBRANCH   1  22
TORSDOF 10
