REMARK  Name = ZINC63271967
REMARK  9 active torsions:
REMARK  status: ('A' for Active; 'I' for Inactive)
REMARK    1  A    between atoms: C_1  and  C_2
REMARK    2  A    between atoms: C_2  and  C_36
REMARK    3  A    between atoms: C_4  and  N_10
REMARK    4  A    between atoms: C_6  and  C_8
REMARK    5  A    between atoms: C_6  and  C_9
REMARK    6  A    between atoms: C_11  and  C_13
REMARK    7  A    between atoms: C_13  and  C_14
REMARK    8  A    between atoms: C_14  and  N_15
REMARK    9  A    between atoms: C_24  and  C_26
REMARK                            x       y       z     vdW  Elec       q    Type
REMARK                         _______ _______ _______ _____ _____    ______ ____
ROOT
ATOM      1  N   UNL     1       6.152  -0.672  -6.025  0.00  0.00    -0.299 N 
ATOM      2  C   UNL     1       7.304  -0.185  -6.525  0.00  0.00    +0.302 C 
ATOM      3  O   UNL     1       7.860   0.746  -5.975  0.00  0.00    -0.253 OA
ATOM      4  N   UNL     1       7.840  -0.729  -7.636  0.00  0.00    -0.283 N 
ATOM      5  C   UNL     1       7.121  -1.772  -8.380  0.00  0.00    +0.128 C 
ATOM      6  C   UNL     1       6.976  -1.322  -9.839  0.00  0.00    +0.127 C 
ATOM      7  N   UNL     1       8.290  -0.882 -10.327  0.00  0.00    -0.297 N 
ATOM      8  C   UNL     1       9.010   0.162  -9.583  0.00  0.00    +0.127 C 
ATOM      9  C   UNL     1       9.152  -0.285  -8.127  0.00  0.00    +0.128 C 
ATOM     10  C   UNL     1       8.826  -1.426 -11.438  0.00  0.00    +0.242 C 
ATOM     11  O   UNL     1       8.224  -2.287 -12.043  0.00  0.00    -0.273 OA
ATOM     12  H   UNL     1       5.670  -1.366  -6.503  0.00  0.00    +0.150 HD
ENDROOT
BRANCH  10  13
ATOM     13  C   UNL     1      10.175  -0.965 -11.927  0.00  0.00    +0.190 C 
ATOM     14  C   UNL     1      11.236  -1.266 -10.892  0.00  0.00    +0.016 C 
ATOM     15  C   UNL     1      12.114  -2.104 -11.489  0.00  0.00    -0.004 A 
ATOM     16  C   UNL     1      13.346  -2.752 -11.022  0.00  0.00    +0.010 A 
ATOM     17  C   UNL     1      14.026  -3.557 -11.869  0.00  0.00    +0.001 A 
ATOM     18  C   UNL     1      13.585  -3.788 -13.179  0.00  0.00    +0.002 A 
ATOM     19  C   UNL     1      12.463  -3.229 -13.681  0.00  0.00    +0.026 A 
ATOM     20  C   UNL     1      11.670  -2.365 -12.877  0.00  0.00    +0.043 A 
ATOM     21  N   UNL     1      10.560  -1.712 -13.130  0.00  0.00    -0.370 N 
ATOM     22  H   UNL     1      10.074  -1.722 -13.969  0.00  0.00    +0.161 HD
ENDBRANCH  10  13
BRANCH   1  23
ATOM     23  C   UNL     1       5.626  -0.155  -4.759  0.00  0.00    +0.115 C 
BRANCH  23  24
ATOM     24  C   UNL     1       4.317  -0.872  -4.420  0.00  0.00    +0.114 C 
BRANCH  24  26
ATOM     25  N   UNL     1       2.623  -0.828  -2.618  0.00  0.00    -0.313 N 
ATOM     26  C   UNL     1       3.776  -0.340  -3.118  0.00  0.00    +0.215 C 
ATOM     27  O   UNL     1       4.378   0.527  -2.520  0.00  0.00    -0.276 OA
ATOM     28  H   UNL     1       2.142  -1.521  -3.096  0.00  0.00    +0.149 HD
BRANCH  25  32
ATOM     29  C   UNL     1      -0.015   1.515   0.018  0.00  0.00    -0.010 C 
ATOM     30  C   UNL     1       0.011  -0.017   0.013  0.00  0.00    -0.072 C 
ATOM     31  C   UNL     1       0.582  -0.518  -1.310  0.00  0.00    +0.009 C 
ATOM     32  C   UNL     1       2.096  -0.309  -1.349  0.00  0.00    +0.070 C 
ATOM     33  C   UNL     1       2.715  -1.090  -0.190  0.00  0.00    +0.009 C 
ATOM     34  C   UNL     1       2.160  -0.594   1.141  0.00  0.00    -0.072 C 
ATOM     35  N   UNL     1       0.710  -0.537   1.175  0.00  0.00    +0.386 N 
ATOM     36  C   UNL     1       2.778   0.765   1.486  0.00  0.00    -0.010 C 
ATOM     37  C   UNL     1       2.618  -1.589   2.232  0.00  0.00    -0.010 C 
ATOM     38  C   UNL     1      -1.457  -0.495   0.092  0.00  0.00    -0.010 C 
ATOM     39  H   UNL     1       0.428   0.013   1.992  0.00  0.00    -0.084 HD
ATOM     40  H   UNL     1       0.357  -1.481   1.364  0.00  0.00    -0.084 HD
ENDBRANCH  25  32
ENDBRANCH  24  26
ENDBRANCH  23  24
ENDBRANCH   1  23
TORSDOF 5
