REMARK  Name = ZINC16265839
REMARK  9 active torsions:
REMARK  status: ('A' for Active; 'I' for Inactive)
REMARK    1  A    between atoms: C_1  and  C_2
REMARK    2  A    between atoms: C_7  and  N_8
REMARK    3  A    between atoms: C_9  and  C_11
REMARK    4  A    between atoms: C_13  and  C_33
REMARK    5  A    between atoms: C_15  and  C_23
REMARK    6  A    between atoms: C_17  and  C_21
REMARK    7  A    between atoms: C_17  and  O_22
REMARK    8  A    between atoms: N_25  and  C_26
REMARK    9  A    between atoms: C_31  and  C_32
REMARK                            x       y       z     vdW  Elec       q    Type
REMARK                         _______ _______ _______ _____ _____    ______ ____
ROOT
ATOM      1  C   UNL     1      -0.932   3.148  -1.600  0.00  0.00    +0.149 C 
ATOM      2  C   UNL     1      -0.563   1.722  -1.180  0.00  0.00    +0.053 C 
ATOM      3  C   UNL     1       0.383   1.774   0.020  0.00  0.00    +0.115 C 
ATOM      4  C   UNL     1      -0.333   2.404   1.216  0.00  0.00    +0.082 C 
ATOM      5  C   UNL     1      -0.692   3.857   0.887  0.00  0.00    +0.110 C 
ATOM      6  C   UNL     1      -1.492   3.874  -0.396  0.00  0.00    +0.148 C 
ATOM      7  O   UNL     1      -2.550   4.453  -0.458  0.00  0.00    -0.296 OA
ATOM      8  C   UNL     1      -1.610   1.617   1.519  0.00  0.00    +0.042 C 
ENDROOT
BRANCH   2   9
ATOM      9  C   UNL     1       0.118   1.021  -2.327  0.00  0.00    -0.042 A 
ATOM     10  C   UNL     1       1.389   1.403  -2.713  0.00  0.00    +0.007 A 
ATOM     11  C   UNL     1       2.017   0.757  -3.761  0.00  0.00    +0.038 A 
ATOM     12  C   UNL     1       1.368  -0.266  -4.432  0.00  0.00    +0.123 A 
ATOM     13  C   UNL     1       0.092  -0.644  -4.048  0.00  0.00    +0.038 A 
ATOM     14  C   UNL     1      -0.531  -0.000  -2.996  0.00  0.00    +0.007 A 
ATOM     15  F   UNL     1       1.978  -0.894  -5.460  0.00  0.00    -0.205 F 
ENDBRANCH   2   9
BRANCH   1  17
ATOM     16  N   UNL     1       0.677   5.025  -1.527  0.00  0.00    -0.285 N 
ATOM     17  C   UNL     1       0.297   3.864  -2.096  0.00  0.00    +0.228 C 
ATOM     18  O   UNL     1       0.945   3.395  -3.008  0.00  0.00    -0.275 OA
ATOM     19  H   UNL     1       0.204   5.362  -0.750  0.00  0.00    +0.155 HD
BRANCH  16  26
ATOM     20  C   UNL     1       1.817   7.098   0.055  0.00  0.00    +0.045 C 
ATOM     21  C   UNL     1       2.340   6.764  -1.318  0.00  0.00    -0.029 A 
ATOM     22  C   UNL     1       3.403   7.472  -1.844  0.00  0.00    +0.005 A 
ATOM     23  C   UNL     1       3.884   7.167  -3.103  0.00  0.00    +0.000 A 
ATOM     24  C   UNL     1       3.303   6.152  -3.841  0.00  0.00    +0.002 A 
ATOM     25  C   UNL     1       2.244   5.436  -3.319  0.00  0.00    +0.023 A 
ATOM     26  C   UNL     1       1.754   5.745  -2.057  0.00  0.00    +0.036 A 
ENDBRANCH  16  26
ENDBRANCH   1  17
BRANCH   3  27
ATOM     27  C   UNL     1       1.593   2.601  -0.332  0.00  0.00    +0.224 C 
ATOM     28  O   UNL     1       1.542   3.810  -0.262  0.00  0.00    -0.275 OA
ATOM     29  N   UNL     1       2.732   1.996  -0.723  0.00  0.00    -0.285 N 
ATOM     30  H   UNL     1       2.747   1.036  -0.866  0.00  0.00    +0.155 HD
BRANCH  29  31
ATOM     31  C   UNL     1       3.892   2.752  -0.924  0.00  0.00    +0.036 A 
ATOM     32  C   UNL     1       3.958   4.061  -0.465  0.00  0.00    +0.023 A 
ATOM     33  C   UNL     1       5.107   4.802  -0.659  0.00  0.00    +0.002 A 
ATOM     34  C   UNL     1       6.187   4.246  -1.321  0.00  0.00    +0.000 A 
ATOM     35  C   UNL     1       6.122   2.945  -1.785  0.00  0.00    +0.005 A 
ATOM     36  C   UNL     1       4.978   2.196  -1.588  0.00  0.00    -0.029 A 
ATOM     37  C   UNL     1       4.909   0.778  -2.093  0.00  0.00    +0.045 C 
ENDBRANCH  29  31
ENDBRANCH   3  27
BRANCH   4  38
ATOM     38  O   UNL     1       0.528   2.373   2.357  0.00  0.00    -0.388 OA
ATOM     39  H   UNL     1       0.138   2.757   3.154  0.00  0.00    +0.210 HD
ENDBRANCH   4  38
TORSDOF 6
