REMARK  Name = ZINC39959602
REMARK  10 active torsions:
REMARK  status: ('A' for Active; 'I' for Inactive)
REMARK    1  A    between atoms: C_1  and  C_2
REMARK    2  A    between atoms: C_2  and  C_3
REMARK    3  A    between atoms: C_3  and  C_4
REMARK    4  A    between atoms: C_3  and  C_16
REMARK    5  A    between atoms: N_6  and  N_7
REMARK    6  A    between atoms: C_8  and  C_9
REMARK    7  A    between atoms: C_12  and  C_15
REMARK    8  A    between atoms: N_18  and  N_19
REMARK    9  A    between atoms: C_20  and  C_21
REMARK   10  A    between atoms: C_24  and  C_27
REMARK                            x       y       z     vdW  Elec       q    Type
REMARK                         _______ _______ _______ _____ _____    ______ ____
ROOT
ATOM      1  C   UNL     1      -1.421  -0.444  -0.080  0.00  0.00    +0.164 C 
ENDROOT
BRANCH   1   2
ATOM      2  C   UNL     1      -2.049  -0.045  -1.391  0.00  0.00    +0.244 C 
ATOM      3  O   UNL     1      -2.614  -0.877  -2.070  0.00  0.00    -0.273 OA
ATOM      4  N   UNL     1      -1.983   1.234  -1.808  0.00  0.00    -0.206 N 
ATOM      5  H   UNL     1      -1.626   1.918  -1.221  0.00  0.00    +0.177 HD
BRANCH   4   6
ATOM      6  N   UNL     1      -2.431   1.577  -3.091  0.00  0.00    -0.188 NA
ATOM      7  C   UNL     1      -2.368   2.809  -3.493  0.00  0.00    +0.138 C 
BRANCH   7   8
ATOM      8  C   UNL     1      -2.840   3.169  -4.843  0.00  0.00    -0.005 A 
ATOM      9  C   UNL     1      -3.360   2.188  -5.689  0.00  0.00    +0.010 A 
ATOM     10  C   UNL     1      -3.800   2.532  -6.951  0.00  0.00    +0.004 A 
ATOM     11  C   UNL     1      -3.725   3.846  -7.378  0.00  0.00    -0.050 A 
ATOM     12  C   UNL     1      -3.211   4.824  -6.545  0.00  0.00    +0.004 A 
ATOM     13  C   UNL     1      -2.773   4.495  -5.279  0.00  0.00    +0.010 A 
ATOM     14  C   UNL     1      -4.207   4.214  -8.758  0.00  0.00    +0.044 C 
ENDBRANCH   7   8
ENDBRANCH   4   6
ENDBRANCH   1   2
BRANCH   1  15
ATOM     15  C   UNL     1      -2.298  -1.456   0.610  0.00  0.00    +0.244 C 
ATOM     16  O   UNL     1      -3.332  -1.819   0.089  0.00  0.00    -0.273 OA
ATOM     17  N   UNL     1      -1.935  -1.959   1.807  0.00  0.00    -0.206 N 
ATOM     18  H   UNL     1      -1.108  -1.669   2.223  0.00  0.00    +0.177 HD
BRANCH  17  19
ATOM     19  N   UNL     1      -2.750  -2.900   2.448  0.00  0.00    -0.188 NA
ATOM     20  C   UNL     1      -2.400  -3.384   3.600  0.00  0.00    +0.138 C 
BRANCH  20  21
ATOM     21  C   UNL     1      -3.258  -4.375   4.276  0.00  0.00    -0.005 A 
ATOM     22  C   UNL     1      -4.446  -4.799   3.675  0.00  0.00    +0.010 A 
ATOM     23  C   UNL     1      -5.244  -5.727   4.313  0.00  0.00    +0.004 A 
ATOM     24  C   UNL     1      -4.870  -6.237   5.544  0.00  0.00    -0.050 A 
ATOM     25  C   UNL     1      -3.694  -5.821   6.144  0.00  0.00    +0.004 A 
ATOM     26  C   UNL     1      -2.884  -4.898   5.516  0.00  0.00    +0.010 A 
ATOM     27  C   UNL     1      -5.747  -7.249   6.234  0.00  0.00    +0.044 C 
ENDBRANCH  20  21
ENDBRANCH  17  19
ENDBRANCH   1  15
BRANCH   1  29
ATOM     28  C   UNL     1      -0.206  -2.378  -1.092  0.00  0.00    +0.005 C 
ATOM     29  C   UNL     1      -0.043  -1.056  -0.340  0.00  0.00    +0.019 C 
ENDBRANCH   1  29
TORSDOF 7
