REMARK  Name = ZINC12112361
REMARK  5 active torsions:
REMARK  status: ('A' for Active; 'I' for Inactive)
REMARK    1  A    between atoms: C_11  and  C_23
REMARK    2  A    between atoms: C_15  and  C_16
REMARK    3  A    between atoms: C_15  and  N_49
REMARK    4  A    between atoms: C_19  and  C_21
REMARK    5  A    between atoms: C_21  and  O_22
REMARK                            x       y       z     vdW  Elec       q    Type
REMARK                         _______ _______ _______ _____ _____    ______ ____
ROOT
ATOM      1  C   UNL     1       6.405   1.690  -7.432  0.00  0.00    +0.001 A 
ATOM      2  C   UNL     1       7.738   1.562  -7.078  0.00  0.00    +0.002 A 
ATOM      3  C   UNL     1       8.140   1.403  -5.763  0.00  0.00    +0.026 A 
ATOM      4  C   UNL     1       7.139   1.376  -4.795  0.00  0.00    +0.047 A 
ATOM      5  C   UNL     1       5.774   1.507  -5.163  0.00  0.00    +0.003 A 
ATOM      6  C   UNL     1       5.397   1.667  -6.500  0.00  0.00    +0.010 A 
ATOM      7  C   UNL     1       5.022   1.436  -3.930  0.00  0.00    -0.022 A 
ATOM      8  C   UNL     1       5.914   1.274  -2.927  0.00  0.00    +0.011 A 
ATOM      9  N   UNL     1       7.183   1.238  -3.437  0.00  0.00    -0.359 N 
ATOM     10  H   UNL     1       7.992   1.130  -2.913  0.00  0.00    +0.166 HD
ATOM     11  C   UNL     1       5.509   1.154  -1.477  0.00  0.00    +0.015 C 
ATOM     12  C   UNL     1       3.285   1.788  -2.222  0.00  0.00    -0.072 C 
ATOM     13  C   UNL     1       3.532   1.522  -3.713  0.00  0.00    +0.019 C 
ATOM     14  N   UNL     1       4.067   0.814  -1.429  0.00  0.00    +0.393 N 
ATOM     15  H   UNL     1       3.933  -0.123  -1.828  0.00  0.00    -0.080 HD
ENDROOT
BRANCH  11  16
ATOM     16  C   UNL     1       6.294   0.048  -0.821  0.00  0.00    -0.002 A 
ATOM     17  C   UNL     1       7.320   0.353   0.058  0.00  0.00    +0.127 A 
ATOM     18  C   UNL     1       8.040  -0.664   0.660  0.00  0.00    +0.038 A 
ATOM     19  C   UNL     1       7.736  -1.984   0.384  0.00  0.00    +0.004 A 
ATOM     20  C   UNL     1       6.712  -2.289  -0.493  0.00  0.00    +0.020 A 
ATOM     21  C   UNL     1       5.987  -1.273  -1.092  0.00  0.00    +0.046 A 
ATOM     22 CL   UNL     1       4.697  -1.657  -2.188  0.00  0.00    -0.083 Cl
ATOM     23  F   UNL     1       7.617   1.643   0.328  0.00  0.00    -0.205 F 
ENDBRANCH  11  16
BRANCH  14  24
ATOM     24  C   UNL     1       3.596   0.810  -0.028  0.00  0.00    -0.002 C 
BRANCH  24  25
ATOM     25  C   UNL     1       2.091   0.734  -0.014  0.00  0.00    +0.089 A 
ATOM     26  C   UNL     1       1.361  -0.395  -0.013  0.00  0.00    +0.043 A 
ATOM     27  C   UNL     1       0.002  -0.004   0.002  0.00  0.00    +0.047 A 
ATOM     28  C   UNL     1      -0.016   1.341   0.009  0.00  0.00    +0.130 A 
ATOM     29  O   UNL     1       1.252   1.783  -0.000  0.00  0.00    -0.464 OA
BRANCH  28  30
ATOM     30  C   UNL     1      -1.250   2.205   0.020  0.00  0.00    +0.230 C 
BRANCH  30  31
ATOM     31  O   UNL     1      -1.634   2.471   1.371  0.00  0.00    -0.387 OA
ATOM     32  H   UNL     1      -2.423   3.024   1.454  0.00  0.00    +0.210 HD
ENDBRANCH  30  31
ENDBRANCH  28  30
ENDBRANCH  24  25
ENDBRANCH  14  24
TORSDOF 5
