REMARK  Name = ZINC12306030
REMARK  6 active torsions:
REMARK  status: ('A' for Active; 'I' for Inactive)
REMARK    1  A    between atoms: C_1  and  C_2
REMARK    2  A    between atoms: C_7  and  C_8
REMARK    3  A    between atoms: N_14  and  C_15
REMARK    4  A    between atoms: N_14  and  C_16
REMARK    5  A    between atoms: C_16  and  C_17
REMARK    6  A    between atoms: C_17  and  C_18
REMARK                            x       y       z     vdW  Elec       q    Type
REMARK                         _______ _______ _______ _____ _____    ______ ____
ROOT
ATOM      1  C   UNL     1      -3.680   6.999   0.322  0.00  0.00    +0.095 A 
ATOM      2  C   UNL     1      -2.401   7.362  -0.112  0.00  0.00    +0.163 A 
ATOM      3  N   UNL     1      -1.391   6.539   0.104  0.00  0.00    -0.152 NA
ATOM      4  N   UNL     1      -1.577   5.418   0.706  0.00  0.00    -0.113 NA
ATOM      5  C   UNL     1      -2.780   5.048   1.129  0.00  0.00    +0.238 A 
ATOM      6  N   UNL     1      -3.836   5.828   0.937  0.00  0.00    -0.212 NA
ATOM      7  N   UNL     1      -2.936   3.833   1.772  0.00  0.00    -0.301 N 
ATOM      8  C   UNL     1      -4.259   3.417   2.242  0.00  0.00    +0.132 C 
ENDROOT
BRANCH   1  15
ATOM      9  C   UNL     1      -6.132   5.927  -0.776  0.00  0.00    +0.044 C 
ATOM     10  C   UNL     1      -6.024   7.390  -0.431  0.00  0.00    -0.041 A 
ATOM     11  C   UNL     1      -7.101   8.229  -0.633  0.00  0.00    +0.004 A 
ATOM     12  C   UNL     1      -7.002   9.573  -0.322  0.00  0.00    +0.000 A 
ATOM     13  C   UNL     1      -5.825  10.083   0.198  0.00  0.00    +0.001 A 
ATOM     14  C   UNL     1      -4.744   9.252   0.409  0.00  0.00    +0.010 A 
ATOM     15  C   UNL     1      -4.838   7.897   0.097  0.00  0.00    +0.005 A 
ENDBRANCH   1  15
BRANCH   7  16
ATOM     16  C   UNL     1      -1.776   2.962   1.983  0.00  0.00    +0.115 C 
BRANCH  16  17
ATOM     17  C   UNL     1      -1.622   2.020   0.787  0.00  0.00    +0.093 C 
BRANCH  17  18
ATOM     18  C   UNL     1      -0.430   1.124   1.004  0.00  0.00    +0.110 A 
ATOM     19  N   UNL     1      -0.459  -0.235   0.968  0.00  0.00    -0.342 N 
ATOM     20  H   UNL     1      -1.262  -0.806   0.800  0.00  0.00    +0.167 HD
ATOM     21  C   UNL     1       0.826  -0.680   1.207  0.00  0.00    +0.066 A 
ATOM     22  C   UNL     1       1.414  -1.935   1.293  0.00  0.00    +0.028 A 
ATOM     23  C   UNL     1       2.764  -2.040   1.552  0.00  0.00    +0.002 A 
ATOM     24  C   UNL     1       3.537  -0.901   1.728  0.00  0.00    +0.002 A 
ATOM     25  C   UNL     1       2.975   0.342   1.646  0.00  0.00    +0.030 A 
ATOM     26  C   UNL     1       1.609   0.472   1.385  0.00  0.00    +0.089 A 
ATOM     27  N   UNL     1       0.779   1.539   1.248  0.00  0.00    -0.232 NA
ENDBRANCH  17  18
ENDBRANCH  16  17
ENDBRANCH   7  16
TORSDOF 4
