REMARK  Name = ZINC36206081
REMARK  18 active torsions:
REMARK  status: ('A' for Active; 'I' for Inactive)
REMARK    1  A    between atoms: C_1  and  C_2
REMARK    2  A    between atoms: C_2  and  C_3
REMARK    3  A    between atoms: C_2  and  C_4
REMARK    4  A    between atoms: C_4  and  O_5
REMARK    5  A    between atoms: O_5  and  C_6
REMARK    6  A    between atoms: C_6  and  C_7
REMARK    7  A    between atoms: C_7  and  C_9
REMARK    8  A    between atoms: C_7  and  O_36
REMARK    9  A    between atoms: C_9  and  N_10
REMARK   10  A    between atoms: N_10  and  C_11
REMARK   11  A    between atoms: N_10  and  C_14
REMARK   12  A    between atoms: C_11  and  C_12
REMARK   13  A    between atoms: C_14  and  C_15
REMARK   14  A    between atoms: C_21  and  C_26
REMARK   15  A    between atoms: C_29  and  O_34
REMARK   16  A    between atoms: C_30  and  O_32
REMARK   17  A    between atoms: O_32  and  C_33
REMARK   18  A    between atoms: O_34  and  C_35
REMARK                            x       y       z     vdW  Elec       q    Type
REMARK                         _______ _______ _______ _____ _____    ______ ____
ROOT
ATOM      1  C   UNL     1      -4.635  -8.394   0.159  0.00  0.00    +0.094 A 
ATOM      2  N   UNL     1      -5.706  -9.216   0.305  0.00  0.00    -0.312 N 
ATOM      3  H   UNL     1      -6.598  -8.836   0.333  0.00  0.00    +0.170 HD
ATOM      4  C   UNL     1      -5.554 -10.550   0.412  0.00  0.00    +0.260 A 
ATOM      5  O   UNL     1      -6.526 -11.274   0.542  0.00  0.00    -0.267 OA
ATOM      6  C   UNL     1      -4.235 -11.103   0.369  0.00  0.00    +0.080 A 
ATOM      7  C   UNL     1      -3.816 -12.497   0.462  0.00  0.00    +0.004 A 
ATOM      8  C   UNL     1      -2.494 -12.785   0.396  0.00  0.00    +0.056 A 
ATOM      9  S   UNL     1      -1.732 -11.186   0.203  0.00  0.00    -0.076 S 
ATOM     10  C   UNL     1      -3.191 -10.177   0.216  0.00  0.00    +0.116 A 
ATOM     11  N   UNL     1      -3.420  -8.870   0.112  0.00  0.00    -0.229 NA
ENDROOT
BRANCH   7  12
ATOM     12  C   UNL     1      -4.818 -13.577   0.627  0.00  0.00    -0.013 A 
ATOM     13  C   UNL     1      -5.798 -13.476   1.612  0.00  0.00    +0.012 A 
ATOM     14  C   UNL     1      -6.730 -14.483   1.764  0.00  0.00    +0.050 A 
ATOM     15  C   UNL     1      -6.694 -15.596   0.939  0.00  0.00    +0.162 A 
ATOM     16  C   UNL     1      -5.717 -15.702  -0.048  0.00  0.00    +0.162 A 
ATOM     17  C   UNL     1      -4.784 -14.693  -0.208  0.00  0.00    +0.058 A 
BRANCH  16  18
ATOM     18  O   UNL     1      -5.683 -16.795  -0.857  0.00  0.00    -0.491 OA
ATOM     19  C   UNL     1      -4.654 -16.837  -1.847  0.00  0.00    +0.277 C 
ENDBRANCH  16  18
BRANCH  15  20
ATOM     20  O   UNL     1      -7.614 -16.586   1.092  0.00  0.00    -0.491 OA
ATOM     21  C   UNL     1      -8.587 -16.413   2.124  0.00  0.00    +0.277 C 
ENDBRANCH  15  20
ENDBRANCH   7  12
BRANCH   1  22
ATOM     22  C   UNL     1      -4.854  -6.908   0.043  0.00  0.00    -0.003 C 
BRANCH  22  23
ATOM     23  N   UNL     1      -3.574  -6.246  -0.245  0.00  0.00    +0.388 N 
ATOM     24  H   UNL     1      -2.890  -6.522   0.443  0.00  0.00    -0.081 HD
BRANCH  23  25
ATOM     25  C   UNL     1      -3.110  -6.640  -1.582  0.00  0.00    -0.044 C 
BRANCH  25  26
ATOM     26  C   UNL     1      -1.720  -6.051  -1.833  0.00  0.00    +0.124 C 
BRANCH  26  27
ATOM     27  O   UNL     1      -0.785  -6.632  -0.922  0.00  0.00    -0.391 OA
ATOM     28  H   UNL     1      -0.706  -7.593  -0.999  0.00  0.00    +0.210 HD
ENDBRANCH  26  27
BRANCH  26  29
ATOM     29  C   UNL     1      -1.289  -6.355  -3.270  0.00  0.00    +0.189 C 
BRANCH  29  30
ATOM     30  O   UNL     1      -0.045  -5.707  -3.541  0.00  0.00    -0.377 OA
BRANCH  30  31
ATOM     31  C   UNL     1       0.449  -5.929  -4.864  0.00  0.00    +0.163 C 
BRANCH  31  33
ATOM     32  C   UNL     1       2.369  -5.529  -6.412  0.00  0.00    +0.009 C 
ATOM     33  C   UNL     1       1.779  -5.192  -5.041  0.00  0.00    +0.009 C 
ATOM     34  C   UNL     1       1.543  -3.684  -4.944  0.00  0.00    +0.009 C 
ENDBRANCH  31  33
ENDBRANCH  30  31
ENDBRANCH  29  30
ENDBRANCH  26  29
ENDBRANCH  25  26
ENDBRANCH  23  25
BRANCH  23  35
ATOM     35  C   UNL     1      -3.755  -4.789  -0.199  0.00  0.00    -0.051 C 
BRANCH  35  36
ATOM     36  C   UNL     1      -4.094  -4.369   1.208  0.00  0.00    -0.053 C 
ATOM     37  C   UNL     1      -3.376  -3.453   1.809  0.00  0.00    +0.002 C 
ENDBRANCH  35  36
ENDBRANCH  23  35
ENDBRANCH  22  23
ENDBRANCH   1  22
TORSDOF 14
