REMARK  Name = ZINC23955446
REMARK  13 active torsions:
REMARK  status: ('A' for Active; 'I' for Inactive)
REMARK    1  A    between atoms: C_1  and  C_2
REMARK    2  A    between atoms: C_5  and  S_8
REMARK    3  A    between atoms: S_8  and  N_11
REMARK    4  A    between atoms: N_11  and  C_12
REMARK    5  A    between atoms: C_12  and  C_14
REMARK    6  A    between atoms: C_12  and  C_18
REMARK    7  A    between atoms: C_14  and  C_15
REMARK    8  A    between atoms: C_15  and  C_16
REMARK    9  A    between atoms: C_15  and  C_17
REMARK   10  A    between atoms: N_20  and  C_21
REMARK   11  A    between atoms: C_21  and  C_22
REMARK   12  A    between atoms: C_27  and  C_28
REMARK   13  A    between atoms: C_28  and  N_29
REMARK                            x       y       z     vdW  Elec       q    Type
REMARK                         _______ _______ _______ _____ _____    ______ ____
ROOT
ATOM      1  C   UNL     1       1.083   3.969  -0.614  0.00  0.00    +0.232 C 
ATOM      2  O   UNL     1       0.071   4.492  -0.198  0.00  0.00    -0.274 OA
ATOM      3  N   UNL     1       1.121   2.637  -0.810  0.00  0.00    -0.310 N 
ATOM      4  H   UNL     1       2.061   2.152  -1.113  0.00  0.00    +0.149 HD
ENDROOT
BRANCH   1   5
ATOM      5  C   UNL     1       2.298   4.810  -0.911  0.00  0.00    +0.162 C 
BRANCH   5   6
ATOM      6  N   UNL     1       2.005   6.214  -0.612  0.00  0.00    -0.178 NA
ATOM      7  H   UNL     1       1.646   6.883  -1.408  0.00  0.00    +0.149 HD
BRANCH   6   8
ATOM      8  S   UNL     1       2.445   6.858   0.850  0.00  0.00    +0.059 S 
ATOM      9  O   UNL     1       2.053   8.224   0.825  0.00  0.00    -0.153 OA
ATOM     10  O   UNL     1       1.990   5.953   1.846  0.00  0.00    -0.153 OA
BRANCH   8  15
ATOM     11  C   UNL     1       8.473   6.798   1.087  0.00  0.00    +0.044 C 
ATOM     12  C   UNL     1       6.968   6.813   1.028  0.00  0.00    -0.050 A 
ATOM     13  C   UNL     1       6.311   7.861   0.410  0.00  0.00    +0.005 A 
ATOM     14  C   UNL     1       4.929   7.875   0.356  0.00  0.00    +0.029 A 
ATOM     15  C   UNL     1       4.205   6.840   0.919  0.00  0.00    +0.105 A 
ATOM     16  C   UNL     1       4.862   5.795   1.541  0.00  0.00    +0.029 A 
ATOM     17  C   UNL     1       6.243   5.779   1.591  0.00  0.00    +0.005 A 
ENDBRANCH   8  15
ENDBRANCH   6   8
ENDBRANCH   5   6
BRANCH   5  18
ATOM     18  C   UNL     1       2.666   4.670  -2.389  0.00  0.00    +0.032 C 
BRANCH  18  19
ATOM     19  C   UNL     1       3.987   5.394  -2.656  0.00  0.00    -0.015 C 
ATOM     20  C   UNL     1       4.450   5.100  -4.085  0.00  0.00    +0.007 C 
ATOM     21  C   UNL     1       3.786   6.901  -2.486  0.00  0.00    +0.007 C 
ENDBRANCH  18  19
ENDBRANCH   5  18
ENDBRANCH   1   5
BRANCH   3  22
ATOM     22  C   UNL     1      -0.089   1.833  -0.620  0.00  0.00    +0.139 C 
BRANCH  22  23
ATOM     23  C   UNL     1       0.179   0.413  -1.046  0.00  0.00    -0.026 A 
ATOM     24  C   UNL     1      -0.248  -0.029  -2.285  0.00  0.00    +0.005 A 
ATOM     25  C   UNL     1       0.002  -1.331  -2.678  0.00  0.00    +0.000 A 
ATOM     26  C   UNL     1       0.670  -2.193  -1.829  0.00  0.00    +0.000 A 
ATOM     27  C   UNL     1       1.092  -1.753  -0.589  0.00  0.00    +0.005 A 
ATOM     28  C   UNL     1       0.847  -0.450  -0.197  0.00  0.00    -0.029 A 
BRANCH  28  29
ATOM     29  C   UNL     1       1.307   0.030   1.155  0.00  0.00    +0.120 C 
BRANCH  29  30
ATOM     30  N   UNL     1       2.539   0.816   1.003  0.00  0.00    -0.294 NA
ATOM     31  C   UNL     1       3.677  -0.051   0.662  0.00  0.00    +0.113 C 
ATOM     32  C   UNL     1       4.924   0.812   0.455  0.00  0.00    +0.175 C 
ATOM     33  O   UNL     1       5.165   1.584   1.635  0.00  0.00    -0.377 OA
ATOM     34  C   UNL     1       4.077   2.440   1.995  0.00  0.00    +0.175 C 
ATOM     35  C   UNL     1       2.821   1.593   2.218  0.00  0.00    +0.113 C 
ENDBRANCH  29  30
ENDBRANCH  28  29
ENDBRANCH  22  23
ENDBRANCH   3  22
TORSDOF 10
