REMARK  Name = ZINC36500350
REMARK  8 active torsions:
REMARK  status: ('A' for Active; 'I' for Inactive)
REMARK    1  A    between atoms: C_4  and  C_8
REMARK    2  A    between atoms: C_8  and  C_10
REMARK    3  A    between atoms: C_8  and  N_19
REMARK    4  A    between atoms: N_12  and  C_13
REMARK    5  A    between atoms: N_19  and  C_20
REMARK    6  A    between atoms: C_20  and  C_21
REMARK    7  A    between atoms: C_26  and  C_28
REMARK    8  A    between atoms: C_31  and  O_34
REMARK                            x       y       z     vdW  Elec       q    Type
REMARK                         _______ _______ _______ _____ _____    ______ ____
ROOT
ATOM      1  C   UNL     1       3.517  -0.989   0.358  0.00  0.00    +0.196 C 
ENDROOT
BRANCH   1   5
ATOM      2  C   UNL     1      -0.563  -0.281   1.411  0.00  0.00    +0.003 A 
ATOM      3  C   UNL     1       0.350   0.756   1.448  0.00  0.00    +0.020 A 
ATOM      4  C   UNL     1       1.671   0.527   1.107  0.00  0.00    +0.048 A 
ATOM      5  C   UNL     1       2.078  -0.740   0.730  0.00  0.00    +0.018 A 
ATOM      6  C   UNL     1       1.164  -1.777   0.694  0.00  0.00    +0.048 A 
ATOM      7  C   UNL     1      -0.157  -1.547   1.034  0.00  0.00    +0.020 A 
ATOM      8 CL   UNL     1       1.675  -3.368   0.220  0.00  0.00    -0.083 Cl
ATOM      9 CL   UNL     1       2.817   1.830   1.152  0.00  0.00    -0.083 Cl
ENDBRANCH   1   5
BRANCH   1  10
ATOM     10  C   UNL     1       4.231  -1.634   1.518  0.00  0.00    +0.238 C 
ATOM     11  O   UNL     1       4.738  -2.728   1.386  0.00  0.00    -0.273 OA
ATOM     12  N   UNL     1       4.307  -0.994   2.702  0.00  0.00    -0.311 N 
ATOM     13  H   UNL     1       3.902  -0.119   2.807  0.00  0.00    +0.149 HD
BRANCH  12  14
ATOM     14  C   UNL     1       5.002  -1.621   3.829  0.00  0.00    +0.073 C 
ATOM     15  C   UNL     1       4.040  -2.558   4.563  0.00  0.00    +0.022 C 
ATOM     16  C   UNL     1       4.766  -3.212   5.741  0.00  0.00    +0.002 C 
ATOM     17  C   UNL     1       5.256  -2.129   6.703  0.00  0.00    +0.000 C 
ATOM     18  C   UNL     1       6.218  -1.192   5.969  0.00  0.00    +0.002 C 
ATOM     19  C   UNL     1       5.492  -0.537   4.792  0.00  0.00    +0.022 C 
ENDBRANCH  12  14
ENDBRANCH   1  10
BRANCH   1  20
ATOM     20  N   UNL     1       3.574  -1.878  -0.805  0.00  0.00    -0.275 N 
ATOM     21  C   UNL     1       4.700  -2.568  -1.072  0.00  0.00    +0.248 C 
ATOM     22  O   UNL     1       4.666  -3.519  -1.829  0.00  0.00    -0.270 OA
BRANCH  21  23
ATOM     23  C   UNL     1       5.976  -2.170  -0.445  0.00  0.00    +0.037 A 
ATOM     24  C   UNL     1       6.025  -1.054   0.395  0.00  0.00    +0.016 A 
ATOM     25  C   UNL     1       7.217  -0.686   0.979  0.00  0.00    +0.046 A 
ATOM     26  C   UNL     1       8.370  -1.422   0.732  0.00  0.00    +0.117 A 
ATOM     27  C   UNL     1       8.325  -2.532  -0.103  0.00  0.00    +0.046 A 
ATOM     28  C   UNL     1       7.136  -2.910  -0.685  0.00  0.00    +0.016 A 
BRANCH  26  29
ATOM     29  O   UNL     1       9.543  -1.056   1.309  0.00  0.00    -0.507 OA
ATOM     30  H   UNL     1       9.702  -1.464   2.170  0.00  0.00    +0.292 HD
ENDBRANCH  26  29
ENDBRANCH  21  23
BRANCH  20  31
ATOM     31  C   UNL     1       2.406  -2.017  -1.679  0.00  0.00    +0.183 C 
BRANCH  31  32
ATOM     32  C   UNL     1       2.802  -1.711  -3.100  0.00  0.00    +0.122 A 
ATOM     33  C   UNL     1       3.113  -2.619  -4.043  0.00  0.00    +0.046 A 
ATOM     34  C   UNL     1       3.421  -1.898  -5.220  0.00  0.00    +0.041 A 
ATOM     35  C   UNL     1       3.280  -0.593  -4.926  0.00  0.00    +0.195 A 
ATOM     36  O   UNL     1       2.899  -0.486  -3.642  0.00  0.00    -0.466 OA
ENDBRANCH  31  32
ENDBRANCH  20  31
ENDBRANCH   1  20
TORSDOF 8
