REMARK  Name = ZINC46772758
REMARK  10 active torsions:
REMARK  status: ('A' for Active; 'I' for Inactive)
REMARK    1  A    between atoms: C_1  and  S_2
REMARK    2  A    between atoms: S_2  and  C_3
REMARK    3  A    between atoms: C_4  and  C_30
REMARK    4  A    between atoms: C_5  and  C_12
REMARK    5  A    between atoms: C_7  and  C_9
REMARK    6  A    between atoms: N_14  and  N_15
REMARK    7  A    between atoms: N_15  and  C_16
REMARK    8  A    between atoms: C_16  and  N_18
REMARK    9  A    between atoms: N_18  and  C_19
REMARK   10  A    between atoms: C_21  and  C_26
REMARK                            x       y       z     vdW  Elec       q    Type
REMARK                         _______ _______ _______ _____ _____    ______ ____
ROOT
ATOM      1  C   UNL     1       1.984  -3.572  -3.407  0.00  0.00    +0.262 C 
ATOM      2  O   UNL     1       1.305  -4.449  -2.910  0.00  0.00    -0.269 OA
ATOM      3  N   UNL     1       2.636  -3.799  -4.565  0.00  0.00    -0.231 N 
ATOM      4  H   UNL     1       3.178  -3.100  -4.962  0.00  0.00    +0.173 HD
ENDROOT
BRANCH   1   7
ATOM      5  C   UNL     1       1.562  -0.728  -0.939  0.00  0.00    +0.115 A 
ATOM      6  C   UNL     1       1.422  -1.996  -1.530  0.00  0.00    +0.096 A 
ATOM      7  C   UNL     1       2.095  -2.255  -2.741  0.00  0.00    +0.060 A 
ATOM      8  C   UNL     1       2.870  -1.234  -3.294  0.00  0.00    +0.038 A 
ATOM      9  C   UNL     1       2.951  -0.016  -2.644  0.00  0.00    +0.046 A 
ATOM     10  N   UNL     1       2.307   0.203  -1.515  0.00  0.00    -0.244 NA
BRANCH   9  11
ATOM     11  C   UNL     1       3.788   1.086  -3.241  0.00  0.00    +0.038 C 
ATOM     12  C   UNL     1       4.803   0.697  -4.318  0.00  0.00    +0.010 C 
ATOM     13  C   UNL     1       5.284   1.090  -2.920  0.00  0.00    +0.010 C 
ENDBRANCH   9  11
BRANCH   5  15
ATOM     14  C   UNL     1       1.196   1.345   0.935  0.00  0.00    +0.091 C 
ATOM     15  S   UNL     1       0.734  -0.372   0.575  0.00  0.00    -0.108 S 
ENDBRANCH   5  15
BRANCH   6  16
ATOM     16  C   UNL     1       0.613  -3.004  -0.913  0.00  0.00    +0.103 C 
ATOM     17  N   UNL     1      -0.029  -3.803  -0.425  0.00  0.00    -0.191 NA
ENDBRANCH   6  16
ENDBRANCH   1   7
BRANCH   3  18
ATOM     18  N   UNL     1       2.531  -5.046  -5.195  0.00  0.00    -0.245 N 
ATOM     19  H   UNL     1       1.989  -5.746  -4.798  0.00  0.00    +0.172 HD
BRANCH  18  20
ATOM     20  C   UNL     1       3.182  -5.273  -6.353  0.00  0.00    +0.151 C 
ATOM     21  S   UNL     1       3.054  -6.797  -7.123  0.00  0.00    -0.017 S 
BRANCH  20  22
ATOM     22  N   UNL     1       3.935  -4.301  -6.904  0.00  0.00    -0.295 N 
ATOM     23  H   UNL     1       3.945  -3.414  -6.512  0.00  0.00    +0.154 HD
BRANCH  22  24
ATOM     24  C   UNL     1       4.703  -4.571  -8.043  0.00  0.00    +0.052 A 
ATOM     25  C   UNL     1       5.449  -5.740  -8.118  0.00  0.00    +0.037 A 
ATOM     26  C   UNL     1       6.205  -6.004  -9.244  0.00  0.00    +0.057 A 
ATOM     27  C   UNL     1       6.221  -5.105 -10.295  0.00  0.00    +0.014 A 
ATOM     28  C   UNL     1       5.480  -3.940 -10.223  0.00  0.00    +0.022 A 
ATOM     29  C   UNL     1       4.716  -3.672  -9.103  0.00  0.00    +0.062 A 
ATOM     30 CL   UNL     1       3.780  -2.212  -9.017  0.00  0.00    -0.082 Cl
BRANCH  26  31
ATOM     31  C   UNL     1       7.014  -7.272  -9.326  0.00  0.00    +0.417 C 
ATOM     32  F   UNL     1       6.236  -8.285  -9.897  0.00  0.00    -0.166 F 
ATOM     33  F   UNL     1       8.147  -7.052 -10.117  0.00  0.00    -0.166 F 
ATOM     34  F   UNL     1       7.410  -7.657  -8.040  0.00  0.00    -0.166 F 
ENDBRANCH  26  31
ENDBRANCH  22  24
ENDBRANCH  20  22
ENDBRANCH  18  20
ENDBRANCH   3  18
TORSDOF 9
