REMARK  Name = ZINC16468805
REMARK  6 active torsions:
REMARK  status: ('A' for Active; 'I' for Inactive)
REMARK    1  A    between atoms: C_1  and  C_2
REMARK    2  A    between atoms: N_4  and  C_5
REMARK    3  A    between atoms: C_8  and  C_11
REMARK    4  A    between atoms: C_17  and  C_19
REMARK    5  A    between atoms: C_19  and  C_20
REMARK    6  A    between atoms: C_26  and  C_28
REMARK                            x       y       z     vdW  Elec       q    Type
REMARK                         _______ _______ _______ _____ _____    ______ ____
ROOT
ATOM      1  C   UNL     1       4.641   5.367  -0.034  0.00  0.00    +0.080 A 
ATOM      2  C   UNL     1       5.537   4.346   0.125  0.00  0.00    +0.076 A 
ATOM      3  S   UNL     1       4.446   2.932   0.039  0.00  0.00    -0.060 S 
ATOM      4  C   UNL     1       2.925   3.838  -0.207  0.00  0.00    +0.165 A 
ATOM      5  N   UNL     1       3.357   5.085  -0.197  0.00  0.00    -0.225 NA
ATOM      6  N   UNL     1       1.631   3.357  -0.363  0.00  0.00    -0.264 N 
ATOM      7  C   UNL     1       1.398   2.030  -0.344  0.00  0.00    +0.224 C 
ATOM      8  O   UNL     1       2.319   1.255  -0.191  0.00  0.00    -0.275 OA
ATOM      9  H   UNL     1       0.895   3.977  -0.485  0.00  0.00    +0.157 HD
ENDROOT
BRANCH   1  13
ATOM     10  C   UNL     1       5.966   9.409  -0.007  0.00  0.00    +0.033 A 
ATOM     11  C   UNL     1       4.617   9.122  -0.179  0.00  0.00    +0.024 A 
ATOM     12  C   UNL     1       4.185   7.813  -0.188  0.00  0.00    +0.012 A 
ATOM     13  C   UNL     1       5.103   6.776  -0.025  0.00  0.00    +0.001 A 
ATOM     14  C   UNL     1       6.455   7.067   0.153  0.00  0.00    +0.012 A 
ATOM     15  C   UNL     1       6.883   8.378   0.155  0.00  0.00    +0.024 A 
BRANCH  10  19
ATOM     16  C   UNL     1       6.025  13.149   0.411  0.00  0.00    +0.109 C 
ATOM     17  C   UNL     1       5.608  11.704   0.508  0.00  0.00    +0.214 C 
ATOM     18  O   UNL     1       4.559  11.410   1.041  0.00  0.00    -0.276 OA
ATOM     19  N   UNL     1       6.402  10.739   0.002  0.00  0.00    -0.286 N 
ATOM     20  H   UNL     1       7.274  10.966  -0.355  0.00  0.00    +0.155 HD
ENDBRANCH  10  19
ENDBRANCH   1  13
BRANCH   7  21
ATOM     21  C   UNL     1      -0.005   1.508  -0.513  0.00  0.00    +0.150 C 
BRANCH  21  22
ATOM     22  C   UNL     1       0.007   0.002  -0.454  0.00  0.00    +0.041 A 
ATOM     23  C   UNL     1      -0.041  -0.610   0.728  0.00  0.00    +0.070 A 
ATOM     24  S   UNL     1      -0.001  -2.332   0.253  0.00  0.00    -0.057 S 
ATOM     25  C   UNL     1       0.078  -2.089  -1.506  0.00  0.00    +0.178 A 
ATOM     26  N   UNL     1       0.063  -0.724  -1.624  0.00  0.00    -0.296 N 
ATOM     27  C   UNL     1       0.117  -0.479  -2.992  0.00  0.00    +0.121 A 
ATOM     28  C   UNL     1       0.155  -1.679  -3.621  0.00  0.00    +0.090 A 
ATOM     29  N   UNL     1       0.138  -2.646  -2.681  0.00  0.00    -0.221 NA
BRANCH  28  30
ATOM     30  C   UNL     1       0.217  -1.891  -5.088  0.00  0.00    +0.002 A 
ATOM     31  C   UNL     1       0.236  -0.798  -5.953  0.00  0.00    +0.010 A 
ATOM     32  C   UNL     1       0.300  -1.002  -7.316  0.00  0.00    +0.001 A 
ATOM     33  C   UNL     1       0.334  -2.287  -7.826  0.00  0.00    +0.000 A 
ATOM     34  C   UNL     1       0.310  -3.376  -6.973  0.00  0.00    +0.001 A 
ATOM     35  C   UNL     1       0.252  -3.184  -5.607  0.00  0.00    +0.010 A 
ENDBRANCH  28  30
ENDBRANCH  21  22
ENDBRANCH   7  21
TORSDOF 5
