REMARK  Name = ZINC39934521
REMARK  9 active torsions:
REMARK  status: ('A' for Active; 'I' for Inactive)
REMARK    1  A    between atoms: C_1  and  C_2
REMARK    2  A    between atoms: C_2  and  C_3
REMARK    3  A    between atoms: C_3  and  C_33
REMARK    4  A    between atoms: N_6  and  N_10
REMARK    5  A    between atoms: C_11  and  C_13
REMARK    6  A    between atoms: C_13  and  S_14
REMARK    7  A    between atoms: S_14  and  C_15
REMARK    8  A    between atoms: C_19  and  C_24
REMARK    9  A    between atoms: N_20  and  C_21
REMARK                            x       y       z     vdW  Elec       q    Type
REMARK                         _______ _______ _______ _____ _____    ______ ____
ROOT
ATOM      1  C   UNL     1       5.725  -6.916  -1.672  0.00  0.00    +0.237 C 
ATOM      2  N   UNL     1       4.668  -7.823  -1.196  0.00  0.00    -0.237 N 
ATOM      3  N   UNL     1       5.199  -8.511  -0.098  0.00  0.00    -0.169 NA
ATOM      4  C   UNL     1       6.428  -8.139   0.146  0.00  0.00    +0.147 C 
ATOM      5  N   UNL     1       6.856  -7.162  -0.762  0.00  0.00    -0.282 N 
ATOM      6  H   UNL     1       3.778  -7.924  -1.568  0.00  0.00    +0.171 HD
ENDROOT
BRANCH   4   7
ATOM      7  C   UNL     1       7.218  -8.652   1.185  0.00  0.00    +0.022 C 
ATOM      8  C   UNL     1       6.893  -9.691   2.059  0.00  0.00    +0.006 A 
ATOM      9  C   UNL     1       5.750 -10.509   2.182  0.00  0.00    +0.010 A 
ATOM     10  C   UNL     1       5.706 -11.464   3.147  0.00  0.00    +0.001 A 
ATOM     11  C   UNL     1       6.770 -11.660   4.030  0.00  0.00    +0.002 A 
ATOM     12  C   UNL     1       7.898 -10.910   3.969  0.00  0.00    +0.026 A 
ATOM     13  C   UNL     1       8.017  -9.893   2.987  0.00  0.00    +0.043 A 
ATOM     14  N   UNL     1       8.991  -9.045   2.724  0.00  0.00    -0.380 N 
ATOM     15  C   UNL     1       8.605  -8.201   1.588  0.00  0.00    +0.152 C 
ATOM     16  H   UNL     1       9.833  -8.990   3.203  0.00  0.00    +0.160 HD
ENDBRANCH   4   7
BRANCH   5  17
ATOM     17  C   UNL     1       8.168  -6.513  -0.800  0.00  0.00    +0.078 C 
ATOM     18  C   UNL     1       8.379  -5.406  -1.836  0.00  0.00    +0.024 C 
ATOM     19  C   UNL     1       9.048  -6.769  -2.026  0.00  0.00    +0.024 C 
ENDBRANCH   5  17
BRANCH   1  20
ATOM     20  S   UNL     1       5.181  -5.190  -1.555  0.00  0.00    -0.109 S 
BRANCH  20  21
ATOM     21  C   UNL     1       4.749  -4.984   0.195  0.00  0.00    +0.169 C 
BRANCH  21  23
ATOM     22  N   UNL     1       3.898  -3.188   1.667  0.00  0.00    -0.223 N 
ATOM     23  C   UNL     1       4.275  -3.573   0.432  0.00  0.00    +0.240 C 
ATOM     24  O   UNL     1       4.232  -2.785  -0.489  0.00  0.00    -0.273 OA
ATOM     25  H   UNL     1       3.932  -3.818   2.404  0.00  0.00    +0.174 HD
BRANCH  22  29
ATOM     26  C   UNL     1       2.167  -0.030   2.272  0.00  0.00    +0.111 C 
ATOM     27  C   UNL     1       2.166  -1.533   2.073  0.00  0.00    +0.263 C 
ATOM     28  O   UNL     1       1.205  -2.272   2.078  0.00  0.00    -0.271 OA
ATOM     29  N   UNL     1       3.456  -1.877   1.888  0.00  0.00    -0.137 N 
ATOM     30  C   UNL     1       4.264  -0.811   1.942  0.00  0.00    +0.326 C 
ATOM     31  O   UNL     1       5.470  -0.869   1.804  0.00  0.00    -0.251 OA
ATOM     32  N   UNL     1       3.591   0.332   2.166  0.00  0.00    -0.284 N 
ATOM     33  C   UNL     1       1.620   0.333   3.654  0.00  0.00    +0.041 C 
ATOM     34  H   UNL     1       3.970   1.222   2.243  0.00  0.00    +0.151 HD
BRANCH  26  36
ATOM     35  C   UNL     1       1.561   2.172   1.260  0.00  0.00    +0.006 C 
ATOM     36  C   UNL     1       1.353   0.659   1.174  0.00  0.00    +0.032 C 
ENDBRANCH  26  36
ENDBRANCH  22  29
ENDBRANCH  21  23
ENDBRANCH  20  21
ENDBRANCH   1  20
TORSDOF 7
