REMARK  Name = ZINC57054125
REMARK  9 active torsions:
REMARK  status: ('A' for Active; 'I' for Inactive)
REMARK    1  A    between atoms: C_1  and  C_2
REMARK    2  A    between atoms: C_6  and  N_8
REMARK    3  A    between atoms: N_11  and  C_16
REMARK    4  A    between atoms: C_13  and  C_15
REMARK    5  A    between atoms: C_16  and  C_17
REMARK    6  A    between atoms: N_19  and  C_20
REMARK    7  A    between atoms: C_29  and  C_30
REMARK    8  A    between atoms: C_30  and  O_32
REMARK    9  A    between atoms: O_32  and  C_33
REMARK                            x       y       z     vdW  Elec       q    Type
REMARK                         _______ _______ _______ _____ _____    ______ ____
ROOT
ATOM      1  C   UNL     1       1.745  -4.193   6.990  0.00  0.00    +0.231 C 
ATOM      2  O   UNL     1       1.219  -3.121   7.201  0.00  0.00    -0.274 OA
ATOM      3  N   UNL     1       2.065  -5.002   8.019  0.00  0.00    -0.282 N 
ATOM      4  H   UNL     1       2.539  -5.832   7.855  0.00  0.00    +0.155 HD
ENDROOT
BRANCH   3   5
ATOM      5  C   UNL     1       1.714  -4.647   9.318  0.00  0.00    +0.073 A 
ATOM      6  C   UNL     1       0.598  -3.788   9.719  0.00  0.00    +0.023 A 
ATOM      7  C   UNL     1      -0.393  -3.103   9.009  0.00  0.00    +0.027 A 
ATOM      8  C   UNL     1      -1.323  -2.363   9.682  0.00  0.00    +0.019 A 
ATOM      9  C   UNL     1      -1.291  -2.284  11.070  0.00  0.00    +0.017 A 
ATOM     10  C   UNL     1      -0.324  -2.950  11.789  0.00  0.00    +0.027 A 
ATOM     11  C   UNL     1       0.634  -3.712  11.124  0.00  0.00    +0.049 A 
ATOM     12  N   UNL     1       1.696  -4.468  11.562  0.00  0.00    -0.348 N 
ATOM     13  H   UNL     1       1.949  -4.588  12.491  0.00  0.00    +0.166 HD
ATOM     14  C   UNL     1       2.348  -5.039  10.479  0.00  0.00    +0.147 A 
ATOM     15 BR   UNL     1      -2.662  -1.438   8.721  0.00  0.00    -0.050 Br
BRANCH  14  16
ATOM     16  C   UNL     1       3.483  -5.886  10.553  0.00  0.00    +0.357 C 
ATOM     17  O   UNL     1       3.995  -6.308   9.533  0.00  0.00    -0.243 OA
BRANCH  16  18
ATOM     18  O   UNL     1       3.994  -6.225  11.755  0.00  0.00    -0.463 OA
ATOM     19  C   UNL     1       5.138  -7.082  11.755  0.00  0.00    +0.280 C 
ENDBRANCH  16  18
ENDBRANCH  14  16
ENDBRANCH   3   5
BRANCH   1  20
ATOM     20  C   UNL     1       2.042  -4.621   5.575  0.00  0.00    +0.181 C 
BRANCH  20  24
ATOM     21  N   UNL     1       1.679  -1.709   2.575  0.00  0.00    -0.325 N 
ATOM     22  C   UNL     1       1.795  -1.230   3.960  0.00  0.00    +0.121 C 
ATOM     23  C   UNL     1       2.398  -2.350   4.814  0.00  0.00    +0.104 C 
ATOM     24  N   UNL     1       1.602  -3.573   4.644  0.00  0.00    -0.291 NA
ATOM     25  C   UNL     1       1.647  -4.050   3.256  0.00  0.00    +0.107 C 
ATOM     26  C   UNL     1       1.007  -2.996   2.337  0.00  0.00    +0.084 C 
ATOM     27  C   UNL     1       1.188  -3.408   0.875  0.00  0.00    +0.029 C 
BRANCH  21  33
ATOM     28  C   UNL     1       0.978   1.621  -0.972  0.00  0.00    +0.044 C 
ATOM     29  C   UNL     1       1.871   0.663  -0.226  0.00  0.00    -0.049 A 
ATOM     30  C   UNL     1       3.197   0.525  -0.594  0.00  0.00    +0.003 A 
ATOM     31  C   UNL     1       4.019  -0.352   0.087  0.00  0.00    +0.002 A 
ATOM     32  C   UNL     1       3.519  -1.095   1.139  0.00  0.00    +0.023 A 
ATOM     33  C   UNL     1       2.188  -0.960   1.512  0.00  0.00    +0.030 A 
ATOM     34  C   UNL     1       1.365  -0.073   0.828  0.00  0.00    +0.026 A 
ENDBRANCH  21  33
ENDBRANCH  20  24
ENDBRANCH   1  20
TORSDOF 6
