REMARK  Name = ZINC66187692
REMARK  7 active torsions:
REMARK  status: ('A' for Active; 'I' for Inactive)
REMARK    1  A    between atoms: C_1  and  C_2
REMARK    2  A    between atoms: C_2  and  C_4
REMARK    3  A    between atoms: C_2  and  N_15
REMARK    4  A    between atoms: C_7  and  S_10
REMARK    5  A    between atoms: S_10  and  N_13
REMARK    6  A    between atoms: N_13  and  C_14
REMARK    7  A    between atoms: C_21  and  N_24
REMARK                            x       y       z     vdW  Elec       q    Type
REMARK                         _______ _______ _______ _____ _____    ______ ____
ROOT
ATOM      1  N   UNL     1       0.711  -0.489   1.189  0.00  0.00    -0.293 N 
ATOM      2  C   UNL     1       2.054  -0.600   1.174  0.00  0.00    +0.303 C 
ATOM      3  O   UNL     1       2.677  -0.297   0.175  0.00  0.00    -0.253 OA
ATOM      4  N   UNL     1       2.706  -1.046   2.266  0.00  0.00    -0.287 N 
ATOM      5  C   UNL     1       2.078  -1.452   3.532  0.00  0.00    +0.108 C 
ATOM      6  C   UNL     1       3.208  -1.914   4.476  0.00  0.00    +0.005 C 
ATOM      7  C   UNL     1       4.354  -2.277   3.494  0.00  0.00    -0.049 C 
ATOM      8  C   UNL     1       4.165  -1.215   2.386  0.00  0.00    +0.094 C 
ATOM      9  H   UNL     1       0.213  -0.731   1.986  0.00  0.00    +0.151 HD
ENDROOT
BRANCH   7  10
ATOM     10  N   UNL     1       5.665  -2.140   4.142  0.00  0.00    +0.383 N 
ATOM     11  C   UNL     1       5.786  -3.105   5.264  0.00  0.00    -0.078 C 
ATOM     12  C   UNL     1       7.318  -3.241   5.452  0.00  0.00    -0.020 C 
ATOM     13  C   UNL     1       7.849  -3.191   4.001  0.00  0.00    -0.020 C 
ATOM     14  C   UNL     1       6.743  -2.490   3.191  0.00  0.00    -0.078 C 
ATOM     15  H   UNL     1       5.791  -1.197   4.478  0.00  0.00    -0.081 HD
ENDBRANCH   7  10
BRANCH   1  17
ATOM     16  C   UNL     1      -0.019   1.526   0.010  0.00  0.00    +0.033 C 
ATOM     17  C   UNL     1       0.002  -0.004   0.002  0.00  0.00    +0.102 C 
BRANCH  17  18
ATOM     18  C   UNL     1      -1.412  -0.526   0.013  0.00  0.00    -0.027 A 
ATOM     19  C   UNL     1      -2.123  -0.571   1.197  0.00  0.00    +0.007 A 
ATOM     20  C   UNL     1      -3.420  -1.049   1.207  0.00  0.00    +0.029 A 
ATOM     21  C   UNL     1      -4.006  -1.482   0.032  0.00  0.00    +0.105 A 
ATOM     22  C   UNL     1      -3.295  -1.436  -1.153  0.00  0.00    +0.029 A 
ATOM     23  C   UNL     1      -2.000  -0.954  -1.163  0.00  0.00    +0.007 A 
BRANCH  21  24
ATOM     24  S   UNL     1      -5.658  -2.093   0.045  0.00  0.00    +0.058 S 
ATOM     25  O   UNL     1      -5.785  -2.944  -1.086  0.00  0.00    -0.153 OA
ATOM     26  O   UNL     1      -5.915  -2.542   1.369  0.00  0.00    -0.153 OA
BRANCH  24  27
ATOM     27  N   UNL     1      -6.660  -0.801  -0.219  0.00  0.00    -0.193 NA
ATOM     28  C   UNL     1      -6.617  -0.091  -1.500  0.00  0.00    +0.127 C 
ATOM     29  H   UNL     1      -7.275  -0.515   0.474  0.00  0.00    +0.148 HD
ENDBRANCH  24  27
ENDBRANCH  21  24
ENDBRANCH  17  18
ENDBRANCH   1  17
TORSDOF 5
