REMARK  Name = ZINC33821845
REMARK  12 active torsions:
REMARK  status: ('A' for Active; 'I' for Inactive)
REMARK    1  A    between atoms: C_1  and  C_2
REMARK    2  A    between atoms: C_2  and  O_37
REMARK    3  A    between atoms: C_5  and  C_26
REMARK    4  A    between atoms: C_7  and  C_17
REMARK    5  A    between atoms: C_9  and  C_11
REMARK    6  A    between atoms: C_11  and  O_13
REMARK    7  A    between atoms: O_13  and  C_14
REMARK    8  A    between atoms: C_14  and  C_15
REMARK    9  A    between atoms: C_20  and  N_23
REMARK   10  A    between atoms: C_26  and  O_28
REMARK   11  A    between atoms: O_28  and  C_29
REMARK   12  A    between atoms: C_29  and  C_30
REMARK                            x       y       z     vdW  Elec       q    Type
REMARK                         _______ _______ _______ _____ _____    ______ ____
ROOT
ATOM      1  C   UNL     1      -0.127   1.707  -2.733  0.00  0.00    +0.042 C 
ATOM      2  C   UNL     1      -0.719   2.094  -1.377  0.00  0.00    +0.080 C 
ATOM      3  C   UNL     1      -0.535   3.596  -1.149  0.00  0.00    +0.079 C 
ATOM      4  C   UNL     1      -1.110   3.979   0.212  0.00  0.00    +0.116 C 
ATOM      5  C   UNL     1      -0.416   3.200   1.325  0.00  0.00    +0.145 C 
ATOM      6  C   UNL     1      -0.601   1.698   1.089  0.00  0.00    +0.053 C 
ATOM      7  C   UNL     1      -0.004   1.319  -0.268  0.00  0.00    +0.137 C 
ATOM      8  N   UNL     1      -0.975   5.423   0.437  0.00  0.00    -0.306 N 
ATOM      9  C   UNL     1      -2.223   5.911   0.575  0.00  0.00    +0.146 C 
ATOM     10  S   UNL     1      -2.585   7.560   0.858  0.00  0.00    -0.018 S 
ATOM     11  N   UNL     1      -3.146   4.946   0.465  0.00  0.00    -0.260 N 
ATOM     12  N   UNL     1      -2.561   3.731   0.241  0.00  0.00    -0.217 NA
ATOM     13  H   UNL     1       0.023   5.885   0.463  0.00  0.00    +0.150 HD
ATOM     14  H   UNL     1      -4.241   5.025   0.530  0.00  0.00    +0.168 HD
ATOM     15  H   UNL     1      -2.801   3.075   0.970  0.00  0.00    +0.147 HD
ENDROOT
BRANCH   6  16
ATOM     16  C   UNL     1       0.100   0.928   2.179  0.00  0.00    -0.042 A 
ATOM     17  C   UNL     1       0.636  -0.317   1.910  0.00  0.00    +0.006 A 
ATOM     18  C   UNL     1       1.282  -1.021   2.909  0.00  0.00    +0.033 A 
ATOM     19  C   UNL     1       1.384  -0.484   4.178  0.00  0.00    +0.126 A 
ATOM     20  C   UNL     1       0.844   0.759   4.448  0.00  0.00    +0.033 A 
ATOM     21  C   UNL     1       0.202   1.466   3.448  0.00  0.00    +0.006 A 
BRANCH  19  22
ATOM     22  N   UNL     1       2.072  -1.240   5.248  0.00  0.00    +0.056 N 
ATOM     23  O   UNL     1       2.163  -0.767   6.367  0.00  0.00    -0.126 OA
ATOM     24  O   UNL     1       2.548  -2.336   5.011  0.00  0.00    -0.126 OA
ENDBRANCH  19  22
ENDBRANCH   6  16
BRANCH   7  25
ATOM     25  C   UNL     1       1.464   1.661  -0.284  0.00  0.00    +0.314 C 
ATOM     26  O   UNL     1       2.196   1.220   0.570  0.00  0.00    -0.250 OA
BRANCH  25  27
ATOM     27  O   UNL     1       1.958   2.456  -1.246  0.00  0.00    -0.460 OA
BRANCH  27  28
ATOM     28  C   UNL     1       3.397   2.647  -1.270  0.00  0.00    +0.259 C 
BRANCH  28  29
ATOM     29  C   UNL     1       3.754   3.642  -2.345  0.00  0.00    +0.006 C 
ATOM     30  C   UNL     1       4.614   4.597  -2.093  0.00  0.00    +0.007 C 
ENDBRANCH  28  29
ENDBRANCH  27  28
ENDBRANCH  25  27
ENDBRANCH   7  25
BRANCH   5  31
ATOM     31  C   UNL     1       1.054   3.530   1.329  0.00  0.00    +0.315 C 
ATOM     32  O   UNL     1       1.521   4.218   0.452  0.00  0.00    -0.250 OA
BRANCH  31  33
ATOM     33  O   UNL     1       1.845   3.061   2.306  0.00  0.00    -0.460 OA
BRANCH  33  34
ATOM     34  C   UNL     1       3.228   3.505   2.305  0.00  0.00    +0.259 C 
BRANCH  34  35
ATOM     35  C   UNL     1       3.987   2.783   3.389  0.00  0.00    +0.006 C 
ATOM     36  C   UNL     1       5.171   2.283   3.137  0.00  0.00    +0.007 C 
ENDBRANCH  34  35
ENDBRANCH  33  34
ENDBRANCH  31  33
ENDBRANCH   5  31
BRANCH   2  37
ATOM     37  O   UNL     1      -2.112   1.776  -1.357  0.00  0.00    -0.388 OA
ATOM     38  H   UNL     1      -2.711   1.984  -0.458  0.00  0.00    +0.210 HD
ENDBRANCH   2  37
TORSDOF 11
