REMARK  Name = ZINC22218152
REMARK  3 active torsions:
REMARK  status: ('A' for Active; 'I' for Inactive)
REMARK    1  A    between atoms: C_8  and  N_13
REMARK    2  A    between atoms: N_13  and  C_14
REMARK    3  A    between atoms: C_14  and  C_15
REMARK                            x       y       z     vdW  Elec       q    Type
REMARK                         _______ _______ _______ _____ _____    ______ ____
ROOT
ATOM      1  C   UNL     1      -0.017   1.379   0.010  0.00  0.00    +0.017 A 
ATOM      2  C   UNL     1       1.164   2.093   0.002  0.00  0.00    +0.025 A 
ATOM      3  C   UNL     1       2.386   1.423  -0.013  0.00  0.00    +0.039 A 
ATOM      4  C   UNL     1       2.392   0.034  -0.021  0.00  0.00    +0.001 A 
ATOM      5  C   UNL     1       1.213  -0.676  -0.012  0.00  0.00    +0.022 A 
ATOM      6  C   UNL     1       0.002  -0.004   0.002  0.00  0.00    +0.018 A 
ATOM      7 BR   UNL     1      -1.621  -0.975   0.012  0.00  0.00    -0.050 Br
ATOM      8  C   UNL     1       3.844  -0.385  -0.038  0.00  0.00    +0.174 C 
ATOM      9  C   UNL     1       4.605   0.924  -0.038  0.00  0.00    +0.239 C 
ATOM     10  O   UNL     1       5.810   1.057  -0.049  0.00  0.00    -0.273 OA
ATOM     11  N   UNL     1       3.694   1.911  -0.024  0.00  0.00    -0.284 N 
ATOM     12  H   UNL     1       3.919   2.855  -0.022  0.00  0.00    +0.155 HD
ENDROOT
BRANCH   8  13
ATOM     13  N   UNL     1       4.143  -1.157  -1.251  0.00  0.00    -0.294 NA
ATOM     14  H   UNL     1       3.334  -1.678  -1.556  0.00  0.00    +0.123 HD
BRANCH  13  15
ATOM     15  C   UNL     1       5.293  -2.047  -1.038  0.00  0.00    +0.178 C 
BRANCH  15  16
ATOM     16  C   UNL     1       5.569  -2.822  -2.301  0.00  0.00    +0.224 C 
ATOM     17  O   UNL     1       4.876  -2.649  -3.282  0.00  0.00    -0.275 OA
ATOM     18  N   UNL     1       6.585  -3.706  -2.341  0.00  0.00    -0.328 N 
ATOM     19  H   UNL     1       7.139  -3.843  -1.557  0.00  0.00    +0.145 HD
ATOM     20  H   UNL     1       6.763  -4.204  -3.154  0.00  0.00    +0.145 HD
ENDBRANCH  15  16
ENDBRANCH  13  15
ENDBRANCH   8  13
TORSDOF 3
