REMARK  Name = ZINC13936155
REMARK  7 active torsions:
REMARK  status: ('A' for Active; 'I' for Inactive)
REMARK    1  A    between atoms: C_6  and  N_7
REMARK    2  A    between atoms: N_7  and  C_8
REMARK    3  A    between atoms: C_8  and  N_10
REMARK    4  A    between atoms: N_10  and  C_11
REMARK    5  A    between atoms: C_14  and  S_17
REMARK    6  A    between atoms: S_17  and  N_20
REMARK    7  A    between atoms: N_20  and  C_21
REMARK                            x       y       z     vdW  Elec       q    Type
REMARK                         _______ _______ _______ _____ _____    ______ ____
ROOT
ATOM      1  C   UNL     1       4.194   1.514   4.224  0.00  0.00    +0.033 A 
ATOM      2  C   UNL     1       2.887   1.294   4.637  0.00  0.00    +0.025 A 
ATOM      3  C   UNL     1       1.973   0.736   3.764  0.00  0.00    +0.030 A 
ATOM      4  C   UNL     1       2.359   0.398   2.480  0.00  0.00    +0.109 A 
ATOM      5  C   UNL     1       3.662   0.610   2.068  0.00  0.00    +0.030 A 
ATOM      6  C   UNL     1       4.579   1.173   2.934  0.00  0.00    +0.025 A 
ENDROOT
BRANCH   4   7
ATOM      7  S   UNL     1       1.191  -0.313   1.369  0.00  0.00    +0.072 S 
ATOM      8  O   UNL     1       0.123  -0.809   2.165  0.00  0.00    -0.150 OA
ATOM      9  O   UNL     1       1.927  -1.142   0.481  0.00  0.00    -0.150 OA
BRANCH   7  10
ATOM     10  N   UNL     1       0.568   0.922   0.458  0.00  0.00    -0.216 N 
ATOM     11  H   UNL     1       0.737   0.953  -0.496  0.00  0.00    +0.174 HD
BRANCH  10  12
ATOM     12  C   UNL     1      -0.197   1.921   1.065  0.00  0.00    +0.050 A 
ATOM     13  C   UNL     1      -1.507   1.661   1.445  0.00  0.00    +0.026 A 
ATOM     14  C   UNL     1      -2.259   2.648   2.051  0.00  0.00    +0.023 A 
ATOM     15  C   UNL     1      -1.712   3.901   2.269  0.00  0.00    +0.059 A 
ATOM     16  C   UNL     1      -0.408   4.165   1.887  0.00  0.00    +0.061 A 
ATOM     17  C   UNL     1       0.351   3.178   1.286  0.00  0.00    +0.046 A 
ATOM     18 CL   UNL     1       0.275   5.737   2.162  0.00  0.00    -0.082 Cl
ATOM     19 CL   UNL     1      -2.662   5.141   3.025  0.00  0.00    -0.082 Cl
ENDBRANCH  10  12
ENDBRANCH   7  10
ENDBRANCH   4   7
BRANCH   1  20
ATOM     20  N   UNL     1       5.122   2.079   5.106  0.00  0.00    -0.297 N 
ATOM     21  H   UNL     1       4.881   2.860   5.629  0.00  0.00    +0.154 HD
BRANCH  20  22
ATOM     22  C   UNL     1       6.350   1.539   5.229  0.00  0.00    +0.139 C 
ATOM     23  S   UNL     1       6.811   0.223   4.234  0.00  0.00    -0.018 S 
BRANCH  22  24
ATOM     24  N   UNL     1       7.217   2.034   6.135  0.00  0.00    -0.297 N 
ATOM     25  H   UNL     1       6.936   2.738   6.740  0.00  0.00    +0.154 HD
BRANCH  24  31
ATOM     26  C   UNL     1       8.745   0.164   6.159  0.00  0.00    +0.026 A 
ATOM     27  C   UNL     1      10.034  -0.328   6.219  0.00  0.00    +0.040 A 
ATOM     28  C   UNL     1      11.104   0.544   6.333  0.00  0.00    +0.124 A 
ATOM     29  C   UNL     1      10.884   1.910   6.380  0.00  0.00    +0.040 A 
ATOM     30  C   UNL     1       9.597   2.406   6.315  0.00  0.00    +0.026 A 
ATOM     31  C   UNL     1       8.523   1.534   6.201  0.00  0.00    +0.033 A 
ATOM     32  F   UNL     1      12.364   0.061   6.397  0.00  0.00    -0.205 F 
ENDBRANCH  24  31
ENDBRANCH  22  24
ENDBRANCH  20  22
ENDBRANCH   1  20
TORSDOF 7
