REMARK  Name = ZINC06037763
REMARK  6 active torsions:
REMARK  status: ('A' for Active; 'I' for Inactive)
REMARK    1  A    between atoms: C_1  and  C_2
REMARK    2  A    between atoms: C_6  and  C_10
REMARK    3  A    between atoms: C_6  and  O_14
REMARK    4  A    between atoms: C_10  and  C_11
REMARK    5  A    between atoms: C_10  and  C_12
REMARK    6  A    between atoms: C_10  and  O_13
REMARK                            x       y       z     vdW  Elec       q    Type
REMARK                         _______ _______ _______ _____ _____    ______ ____
ROOT
ATOM      1  C   UNL     1      -2.151   0.958  -1.283  0.00  0.00    +0.008 C 
ATOM      2  C   UNL     1      -0.761   1.597  -1.227  0.00  0.00    -0.007 C 
ATOM      3  C   UNL     1      -0.902   3.118  -1.143  0.00  0.00    +0.007 C 
ATOM      4  C   UNL     1      -1.760   3.493   0.067  0.00  0.00    +0.046 C 
ATOM      5  C   UNL     1      -1.049   3.053   1.351  0.00  0.00    +0.151 C 
ATOM      6  C   UNL     1      -0.728   1.577   1.247  0.00  0.00    +0.168 C 
ATOM      7  O   UNL     1      -1.040   0.812   2.127  0.00  0.00    -0.294 OA
ATOM      8  C   UNL     1      -0.013   1.086   0.008  0.00  0.00    +0.080 C 
ENDROOT
BRANCH   5   9
ATOM      9  C   UNL     1      -1.962   3.297   2.554  0.00  0.00    +0.096 C 
ATOM     10  C   UNL     1      -1.249   2.857   3.834  0.00  0.00    +0.044 C 
ATOM     11  C   UNL     1      -2.299   4.787   2.645  0.00  0.00    +0.044 C 
BRANCH   9  12
ATOM     12  O   UNL     1      -3.167   2.545   2.397  0.00  0.00    -0.386 OA
ATOM     13  H   UNL     1      -3.795   2.652   3.125  0.00  0.00    +0.210 HD
ENDBRANCH   9  12
ENDBRANCH   5   9
BRANCH   5  14
ATOM     14  O   UNL     1       0.161   3.796   1.509  0.00  0.00    -0.378 OA
ATOM     15  H   UNL     1       0.790   3.683   0.783  0.00  0.00    +0.211 HD
ENDBRANCH   5  14
TORSDOF 3
