REMARK  Name = ZINC44812490
REMARK  7 active torsions:
REMARK  status: ('A' for Active; 'I' for Inactive)
REMARK    1  A    between atoms: C_1  and  C_2
REMARK    2  A    between atoms: C_5  and  C_8
REMARK    3  A    between atoms: C_10  and  C_13
REMARK    4  A    between atoms: C_13  and  N_14
REMARK    5  A    between atoms: C_18  and  C_21
REMARK    6  A    between atoms: N_23  and  C_24
REMARK    7  A    between atoms: C_29  and  C_30
REMARK                            x       y       z     vdW  Elec       q    Type
REMARK                         _______ _______ _______ _____ _____    ______ ____
ROOT
ATOM      1  N   UNL     1      -1.278  -7.899   1.923  0.00  0.00    +0.386 N 
ATOM      2  C   UNL     1      -1.951  -6.817   2.650  0.00  0.00    -0.078 C 
ATOM      3  C   UNL     1      -3.412  -7.196   2.900  0.00  0.00    -0.018 C 
ATOM      4  C   UNL     1      -3.465  -8.482   3.731  0.00  0.00    +0.009 C 
ATOM      5  C   UNL     1      -2.696  -9.584   2.997  0.00  0.00    +0.059 C 
ATOM      6  C   UNL     1      -1.262  -9.116   2.744  0.00  0.00    -0.065 C 
ATOM      7  H   UNL     1      -1.773  -8.082   1.062  0.00  0.00    -0.081 HD
ENDROOT
BRANCH   5   8
ATOM      8  C   UNL     1      -2.678 -10.832   3.841  0.00  0.00    +0.219 C 
ATOM      9  O   UNL     1      -1.621 -11.304   4.202  0.00  0.00    -0.275 OA
ATOM     10  N   UNL     1      -3.836 -11.424   4.195  0.00  0.00    -0.285 N 
ATOM     11  H   UNL     1      -4.682 -11.004   3.975  0.00  0.00    +0.155 HD
BRANCH  10  12
ATOM     12  C   UNL     1      -3.817 -12.644   4.880  0.00  0.00    +0.036 A 
ATOM     13  C   UNL     1      -2.726 -13.494   4.758  0.00  0.00    +0.024 A 
ATOM     14  C   UNL     1      -2.711 -14.697   5.435  0.00  0.00    +0.016 A 
ATOM     15  C   UNL     1      -3.781 -15.056   6.235  0.00  0.00    +0.014 A 
ATOM     16  C   UNL     1      -4.869 -14.212   6.359  0.00  0.00    +0.019 A 
ATOM     17  C   UNL     1      -4.888 -13.005   5.688  0.00  0.00    -0.028 A 
ATOM     18  C   UNL     1      -6.071 -12.082   5.828  0.00  0.00    +0.046 C 
ATOM     19  I   UNL     1      -3.753 -16.883   7.260  0.00  0.00    -0.044 I 
ENDBRANCH  10  12
ENDBRANCH   5   8
BRANCH   1  20
ATOM     20  C   UNL     1       0.102  -7.498   1.617  0.00  0.00    +0.022 C 
BRANCH  20  23
ATOM     21  C   UNL     1       0.059  -4.286  -0.071  0.00  0.00    +0.202 A 
ATOM     22  N   UNL     1       0.068  -5.067   1.023  0.00  0.00    -0.193 NA
ATOM     23  C   UNL     1       0.086  -6.322   0.674  0.00  0.00    +0.211 A 
ATOM     24  O   UNL     1       0.088  -6.391  -0.663  0.00  0.00    -0.340 OA
ATOM     25  N   UNL     1       0.065  -5.052  -1.134  0.00  0.00    -0.056 NA
BRANCH  21  30
ATOM     26  C   UNL     1      -0.025   1.474  -0.085  0.00  0.00    +0.044 C 
ATOM     27  C   UNL     1      -0.003  -0.033  -0.081  0.00  0.00    -0.050 A 
ATOM     28  C   UNL     1       0.003  -0.725  -1.279  0.00  0.00    +0.004 A 
ATOM     29  C   UNL     1       0.023  -2.105  -1.282  0.00  0.00    +0.012 A 
ATOM     30  C   UNL     1       0.037  -2.801  -0.075  0.00  0.00    +0.022 A 
ATOM     31  C   UNL     1       0.031  -2.100   1.129  0.00  0.00    +0.012 A 
ATOM     32  C   UNL     1       0.017  -0.719   1.120  0.00  0.00    +0.004 A 
ENDBRANCH  21  30
ENDBRANCH  20  23
ENDBRANCH   1  20
TORSDOF 5
