REMARK  Name = ZINC03146794
REMARK  13 active torsions:
REMARK  status: ('A' for Active; 'I' for Inactive)
REMARK    1  A    between atoms: C_1  and  C_2
REMARK    2  A    between atoms: C_5  and  N_8
REMARK    3  A    between atoms: C_13  and  C_14
REMARK    4  A    between atoms: C_13  and  C_15
REMARK    5  A    between atoms: N_16  and  C_17
REMARK    6  A    between atoms: C_17  and  C_19
REMARK    7  A    between atoms: C_17  and  C_34
REMARK    8  A    between atoms: C_19  and  N_21
REMARK    9  A    between atoms: C_19  and  O_26
REMARK   10  A    between atoms: O_26  and  C_27
REMARK   11  A    between atoms: C_34  and  C_35
REMARK   12  A    between atoms: C_34  and  C_36
REMARK   13  A    between atoms: C_34  and  C_37
REMARK                            x       y       z     vdW  Elec       q    Type
REMARK                         _______ _______ _______ _____ _____    ______ ____
ROOT
ATOM      1  C   UNL     1       0.365  -8.563   0.709  0.00  0.00    +0.140 C 
ENDROOT
BRANCH   1  10
ATOM      2  N   UNL     1       0.038  -3.946  -0.335  0.00  0.00    -0.270 N 
ATOM      3  C   UNL     1       0.469  -4.839  -1.246  0.00  0.00    +0.143 C 
ATOM      4  S   UNL     1       0.937  -4.426  -2.841  0.00  0.00    -0.018 S 
ATOM      5  N   UNL     1       0.490  -6.083  -0.762  0.00  0.00    -0.287 N 
ATOM      6  C   UNL     1       0.088  -6.144   0.482  0.00  0.00    +0.089 C 
ATOM      7  C   UNL     1      -0.246  -4.722   0.886  0.00  0.00    +0.087 C 
ATOM      8  C   UNL     1      -1.723  -4.605   1.268  0.00  0.00    +0.039 C 
ATOM      9  C   UNL     1       0.648  -4.261   2.038  0.00  0.00    +0.039 C 
ATOM     10  N   UNL     1      -0.006  -7.255   1.256  0.00  0.00    -0.325 N 
ATOM     11  H   UNL     1      -0.320  -7.184   2.171  0.00  0.00    +0.147 HD
ATOM     12  H   UNL     1       0.772  -6.857  -1.275  0.00  0.00    +0.155 HD
BRANCH   2  17
ATOM     13  C   UNL     1      -0.542   1.653  -1.040  0.00  0.00    +0.044 C 
ATOM     14  C   UNL     1      -0.388   0.165  -0.853  0.00  0.00    -0.050 A 
ATOM     15  C   UNL     1      -1.222  -0.705  -1.529  0.00  0.00    +0.005 A 
ATOM     16  C   UNL     1      -1.084  -2.069  -1.360  0.00  0.00    +0.024 A 
ATOM     17  C   UNL     1      -0.105  -2.566  -0.509  0.00  0.00    +0.036 A 
ATOM     18  C   UNL     1       0.732  -1.688   0.169  0.00  0.00    +0.024 A 
ATOM     19  C   UNL     1       0.591  -0.326  -0.009  0.00  0.00    +0.005 A 
ENDBRANCH   2  17
ENDBRANCH   1  10
BRANCH   1  20
ATOM     20  C   UNL     1      -0.828  -9.161  -0.038  0.00  0.00    -0.014 C 
ATOM     21  C   UNL     1      -1.188  -8.264  -1.225  0.00  0.00    +0.012 C 
ATOM     22  C   UNL     1      -0.464 -10.557  -0.547  0.00  0.00    +0.012 C 
ATOM     23  C   UNL     1      -2.026  -9.259   0.908  0.00  0.00    +0.012 C 
ENDBRANCH   1  20
BRANCH   1  24
ATOM     24  C   UNL     1       0.772  -9.496   1.851  0.00  0.00    +0.315 C 
BRANCH  24  25
ATOM     25  N   UNL     1       1.959  -8.960   2.521  0.00  0.00    -0.211 N 
ATOM     26  C   UNL     1       2.094  -8.698   3.833  0.00  0.00    +0.223 A 
ATOM     27  N   UNL     1       3.301  -8.232   4.031  0.00  0.00    -0.223 NA
ATOM     28  C   UNL     1       3.962  -8.183   2.876  0.00  0.00    +0.245 A 
ATOM     29  N   UNL     1       3.184  -8.623   1.922  0.00  0.00    -0.155 NA
ENDBRANCH  24  25
BRANCH  24  30
ATOM     30  O   UNL     1      -0.301  -9.596   2.790  0.00  0.00    -0.465 OA
BRANCH  30  31
ATOM     31  C   UNL     1      -0.331 -10.703   3.578  0.00  0.00    +0.124 A 
ATOM     32  C   UNL     1       0.681 -11.648   3.486  0.00  0.00    +0.047 A 
ATOM     33  C   UNL     1       0.650 -12.772   4.288  0.00  0.00    +0.023 A 
ATOM     34  C   UNL     1      -0.391 -12.957   5.182  0.00  0.00    +0.041 A 
ATOM     35  C   UNL     1      -1.401 -12.016   5.274  0.00  0.00    +0.023 A 
ATOM     36  C   UNL     1      -1.369 -10.887   4.479  0.00  0.00    +0.047 A 
ATOM     37 CL   UNL     1      -0.428 -14.371   6.188  0.00  0.00    -0.084 Cl
ENDBRANCH  30  31
ENDBRANCH  24  30
ENDBRANCH   1  24
TORSDOF 7
