REMARK  Name = ZINC13016787
REMARK  8 active torsions:
REMARK  status: ('A' for Active; 'I' for Inactive)
REMARK    1  A    between atoms: C_1  and  N_2
REMARK    2  A    between atoms: N_2  and  C_3
REMARK    3  A    between atoms: N_2  and  S_4
REMARK    4  A    between atoms: S_4  and  C_7
REMARK    5  A    between atoms: C_11  and  N_13
REMARK    6  A    between atoms: C_14  and  C_16
REMARK    7  A    between atoms: C_16  and  N_56
REMARK    8  A    between atoms: C_24  and  C_26
REMARK                            x       y       z     vdW  Elec       q    Type
REMARK                         _______ _______ _______ _____ _____    ______ ____
ROOT
ATOM      1  N   UNL     1       2.404   1.106  -0.024  0.00  0.00    -0.286 N 
ATOM      2  C   UNL     1       2.427  -0.238   0.071  0.00  0.00    +0.201 C 
ATOM      3  O   UNL     1       1.389  -0.864   0.069  0.00  0.00    -0.278 OA
ATOM      4  H   UNL     1       3.235   1.601  -0.104  0.00  0.00    +0.155 HD
ENDROOT
BRANCH   1   9
ATOM      5  C   UNL     1      -1.132   1.887   0.614  0.00  0.00    +0.107 A 
ATOM      6  C   UNL     1      -1.234   3.137   0.030  0.00  0.00    +0.030 A 
ATOM      7  C   UNL     1      -0.133   3.712  -0.575  0.00  0.00    +0.024 A 
ATOM      8  C   UNL     1       1.076   3.042  -0.595  0.00  0.00    +0.062 A 
ATOM      9  C   UNL     1       1.182   1.788  -0.006  0.00  0.00    +0.054 A 
ATOM     10  C   UNL     1       0.074   1.214   0.602  0.00  0.00    +0.053 A 
ATOM     11 CL   UNL     1       2.458   3.765  -1.356  0.00  0.00    -0.082 Cl
BRANCH   5  12
ATOM     12  S   UNL     1      -2.541   1.155   1.378  0.00  0.00    +0.060 S 
ATOM     13  O   UNL     1      -3.684   1.749   0.777  0.00  0.00    -0.153 OA
ATOM     14  O   UNL     1      -2.321  -0.249   1.375  0.00  0.00    -0.153 OA
BRANCH  12  16
ATOM     15  C   UNL     1      -3.233   2.858   3.362  0.00  0.00    +0.131 C 
ATOM     16  N   UNL     1      -2.540   1.631   2.965  0.00  0.00    -0.183 NA
ATOM     17  C   UNL     1      -1.845   0.823   3.971  0.00  0.00    +0.131 C 
ENDBRANCH  12  16
ENDBRANCH   5  12
ENDBRANCH   1   9
BRANCH   2  18
ATOM     18  C   UNL     1       3.744  -0.964   0.179  0.00  0.00    +0.020 C 
BRANCH  18  27
ATOM     19  C   UNL     1       2.663  -2.831   1.279  0.00  0.00    -0.072 C 
ATOM     20  C   UNL     1       2.782  -4.355   1.450  0.00  0.00    +0.024 C 
ATOM     21  C   UNL     1       2.640  -4.977   0.099  0.00  0.00    -0.010 A 
ATOM     22  C   UNL     1       2.705  -4.337  -1.102  0.00  0.00    -0.047 A 
ATOM     23  C   UNL     1       2.540  -5.126  -2.238  0.00  0.00    +0.010 A 
ATOM     24  C   UNL     1       2.329  -6.457  -2.112  0.00  0.00    +0.045 A 
ATOM     25  S   UNL     1       2.352  -6.668  -0.338  0.00  0.00    -0.101 S 
ATOM     26  C   UNL     1       2.950  -2.831  -1.141  0.00  0.00    -0.005 C 
ATOM     27  N   UNL     1       3.542  -2.425   0.156  0.00  0.00    +0.393 N 
ATOM     28  H   UNL     1       4.451  -2.889   0.264  0.00  0.00    -0.080 HD
BRANCH  26  29
ATOM     29  C   UNL     1       3.926  -2.505  -2.242  0.00  0.00    -0.057 A 
ATOM     30  C   UNL     1       5.281  -2.695  -2.044  0.00  0.00    +0.002 A 
ATOM     31  C   UNL     1       6.176  -2.401  -3.055  0.00  0.00    +0.000 A 
ATOM     32  C   UNL     1       5.716  -1.907  -4.262  0.00  0.00    +0.000 A 
ATOM     33  C   UNL     1       4.362  -1.712  -4.459  0.00  0.00    +0.000 A 
ATOM     34  C   UNL     1       3.467  -2.011  -3.449  0.00  0.00    +0.002 A 
ENDBRANCH  26  29
ENDBRANCH  18  27
ENDBRANCH   2  18
TORSDOF 6
