REMARK  Name = ZINC03434011
REMARK  10 active torsions:
REMARK  status: ('A' for Active; 'I' for Inactive)
REMARK    1  A    between atoms: C_1  and  C_2
REMARK    2  A    between atoms: C_2  and  C_3
REMARK    3  A    between atoms: C_4  and  C_34
REMARK    4  A    between atoms: N_10  and  C_26
REMARK    5  A    between atoms: C_11  and  S_13
REMARK    6  A    between atoms: S_13  and  C_14
REMARK    7  A    between atoms: C_14  and  C_15
REMARK    8  A    between atoms: N_17  and  C_18
REMARK    9  A    between atoms: C_29  and  O_33
REMARK   10  A    between atoms: C_31  and  C_32
REMARK                            x       y       z     vdW  Elec       q    Type
REMARK                         _______ _______ _______ _____ _____    ______ ____
ROOT
ATOM      1  C   UNL     1      -0.690   1.554   1.272  0.00  0.00    -0.023 A 
ATOM      2  C   UNL     1      -0.344   2.720   1.836  0.00  0.00    -0.007 A 
ATOM      3  S   UNL     1      -1.444   2.846   3.233  0.00  0.00    -0.073 S 
ATOM      4  C   UNL     1      -2.331   1.324   3.024  0.00  0.00    +0.117 A 
ATOM      5  C   UNL     1      -1.750   0.762   1.872  0.00  0.00    +0.076 A 
ATOM      6  C   UNL     1      -2.283  -0.500   1.458  0.00  0.00    +0.268 A 
ATOM      7  O   UNL     1      -1.842  -1.062   0.470  0.00  0.00    -0.267 OA
ATOM      8  N   UNL     1      -3.276  -1.058   2.173  0.00  0.00    -0.255 N 
ATOM      9  C   UNL     1      -3.783  -0.442   3.283  0.00  0.00    +0.178 A 
ATOM     10  N   UNL     1      -3.311   0.721   3.686  0.00  0.00    -0.215 NA
ATOM     11  C   UNL     1       0.720   3.692   1.394  0.00  0.00    +0.052 C 
ENDROOT
BRANCH   8  12
ATOM     12  C   UNL     1      -3.802  -2.295   1.773  0.00  0.00    +0.055 A 
ATOM     13  C   UNL     1      -3.251  -3.474   2.259  0.00  0.00    +0.030 A 
ATOM     14  C   UNL     1      -3.769  -4.691   1.865  0.00  0.00    +0.047 A 
ATOM     15  C   UNL     1      -4.839  -4.737   0.983  0.00  0.00    +0.117 A 
ATOM     16  C   UNL     1      -5.389  -3.561   0.496  0.00  0.00    +0.050 A 
ATOM     17  C   UNL     1      -4.875  -2.342   0.894  0.00  0.00    -0.023 A 
ATOM     18  C   UNL     1      -5.477  -1.063   0.370  0.00  0.00    +0.046 C 
BRANCH  15  19
ATOM     19  O   UNL     1      -5.348  -5.937   0.595  0.00  0.00    -0.507 OA
ATOM     20  H   UNL     1      -6.058  -6.265   1.164  0.00  0.00    +0.292 HD
ENDBRANCH  15  19
ENDBRANCH   8  12
BRANCH   1  22
ATOM     21  C   UNL     1      -0.716   1.582  -1.208  0.00  0.00    +0.009 C 
ATOM     22  C   UNL     1       0.017   1.067   0.033  0.00  0.00    +0.033 C 
ENDBRANCH   1  22
BRANCH   9  23
ATOM     23  S   UNL     1      -5.085  -1.212   4.187  0.00  0.00    -0.078 S 
BRANCH  23  24
ATOM     24  C   UNL     1      -5.330   0.017   5.493  0.00  0.00    +0.173 C 
BRANCH  24  25
ATOM     25  C   UNL     1      -6.430  -0.443   6.415  0.00  0.00    +0.227 C 
ATOM     26  O   UNL     1      -6.993  -1.497   6.209  0.00  0.00    -0.275 OA
ATOM     27  N   UNL     1      -6.789   0.318   7.468  0.00  0.00    -0.285 N 
ATOM     28  H   UNL     1      -6.295   1.127   7.672  0.00  0.00    +0.155 HD
BRANCH  27  29
ATOM     29  C   UNL     1      -7.874  -0.061   8.268  0.00  0.00    +0.036 A 
ATOM     30  C   UNL     1      -8.697   0.908   8.827  0.00  0.00    +0.026 A 
ATOM     31  C   UNL     1      -9.771   0.534   9.611  0.00  0.00    +0.043 A 
ATOM     32  C   UNL     1     -10.021  -0.806   9.850  0.00  0.00    +0.159 A 
ATOM     33  C   UNL     1      -9.198  -1.776   9.298  0.00  0.00    +0.160 A 
ATOM     34  C   UNL     1      -8.125  -1.405   8.508  0.00  0.00    +0.064 A 
ATOM     35  F   UNL     1      -9.444  -3.084   9.532  0.00  0.00    -0.202 F 
ATOM     36  F   UNL     1     -11.069  -1.169  10.621  0.00  0.00    -0.202 F 
ENDBRANCH  27  29
ENDBRANCH  24  25
ENDBRANCH  23  24
ENDBRANCH   9  23
TORSDOF 7
