REMARK  Name = ZINC39623464
REMARK  9 active torsions:
REMARK  status: ('A' for Active; 'I' for Inactive)
REMARK    1  A    between atoms: C_1  and  C_2
REMARK    2  A    between atoms: C_2  and  C_3
REMARK    3  A    between atoms: C_3  and  C_4
REMARK    4  A    between atoms: C_4  and  C_5
REMARK    5  A    between atoms: C_5  and  N_6
REMARK    6  A    between atoms: C_7  and  C_9
REMARK    7  A    between atoms: C_20  and  C_22
REMARK    8  A    between atoms: C_27  and  S_28
REMARK    9  A    between atoms: S_28  and  C_29
REMARK                            x       y       z     vdW  Elec       q    Type
REMARK                         _______ _______ _______ _____ _____    ______ ____
ROOT
ATOM      1  C   UNL     1       2.552  -6.599   3.234  0.00  0.00    +0.100 C 
ATOM      2  C   UNL     1       1.058  -6.934   3.439  0.00  0.00    +0.121 C 
ATOM      3  N   UNL     1       1.055  -8.044   4.421  0.00  0.00    -0.296 N 
ATOM      4  C   UNL     1       2.123  -7.686   5.386  0.00  0.00    +0.115 C 
ATOM      5  C   UNL     1       3.247  -7.093   4.514  0.00  0.00    -0.004 C 
ATOM      6  C   UNL     1       3.915  -5.927   5.236  0.00  0.00    -0.010 C 
ATOM      7  C   UNL     1       4.649  -6.452   6.473  0.00  0.00    -0.082 C 
ATOM      8  N   UNL     1       5.654  -7.442   6.066  0.00  0.00    +0.379 N 
ATOM      9  C   UNL     1       4.994  -8.602   5.455  0.00  0.00    -0.082 C 
ATOM     10  C   UNL     1       4.275  -8.168   4.175  0.00  0.00    -0.010 C 
ATOM     11  C   UNL     1       0.261  -9.133   4.435  0.00  0.00    +0.249 C 
ATOM     12  O   UNL     1       0.314  -9.912   5.367  0.00  0.00    -0.270 OA
ATOM     13  H   UNL     1       6.283  -7.024   5.397  0.00  0.00    -0.086 HD
ATOM     14  H   UNL     1       6.177  -7.741   6.875  0.00  0.00    -0.086 HD
ENDROOT
BRANCH  11  15
ATOM     15  C   UNL     1      -0.673  -9.378   3.321  0.00  0.00    +0.069 A 
ATOM     16  C   UNL     1      -1.309  -8.311   2.675  0.00  0.00    +0.017 A 
ATOM     17  C   UNL     1      -2.175  -8.595   1.635  0.00  0.00    +0.020 A 
ATOM     18  C   UNL     1      -2.388  -9.911   1.264  0.00  0.00    +0.112 A 
ATOM     19  N   UNL     1      -1.779 -10.903   1.884  0.00  0.00    -0.248 NA
ATOM     20  C   UNL     1      -0.936 -10.688   2.883  0.00  0.00    +0.114 A 
BRANCH  20  21
ATOM     21  S   UNL     1      -0.145 -12.051   3.671  0.00  0.00    -0.069 S 
BRANCH  21  22
ATOM     22  C   UNL     1      -0.883 -13.464   2.920  0.00  0.00    +0.014 A 
ATOM     23  C   UNL     1      -0.266 -14.078   1.836  0.00  0.00    +0.015 A 
ATOM     24  C   UNL     1      -0.847 -15.185   1.250  0.00  0.00    +0.001 A 
ATOM     25  C   UNL     1      -2.040 -15.683   1.740  0.00  0.00    +0.000 A 
ATOM     26  C   UNL     1      -2.657 -15.075   2.818  0.00  0.00    +0.001 A 
ATOM     27  C   UNL     1      -2.079 -13.971   3.413  0.00  0.00    +0.015 A 
ENDBRANCH  21  22
ENDBRANCH  20  21
ENDBRANCH  11  15
BRANCH   1  29
ATOM     28  N   UNL     1       3.768  -4.636   2.346  0.00  0.00    -0.315 N 
ATOM     29  C   UNL     1       2.740  -5.112   3.076  0.00  0.00    +0.218 C 
ATOM     30  O   UNL     1       1.965  -4.344   3.605  0.00  0.00    -0.275 OA
ATOM     31  H   UNL     1       4.388  -5.251   1.923  0.00  0.00    +0.149 HD
BRANCH  28  32
ATOM     32  C   UNL     1       3.951  -3.191   2.192  0.00  0.00    +0.104 C 
BRANCH  32  33
ATOM     33  C   UNL     1       5.182  -2.922   1.325  0.00  0.00    +0.019 C 
BRANCH  33  34
ATOM     34  C   UNL     1       5.372  -1.412   1.164  0.00  0.00    +0.001 C 
BRANCH  34  36
ATOM     35  C   UNL     1       6.793   0.367   0.136  0.00  0.00    +0.004 C 
ATOM     36  C   UNL     1       6.603  -1.143   0.297  0.00  0.00    -0.003 C 
ENDBRANCH  34  36
ENDBRANCH  33  34
ENDBRANCH  32  33
ENDBRANCH  28  32
ENDBRANCH   1  29
TORSDOF 8
