REMARK  Name = ZINC12151972
REMARK  7 active torsions:
REMARK  status: ('A' for Active; 'I' for Inactive)
REMARK    1  A    between atoms: C_4  and  C_7
REMARK    2  A    between atoms: C_7  and  C_13
REMARK    3  A    between atoms: C_13  and  N_75
REMARK    4  A    between atoms: C_14  and  N_75
REMARK    5  A    between atoms: N_17  and  C_20
REMARK    6  A    between atoms: C_23  and  C_26
REMARK    7  A    between atoms: C_32  and  O_35
REMARK                            x       y       z     vdW  Elec       q    Type
REMARK                         _______ _______ _______ _____ _____    ______ ____
ROOT
ATOM      1  C   UNL     1       0.401  -2.635   1.222  0.00  0.00    -0.069 C 
ATOM      2  C   UNL     1      -0.999  -2.054   1.006  0.00  0.00    +0.003 C 
ATOM      3  C   UNL     1      -0.935  -0.528   1.114  0.00  0.00    +0.103 C 
ATOM      4  N   UNL     1      -0.006  -0.004   0.104  0.00  0.00    -0.330 N 
ATOM      5  C   UNL     1       1.355  -0.511   0.320  0.00  0.00    +0.103 C 
ATOM      6  C   UNL     1       1.359  -2.036   0.189  0.00  0.00    +0.003 C 
ENDROOT
BRANCH   4   7
ATOM      7  C   UNL     1      -0.023   1.387   0.087  0.00  0.00    +0.030 A 
ATOM      8  C   UNL     1      -0.858   2.082   0.957  0.00  0.00    +0.024 A 
ATOM      9  C   UNL     1      -0.873   3.458   0.946  0.00  0.00    +0.015 A 
ATOM     10  C   UNL     1      -0.056   4.157   0.052  0.00  0.00    +0.037 A 
ATOM     11  C   UNL     1       0.777   3.456  -0.825  0.00  0.00    +0.015 A 
ATOM     12  C   UNL     1       0.791   2.080  -0.805  0.00  0.00    +0.024 A 
BRANCH  10  13
ATOM     13  C   UNL     1      -0.074   5.632   0.033  0.00  0.00    +0.247 C 
ATOM     14  O   UNL     1       0.969   6.254   0.095  0.00  0.00    -0.270 OA
ATOM     15  N   UNL     1      -1.247   6.291  -0.054  0.00  0.00    -0.295 N 
ATOM     16  C   UNL     1      -2.520   5.557  -0.047  0.00  0.00    +0.108 C 
ATOM     17  C   UNL     1      -3.336   5.973  -1.276  0.00  0.00    +0.021 C 
ATOM     18  C   UNL     1      -3.488   7.495  -1.290  0.00  0.00    +0.034 C 
ATOM     19  C   UNL     1      -2.107   8.147  -1.385  0.00  0.00    +0.132 C 
ATOM     20  C   UNL     1      -1.277   7.756  -0.152  0.00  0.00    +0.139 C 
BRANCH  19  21
ATOM     21  O   UNL     1      -2.252   9.568  -1.429  0.00  0.00    -0.390 OA
ATOM     22  H   UNL     1      -1.414  10.047  -1.490  0.00  0.00    +0.210 HD
ENDBRANCH  19  21
ENDBRANCH  10  13
ENDBRANCH   4   7
BRANCH   1  23
ATOM     23  N   UNL     1       0.350  -4.100   1.056  0.00  0.00    +0.382 N 
ATOM     24  H   UNL     1      -0.549  -4.449   1.410  0.00  0.00    -0.085 HD
ATOM     25  H   UNL     1       0.439  -4.331   0.060  0.00  0.00    -0.085 HD
BRANCH  23  26
ATOM     26  C   UNL     1       1.449  -4.739   1.805  0.00  0.00    -0.071 C 
BRANCH  26  27
ATOM     27  C   UNL     1       1.369  -6.255   1.614  0.00  0.00    -0.019 C 
ATOM     28  C   UNL     1       0.026  -6.765   2.138  0.00  0.00    +0.010 C 
ATOM     29  C   UNL     1      -0.102  -6.431   3.626  0.00  0.00    +0.001 C 
ATOM     30  C   UNL     1       1.035  -7.102   4.399  0.00  0.00    +0.000 C 
ATOM     31  C   UNL     1       2.379  -6.591   3.875  0.00  0.00    +0.001 C 
ATOM     32  C   UNL     1       2.506  -6.926   2.387  0.00  0.00    +0.010 C 
BRANCH  27  36
ATOM     33  C   UNL     1       1.727  -7.189  -2.539  0.00  0.00    +0.000 A 
ATOM     34  C   UNL     1       0.690  -6.388  -2.097  0.00  0.00    +0.000 A 
ATOM     35  C   UNL     1       0.574  -6.086  -0.753  0.00  0.00    +0.004 A 
ATOM     36  C   UNL     1       1.495  -6.585   0.149  0.00  0.00    -0.043 A 
ATOM     37  C   UNL     1       2.535  -7.381  -0.293  0.00  0.00    +0.004 A 
ATOM     38  C   UNL     1       2.648  -7.687  -1.637  0.00  0.00    +0.000 A 
ENDBRANCH  27  36
ENDBRANCH  26  27
ENDBRANCH  23  26
ENDBRANCH   1  23
TORSDOF 7
