REMARK  Name = ZINC50566314
REMARK  7 active torsions:
REMARK  status: ('A' for Active; 'I' for Inactive)
REMARK    1  A    between atoms: C_1  and  C_2
REMARK    2  A    between atoms: C_2  and  C_3
REMARK    3  A    between atoms: C_3  and  C_5
REMARK    4  A    between atoms: C_3  and  C_8
REMARK    5  A    between atoms: C_5  and  N_7
REMARK    6  A    between atoms: C_14  and  C_19
REMARK    7  A    between atoms: C_16  and  C_18
REMARK                            x       y       z     vdW  Elec       q    Type
REMARK                         _______ _______ _______ _____ _____    ______ ____
ROOT
ATOM      1  C   UNL     1      -2.710   0.161  -0.650  0.00  0.00    +0.225 C 
ATOM      2  O   UNL     1      -3.283  -0.646  -1.352  0.00  0.00    -0.275 OA
ATOM      3  N   UNL     1      -2.704   1.465  -0.990  0.00  0.00    -0.298 N 
ATOM      4  C   UNL     1      -1.913   2.435  -0.220  0.00  0.00    +0.108 C 
ATOM      5  C   UNL     1      -2.831   3.580   0.221  0.00  0.00    +0.019 C 
ATOM      6  C   UNL     1      -3.528   4.170  -1.006  0.00  0.00    +0.006 C 
ATOM      7  C   UNL     1      -4.386   3.094  -1.675  0.00  0.00    +0.006 C 
ATOM      8  C   UNL     1      -3.482   1.943  -2.141  0.00  0.00    +0.076 C 
ATOM      9  C   UNL     1      -4.342   0.801  -2.688  0.00  0.00    +0.028 C 
ATOM     10  C   UNL     1      -5.109   3.694  -2.882  0.00  0.00    +0.009 C 
ENDROOT
BRANCH   1  11
ATOM     11  C   UNL     1      -2.006  -0.295   0.602  0.00  0.00    +0.126 C 
BRANCH  11  13
ATOM     12  C   UNL     1      -0.642  -1.975  -0.648  0.00  0.00    +0.005 C 
ATOM     13  C   UNL     1      -1.659  -1.780   0.479  0.00  0.00    +0.016 C 
ENDBRANCH  11  13
BRANCH  11  14
ATOM     14  C   UNL     1      -2.909  -0.087   1.790  0.00  0.00    +0.058 C 
ATOM     15  S   UNL     1      -4.478   0.131   1.574  0.00  0.00    -0.040 S 
BRANCH  14  16
ATOM     16  N   UNL     1      -2.394  -0.085   3.036  0.00  0.00    -0.355 N 
ATOM     17  H   UNL     1      -1.442  -0.217   3.167  0.00  0.00    +0.143 HD
ATOM     18  H   UNL     1      -2.975   0.049   3.801  0.00  0.00    +0.143 HD
ENDBRANCH  14  16
ENDBRANCH  11  14
ENDBRANCH   1  11
TORSDOF 4
