REMARK  Name = ZINC39607188
REMARK  6 active torsions:
REMARK  status: ('A' for Active; 'I' for Inactive)
REMARK    1  A    between atoms: C_1  and  C_2
REMARK    2  A    between atoms: C_5  and  C_9
REMARK    3  A    between atoms: C_6  and  C_8
REMARK    4  A    between atoms: C_9  and  N_10
REMARK    5  A    between atoms: C_11  and  C_13
REMARK    6  A    between atoms: C_24  and  C_26
REMARK                            x       y       z     vdW  Elec       q    Type
REMARK                         _______ _______ _______ _____ _____    ______ ____
ROOT
ATOM      1  C   UNL     1      -2.810  -6.647   0.599  0.00  0.00    +0.100 C 
ATOM      2  C   UNL     1      -3.318  -6.308   2.019  0.00  0.00    +0.121 C 
ATOM      3  N   UNL     1      -4.095  -7.500   2.433  0.00  0.00    -0.297 N 
ATOM      4  C   UNL     1      -3.311  -8.648   1.919  0.00  0.00    +0.115 C 
ATOM      5  C   UNL     1      -2.806  -8.184   0.538  0.00  0.00    -0.004 C 
ATOM      6  C   UNL     1      -3.748  -8.671  -0.559  0.00  0.00    -0.010 C 
ATOM      7  C   UNL     1      -3.684 -10.199  -0.638  0.00  0.00    -0.082 C 
ATOM      8  N   UNL     1      -2.307 -10.619  -0.925  0.00  0.00    +0.379 N 
ATOM      9  C   UNL     1      -1.423 -10.227   0.179  0.00  0.00    -0.082 C 
ATOM     10  C   UNL     1      -1.391  -8.700   0.293  0.00  0.00    -0.010 C 
ATOM     11  C   UNL     1      -5.253  -7.532   3.122  0.00  0.00    +0.260 C 
ATOM     12  O   UNL     1      -5.824  -6.498   3.397  0.00  0.00    -0.271 OA
ATOM     13  H   UNL     1      -2.279 -11.621  -1.037  0.00  0.00    -0.086 HD
ATOM     14  H   UNL     1      -1.993 -10.179  -1.777  0.00  0.00    -0.086 HD
ENDROOT
BRANCH  11  15
ATOM     15  C   UNL     1      -5.837  -8.853   3.551  0.00  0.00    +0.296 C 
ATOM     16  C   UNL     1      -4.936  -9.498   4.613  0.00  0.00    +0.283 C 
ATOM     17  O   UNL     1      -5.527 -10.741   5.008  0.00  0.00    -0.484 OA
ATOM     18  C   UNL     1      -6.862 -10.727   5.271  0.00  0.00    +0.162 A 
ATOM     19  C   UNL     1      -7.424 -11.770   5.992  0.00  0.00    +0.049 A 
ATOM     20  C   UNL     1      -8.779 -11.772   6.265  0.00  0.00    +0.004 A 
ATOM     21  C   UNL     1      -9.577 -10.735   5.821  0.00  0.00    +0.004 A 
ATOM     22  C   UNL     1      -9.023  -9.691   5.104  0.00  0.00    +0.049 A 
ATOM     23  C   UNL     1      -7.664  -9.683   4.827  0.00  0.00    +0.163 A 
ATOM     24  O   UNL     1      -7.131  -8.645   4.126  0.00  0.00    -0.473 OA
ENDBRANCH  11  15
BRANCH   1  26
ATOM     25  N   UNL     1      -0.953  -5.888  -0.847  0.00  0.00    -0.311 N 
ATOM     26  C   UNL     1      -1.416  -6.111   0.399  0.00  0.00    +0.218 C 
ATOM     27  O   UNL     1      -0.711  -5.880   1.358  0.00  0.00    -0.275 OA
ATOM     28  H   UNL     1      -1.516  -6.073  -1.615  0.00  0.00    +0.149 HD
BRANCH  25  29
ATOM     29  C   UNL     1       0.403  -5.366  -1.042  0.00  0.00    +0.139 C 
BRANCH  29  34
ATOM     30  C   UNL     1       1.435  -4.762  -6.696  0.00  0.00    +0.044 C 
ATOM     31  C   UNL     1       1.166  -4.919  -5.221  0.00  0.00    -0.050 A 
ATOM     32  C   UNL     1       1.652  -6.022  -4.544  0.00  0.00    +0.004 A 
ATOM     33  C   UNL     1       1.405  -6.167  -3.192  0.00  0.00    +0.006 A 
ATOM     34  C   UNL     1       0.673  -5.208  -2.516  0.00  0.00    -0.027 A 
ATOM     35  C   UNL     1       0.187  -4.105  -3.193  0.00  0.00    -0.046 A 
ATOM     36  C   UNL     1       0.438  -3.959  -4.545  0.00  0.00    +0.007 A 
ATOM     37  C   UNL     1      -0.612  -3.061  -2.458  0.00  0.00    +0.044 C 
ENDBRANCH  29  34
ENDBRANCH  25  29
ENDBRANCH   1  26
TORSDOF 4
