REMARK  Name = ZINC22383144
REMARK  9 active torsions:
REMARK  status: ('A' for Active; 'I' for Inactive)
REMARK    1  A    between atoms: C_1  and  C_2
REMARK    2  A    between atoms: C_2  and  C_3
REMARK    3  A    between atoms: C_3  and  C_4
REMARK    4  A    between atoms: C_4  and  N_5
REMARK    5  A    between atoms: N_5  and  S_6
REMARK    6  A    between atoms: S_6  and  C_9
REMARK    7  A    between atoms: C_13  and  N_15
REMARK    8  A    between atoms: C_16  and  C_18
REMARK    9  A    between atoms: C_18  and  C_19
REMARK                            x       y       z     vdW  Elec       q    Type
REMARK                         _______ _______ _______ _____ _____    ______ ____
ROOT
ATOM      1  N   UNL     1       3.699  -2.982   6.005  0.00  0.00    -0.285 N 
ATOM      2  C   UNL     1       4.430  -4.058   5.652  0.00  0.00    +0.222 C 
ATOM      3  O   UNL     1       4.661  -4.927   6.465  0.00  0.00    -0.275 OA
ATOM      4  H   UNL     1       3.553  -2.158   5.291  0.00  0.00    +0.155 HD
ENDROOT
BRANCH   1   9
ATOM      5  C   UNL     1       3.221  -3.382   9.629  0.00  0.00    +0.107 A 
ATOM      6  C   UNL     1       1.988  -2.780   9.798  0.00  0.00    +0.028 A 
ATOM      7  C   UNL     1       1.321  -2.245   8.711  0.00  0.00    +0.004 A 
ATOM      8  C   UNL     1       1.888  -2.305   7.453  0.00  0.00    +0.023 A 
ATOM      9  C   UNL     1       3.124  -2.914   7.279  0.00  0.00    +0.035 A 
ATOM     10  C   UNL     1       3.791  -3.450   8.373  0.00  0.00    +0.051 A 
BRANCH   5  11
ATOM     11  S   UNL     1       4.067  -4.061  11.017  0.00  0.00    +0.058 S 
ATOM     12  O   UNL     1       3.076  -4.354  11.993  0.00  0.00    -0.153 OA
ATOM     13  O   UNL     1       4.952  -5.051  10.509  0.00  0.00    -0.153 OA
BRANCH  11  14
ATOM     14  N   UNL     1       5.014  -2.860  11.650  0.00  0.00    -0.190 NA
ATOM     15  H   UNL     1       6.101  -2.886  11.480  0.00  0.00    +0.148 HD
BRANCH  14  16
ATOM     16  C   UNL     1       4.393  -1.669  12.236  0.00  0.00    +0.106 C 
BRANCH  16  17
ATOM     17  C   UNL     1       5.429  -0.909  13.066  0.00  0.00    +0.017 C 
BRANCH  17  19
ATOM     18  C   UNL     1       5.817   1.094  14.508  0.00  0.00    +0.004 C 
ATOM     19  C   UNL     1       4.780   0.334  13.678  0.00  0.00    -0.002 C 
ENDBRANCH  17  19
ENDBRANCH  16  17
ENDBRANCH  14  16
ENDBRANCH  11  14
ENDBRANCH   5  11
ENDBRANCH   1   9
BRANCH   2  20
ATOM     20  C   UNL     1       4.962  -4.179   4.247  0.00  0.00    +0.131 C 
BRANCH  20  21
ATOM     21  C   UNL     1       5.740  -5.463   4.114  0.00  0.00    -0.034 A 
ATOM     22  C   UNL     1       5.097  -6.623   3.725  0.00  0.00    +0.053 A 
ATOM     23  C   UNL     1       5.810  -7.806   3.600  0.00  0.00    +0.164 A 
ATOM     24  C   UNL     1       7.174  -7.821   3.866  0.00  0.00    +0.180 A 
ATOM     25  C   UNL     1       7.814  -6.654   4.258  0.00  0.00    +0.086 A 
ATOM     26  C   UNL     1       7.096  -5.478   4.381  0.00  0.00    +0.028 A 
ATOM     27 CL   UNL     1       9.517  -6.670   4.594  0.00  0.00    -0.080 Cl
ATOM     28  O   UNL     1       7.894  -8.970   3.746  0.00  0.00    -0.483 OA
ATOM     29  C   UNL     1       7.152 -10.194   3.715  0.00  0.00    +0.270 C 
ATOM     30  C   UNL     1       5.975 -10.019   2.747  0.00  0.00    +0.270 C 
ATOM     31  O   UNL     1       5.161  -8.940   3.221  0.00  0.00    -0.485 OA
ENDBRANCH  20  21
ENDBRANCH   2  20
TORSDOF 8
