REMARK  Name = ZINC39566438
REMARK  13 active torsions:
REMARK  status: ('A' for Active; 'I' for Inactive)
REMARK    1  A    between atoms: C_1  and  C_2
REMARK    2  A    between atoms: C_6  and  C_32
REMARK    3  A    between atoms: C_7  and  N_8
REMARK    4  A    between atoms: C_9  and  C_11
REMARK    5  A    between atoms: C_11  and  N_12
REMARK    6  A    between atoms: C_13  and  C_15
REMARK    7  A    between atoms: C_15  and  C_17
REMARK    8  A    between atoms: C_15  and  O_18
REMARK    9  A    between atoms: O_18  and  C_19
REMARK   10  A    between atoms: C_19  and  C_21
REMARK   11  A    between atoms: C_21  and  C_23
REMARK   12  A    between atoms: C_21  and  O_24
REMARK   13  A    between atoms: O_24  and  C_25
REMARK                            x       y       z     vdW  Elec       q    Type
REMARK                         _______ _______ _______ _____ _____    ______ ____
ROOT
ATOM      1  N   UNL     1      -0.753  -1.397   5.658  0.00  0.00    -0.304 N 
ATOM      2  C   UNL     1      -0.853  -0.787   6.856  0.00  0.00    +0.254 C 
ATOM      3  O   UNL     1      -0.704   0.414   6.939  0.00  0.00    -0.272 OA
ATOM      4  H   UNL     1      -0.872  -2.357   5.591  0.00  0.00    +0.149 HD
ENDROOT
BRANCH   2   5
ATOM      5  C   UNL     1      -1.150  -1.597   8.091  0.00  0.00    +0.259 C 
ATOM      6  C   UNL     1      -2.549  -2.207   7.977  0.00  0.00    +0.062 C 
BRANCH   5   7
ATOM      7  O   UNL     1      -1.091  -0.751   9.241  0.00  0.00    -0.450 OA
BRANCH   7   8
ATOM      8  C   UNL     1      -0.715  -1.320  10.397  0.00  0.00    +0.349 C 
ATOM      9  O   UNL     1      -0.445  -2.497  10.432  0.00  0.00    -0.247 OA
BRANCH   8  10
ATOM     10  C   UNL     1      -0.631  -0.490  11.652  0.00  0.00    +0.278 C 
ATOM     11  C   UNL     1      -2.028   0.004  12.033  0.00  0.00    +0.064 C 
BRANCH  10  12
ATOM     12  O   UNL     1      -0.101  -1.286  12.715  0.00  0.00    -0.478 OA
BRANCH  12  13
ATOM     13  C   UNL     1       0.656  -0.648  13.646  0.00  0.00    +0.122 A 
ATOM     14  C   UNL     1       1.302  -1.376  14.634  0.00  0.00    +0.047 A 
ATOM     15  C   UNL     1       2.071  -0.726  15.579  0.00  0.00    +0.019 A 
ATOM     16  C   UNL     1       2.198   0.651  15.540  0.00  0.00    +0.018 A 
ATOM     17  C   UNL     1       1.554   1.380  14.556  0.00  0.00    +0.019 A 
ATOM     18  C   UNL     1       0.789   0.732  13.605  0.00  0.00    +0.047 A 
ATOM     19 BR   UNL     1       3.252   1.539  16.835  0.00  0.00    -0.050 Br
ENDBRANCH  12  13
ENDBRANCH  10  12
ENDBRANCH   8  10
ENDBRANCH   7   8
ENDBRANCH   5   7
ENDBRANCH   2   5
BRANCH   1  20
ATOM     20  C   UNL     1      -0.464  -0.609   4.457  0.00  0.00    +0.200 C 
BRANCH  20  22
ATOM     21  N   UNL     1      -0.150  -1.015   2.037  0.00  0.00    -0.284 N 
ATOM     22  C   UNL     1      -0.405  -1.522   3.259  0.00  0.00    +0.234 C 
ATOM     23  O   UNL     1      -0.586  -2.714   3.396  0.00  0.00    -0.274 OA
ATOM     24  H   UNL     1       0.043  -0.070   1.935  0.00  0.00    +0.155 HD
BRANCH  21  31
ATOM     25  C   UNL     1       1.980  -0.788   0.163  0.00  0.00    +0.045 C 
ATOM     26  C   UNL     1       0.855  -1.774  -0.024  0.00  0.00    -0.029 A 
ATOM     27  C   UNL     1       0.841  -2.605  -1.127  0.00  0.00    +0.005 A 
ATOM     28  C   UNL     1      -0.191  -3.509  -1.300  0.00  0.00    +0.001 A 
ATOM     29  C   UNL     1      -1.212  -3.585  -0.369  0.00  0.00    +0.005 A 
ATOM     30  C   UNL     1      -1.203  -2.757   0.736  0.00  0.00    -0.029 A 
ATOM     31  C   UNL     1      -0.165  -1.851   0.915  0.00  0.00    +0.039 A 
ATOM     32  C   UNL     1      -2.315  -2.839   1.749  0.00  0.00    +0.045 C 
ENDBRANCH  21  31
ENDBRANCH  20  22
ENDBRANCH   1  20
TORSDOF 9
