REMARK  Name = ZINC12051246
REMARK  6 active torsions:
REMARK  status: ('A' for Active; 'I' for Inactive)
REMARK    1  A    between atoms: C_1  and  C_2
REMARK    2  A    between atoms: N_4  and  C_5
REMARK    3  A    between atoms: C_5  and  C_6
REMARK    4  A    between atoms: C_9  and  C_11
REMARK    5  A    between atoms: C_17  and  C_19
REMARK    6  A    between atoms: C_19  and  C_20
REMARK                            x       y       z     vdW  Elec       q    Type
REMARK                         _______ _______ _______ _____ _____    ______ ____
ROOT
ATOM      1  C   UNL     1      -1.443   2.061  -5.803  0.00  0.00    +0.115 A 
ATOM      2  C   UNL     1      -2.535   2.810  -5.455  0.00  0.00    +0.080 A 
ATOM      3  S   UNL     1      -2.436   2.736  -3.672  0.00  0.00    -0.060 S 
ATOM      4  C   UNL     1      -0.960   1.733  -3.569  0.00  0.00    +0.165 A 
ATOM      5  N   UNL     1      -0.681   1.539  -4.844  0.00  0.00    -0.221 NA
ATOM      6  N   UNL     1      -0.288   1.272  -2.443  0.00  0.00    -0.264 N 
ATOM      7  C   UNL     1      -0.742   1.585  -1.213  0.00  0.00    +0.225 C 
ATOM      8  O   UNL     1      -1.736   2.268  -1.088  0.00  0.00    -0.275 OA
ATOM      9  H   UNL     1       0.507   0.726  -2.543  0.00  0.00    +0.157 HD
ENDROOT
BRANCH   1  13
ATOM     10  C   UNL     1      -1.213   1.900  -9.419  0.00  0.00    +0.123 A 
ATOM     11  C   UNL     1      -0.133   1.159  -9.103  0.00  0.00    +0.047 A 
ATOM     12  C   UNL     1      -0.059   1.116  -7.696  0.00  0.00    +0.052 A 
ATOM     13  C   UNL     1      -1.114   1.833  -7.226  0.00  0.00    +0.154 A 
ATOM     14  O   UNL     1      -1.803   2.306  -8.281  0.00  0.00    -0.457 OA
BRANCH  10  15
ATOM     15  C   UNL     1      -1.681   2.220 -10.815  0.00  0.00    +0.178 C 
BRANCH  15  19
ATOM     16  C   UNL     1      -4.126   0.200 -12.958  0.00  0.00    +0.109 C 
ATOM     17  C   UNL     1      -3.166   1.264 -12.493  0.00  0.00    +0.210 C 
ATOM     18  O   UNL     1      -2.889   2.192 -13.224  0.00  0.00    -0.276 OA
ATOM     19  N   UNL     1      -2.615   1.185 -11.266  0.00  0.00    -0.308 N 
ATOM     20  H   UNL     1      -2.836   0.444 -10.682  0.00  0.00    +0.149 HD
ENDBRANCH  15  19
ENDBRANCH  10  15
ENDBRANCH   1  13
BRANCH   7  21
ATOM     21  C   UNL     1      -0.013   1.086   0.008  0.00  0.00    +0.154 C 
BRANCH  21  22
ATOM     22  C   UNL     1      -0.718   1.572   1.248  0.00  0.00    +0.078 A 
ATOM     23  C   UNL     1      -0.204   1.213   2.570  0.00  0.00    +0.011 A 
ATOM     24  C   UNL     1       0.943   0.432   2.728  0.00  0.00    +0.010 A 
ATOM     25  C   UNL     1       1.387   0.130   3.984  0.00  0.00    +0.001 A 
ATOM     26  C   UNL     1       0.717   0.593   5.109  0.00  0.00    +0.001 A 
ATOM     27  C   UNL     1      -0.414   1.369   4.984  0.00  0.00    +0.014 A 
ATOM     28  C   UNL     1      -0.886   1.691   3.712  0.00  0.00    +0.050 A 
ATOM     29  C   UNL     1      -2.085   2.514   3.512  0.00  0.00    +0.272 A 
ATOM     30  O   UNL     1      -2.709   2.944   4.466  0.00  0.00    -0.266 OA
ATOM     31  N   UNL     1      -2.483   2.785   2.252  0.00  0.00    -0.242 N 
ATOM     32  H   UNL     1      -3.274   3.329   2.113  0.00  0.00    +0.192 HD
ATOM     33  N   UNL     1      -1.786   2.305   1.143  0.00  0.00    -0.175 NA
ENDBRANCH  21  22
ENDBRANCH   7  21
TORSDOF 5
