REMARK  Name = ZINC64029376
REMARK  8 active torsions:
REMARK  status: ('A' for Active; 'I' for Inactive)
REMARK    1  A    between atoms: C_3  and  C_17
REMARK    2  A    between atoms: C_6  and  C_7
REMARK    3  A    between atoms: C_7  and  N_8
REMARK    4  A    between atoms: N_8  and  C_9
REMARK    5  A    between atoms: C_12  and  N_14
REMARK    6  A    between atoms: C_17  and  O_18
REMARK    7  A    between atoms: O_18  and  C_19
REMARK    8  A    between atoms: C_19  and  C_20
REMARK                            x       y       z     vdW  Elec       q    Type
REMARK                         _______ _______ _______ _____ _____    ______ ____
ROOT
ATOM      1  C   UNL     1      -0.017   1.378   0.010  0.00  0.00    +0.005 A 
ATOM      2  C   UNL     1       1.171   2.086   0.002  0.00  0.00    +0.006 A 
ATOM      3  C   UNL     1       2.377   1.411  -0.013  0.00  0.00    -0.022 A 
ATOM      4  C   UNL     1       2.396   0.029  -0.020  0.00  0.00    +0.006 A 
ATOM      5  C   UNL     1       1.208  -0.679  -0.012  0.00  0.00    +0.005 A 
ATOM      6  C   UNL     1       0.002  -0.004   0.002  0.00  0.00    -0.030 A 
ENDROOT
BRANCH   6   7
ATOM      7  C   UNL     1      -1.293  -0.775   0.011  0.00  0.00    +0.137 C 
BRANCH   7   8
ATOM      8  N   UNL     1      -1.726  -1.018  -1.368  0.00  0.00    -0.334 N 
ATOM      9  H   UNL     1      -1.192  -0.691  -2.108  0.00  0.00    +0.147 HD
BRANCH   8  10
ATOM     10  C   UNL     1      -2.908  -1.719  -1.615  0.00  0.00    +0.068 A 
ATOM     11  C   UNL     1      -3.475  -2.050  -2.808  0.00  0.00    +0.033 A 
ATOM     12  C   UNL     1      -4.665  -2.757  -2.806  0.00  0.00    +0.042 A 
ATOM     13  C   UNL     1      -5.227  -3.097  -1.623  0.00  0.00    +0.165 A 
ATOM     14  S   UNL     1      -4.063  -2.421  -0.449  0.00  0.00    -0.050 S 
BRANCH  13  15
ATOM     15  N   UNL     1      -6.481  -3.843  -1.366  0.00  0.00    +0.063 N 
ATOM     16  O   UNL     1      -7.151  -4.236  -2.293  0.00  0.00    -0.126 OA
ATOM     17  O   UNL     1      -6.835  -4.060  -0.231  0.00  0.00    -0.126 OA
ENDBRANCH  13  15
ENDBRANCH   8  10
ENDBRANCH   7   8
ENDBRANCH   6   7
BRANCH   3  18
ATOM     18  C   UNL     1       3.672   2.182  -0.022  0.00  0.00    +0.195 C 
BRANCH  18  19
ATOM     19  O   UNL     1       4.095   2.419   1.322  0.00  0.00    -0.366 OA
BRANCH  19  20
ATOM     20  C   UNL     1       5.319   3.148   1.426  0.00  0.00    +0.273 C 
BRANCH  20  21
ATOM     21  C   UNL     1       5.673   3.343   2.902  0.00  0.00    +0.413 C 
ATOM     22  F   UNL     1       5.820   2.094   3.515  0.00  0.00    -0.168 F 
ATOM     23  F   UNL     1       6.872   4.056   3.004  0.00  0.00    -0.168 F 
ATOM     24  F   UNL     1       4.651   4.057   3.536  0.00  0.00    -0.168 F 
ENDBRANCH  20  21
ENDBRANCH  19  20
ENDBRANCH  18  19
ENDBRANCH   3  18
TORSDOF 8
