REMARK  Name = ZINC39667485
REMARK  6 active torsions:
REMARK  status: ('A' for Active; 'I' for Inactive)
REMARK    1  A    between atoms: C_1  and  C_2
REMARK    2  A    between atoms: C_6  and  C_9
REMARK    3  A    between atoms: C_7  and  C_8
REMARK    4  A    between atoms: C_9  and  N_10
REMARK    5  A    between atoms: C_11  and  C_13
REMARK    6  A    between atoms: C_24  and  C_26
REMARK                            x       y       z     vdW  Elec       q    Type
REMARK                         _______ _______ _______ _____ _____    ______ ____
ROOT
ATOM      1  C   UNL     1      -3.190  -3.516   4.758  0.00  0.00    +0.100 C 
ATOM      2  C   UNL     1      -4.087  -4.261   3.744  0.00  0.00    +0.121 C 
ATOM      3  N   UNL     1      -4.024  -5.682   4.162  0.00  0.00    -0.296 N 
ATOM      4  C   UNL     1      -4.049  -5.631   5.644  0.00  0.00    +0.115 C 
ATOM      5  C   UNL     1      -3.171  -4.417   6.005  0.00  0.00    -0.004 C 
ATOM      6  C   UNL     1      -1.746  -4.869   6.308  0.00  0.00    -0.010 C 
ATOM      7  C   UNL     1      -1.745  -5.717   7.583  0.00  0.00    -0.082 C 
ATOM      8  N   UNL     1      -2.276  -4.925   8.699  0.00  0.00    +0.379 N 
ATOM      9  C   UNL     1      -3.678  -4.572   8.441  0.00  0.00    -0.082 C 
ATOM     10  C   UNL     1      -3.760  -3.676   7.201  0.00  0.00    -0.010 C 
ATOM     11  C   UNL     1      -3.960  -6.773   3.374  0.00  0.00    +0.247 C 
ATOM     12  O   UNL     1      -4.003  -7.883   3.867  0.00  0.00    -0.270 OA
ATOM     13  H   UNL     1      -2.218  -5.464   9.550  0.00  0.00    -0.086 HD
ATOM     14  H   UNL     1      -1.732  -4.081   8.801  0.00  0.00    -0.086 HD
ENDROOT
BRANCH  11  15
ATOM     15  C   UNL     1      -3.837  -6.620   1.910  0.00  0.00    +0.045 A 
ATOM     16  C   UNL     1      -4.713  -5.779   1.214  0.00  0.00    +0.014 A 
ATOM     17  C   UNL     1      -4.600  -5.634  -0.151  0.00  0.00    +0.001 A 
ATOM     18  C   UNL     1      -3.619  -6.319  -0.851  0.00  0.00    +0.012 A 
ATOM     19  C   UNL     1      -2.739  -7.159  -0.180  0.00  0.00    +0.031 A 
ATOM     20  C   UNL     1      -2.838  -7.311   1.212  0.00  0.00    +0.006 A 
ATOM     21  C   UNL     1      -1.781  -8.250   1.665  0.00  0.00    -0.006 A 
ATOM     22  C   UNL     1      -1.452  -8.737   2.923  0.00  0.00    +0.009 A 
ATOM     23  C   UNL     1      -0.395  -9.623   3.069  0.00  0.00    +0.001 A 
ATOM     24  C   UNL     1       0.336 -10.027   1.969  0.00  0.00    +0.001 A 
ATOM     25  C   UNL     1       0.020  -9.550   0.707  0.00  0.00    +0.012 A 
ATOM     26  C   UNL     1      -1.037  -8.663   0.547  0.00  0.00    +0.030 A 
ATOM     27  C   UNL     1      -1.613  -8.003  -0.649  0.00  0.00    +0.194 C 
ATOM     28  O   UNL     1      -1.228  -8.120  -1.795  0.00  0.00    -0.287 OA
ENDBRANCH  11  15
BRANCH   1  30
ATOM     29  N   UNL     1      -1.048  -2.294   4.571  0.00  0.00    -0.311 N 
ATOM     30  C   UNL     1      -1.797  -3.354   4.207  0.00  0.00    +0.218 C 
ATOM     31  O   UNL     1      -1.350  -4.176   3.436  0.00  0.00    -0.275 OA
ATOM     32  H   UNL     1      -1.405  -1.637   5.188  0.00  0.00    +0.149 HD
BRANCH  29  33
ATOM     33  C   UNL     1       0.307  -2.136   4.035  0.00  0.00    +0.139 C 
BRANCH  33  39
ATOM     34  C   UNL     1       2.620   0.263   7.768  0.00  0.00    +0.044 C 
ATOM     35  C   UNL     1       2.031   0.267   6.381  0.00  0.00    -0.047 A 
ATOM     36  C   UNL     1       2.058   1.422   5.622  0.00  0.00    +0.003 A 
ATOM     37  C   UNL     1       1.518   1.425   4.350  0.00  0.00    +0.001 A 
ATOM     38  C   UNL     1       0.951   0.274   3.836  0.00  0.00    +0.005 A 
ATOM     39  C   UNL     1       0.925  -0.881   4.595  0.00  0.00    -0.027 A 
ATOM     40  C   UNL     1       1.469  -0.886   5.866  0.00  0.00    -0.043 A 
ATOM     41  C   UNL     1       1.445  -2.147   6.691  0.00  0.00    +0.044 C 
ENDBRANCH  33  39
ENDBRANCH  29  33
ENDBRANCH   1  30
TORSDOF 4
