REMARK  Name = ZINC18196412
REMARK  4 active torsions:
REMARK  status: ('A' for Active; 'I' for Inactive)
REMARK    1  A    between atoms: C_3  and  C_10
REMARK    2  A    between atoms: C_5  and  N_7
REMARK    3  A    between atoms: C_17  and  O_18
REMARK    4  A    between atoms: C_25  and  C_28
REMARK                            x       y       z     vdW  Elec       q    Type
REMARK                         _______ _______ _______ _____ _____    ______ ____
ROOT
ATOM      1  C   UNL     1       3.672   2.182  -0.022  0.00  0.00    +0.092 C 
ATOM      2  C   UNL     1       3.752   3.039   1.209  0.00  0.00    +0.067 A 
ATOM      3  C   UNL     1       3.588   4.398   1.169  0.00  0.00    +0.126 A 
ATOM      4  N   UNL     1       3.714   4.864   2.426  0.00  0.00    -0.260 N 
ATOM      5  H   UNL     1       3.643   5.792   2.702  0.00  0.00    +0.190 HD
ATOM      6  N   UNL     1       3.966   3.768   3.266  0.00  0.00    -0.134 NA
ATOM      7  C   UNL     1       3.988   2.677   2.532  0.00  0.00    +0.237 A 
ATOM      8  N   UNL     1       3.343   5.064  -0.026  0.00  0.00    -0.303 N 
ATOM      9  C   UNL     1       3.558   4.395  -1.205  0.00  0.00    +0.017 C 
ATOM     10  C   UNL     1       3.728   3.057  -1.256  0.00  0.00    +0.024 C 
ATOM     11  C   UNL     1       3.970   2.408  -2.480  0.00  0.00    +0.162 C 
ATOM     12  O   UNL     1       4.114   1.201  -2.494  0.00  0.00    -0.292 OA
ATOM     13  C   UNL     1       4.054   3.171  -3.772  0.00  0.00    +0.088 C 
ATOM     14  C   UNL     1       4.544   4.593  -3.478  0.00  0.00    +0.039 C 
ATOM     15  C   UNL     1       3.591   5.228  -2.466  0.00  0.00    +0.060 C 
ATOM     16  H   UNL     1       3.026   5.981  -0.027  0.00  0.00    +0.153 HD
ENDROOT
BRANCH   1  19
ATOM     17  C   UNL     1      -0.017   1.378   0.010  0.00  0.00    +0.003 A 
ATOM     18  C   UNL     1       1.171   2.085   0.002  0.00  0.00    +0.005 A 
ATOM     19  C   UNL     1       2.377   1.411  -0.013  0.00  0.00    -0.033 A 
ATOM     20  C   UNL     1       2.396   0.028  -0.020  0.00  0.00    +0.037 A 
ATOM     21  C   UNL     1       1.209  -0.679  -0.012  0.00  0.00    +0.126 A 
ATOM     22  C   UNL     1       0.002  -0.004   0.002  0.00  0.00    +0.033 A 
BRANCH  21  23
ATOM     23  N   UNL     1       1.229  -2.159  -0.020  0.00  0.00    +0.056 N 
ATOM     24  O   UNL     1       2.284  -2.749  -0.035  0.00  0.00    -0.126 OA
ATOM     25  O   UNL     1       0.190  -2.778  -0.013  0.00  0.00    -0.126 OA
ENDBRANCH  21  23
ENDBRANCH   1  19
BRANCH  14  26
ATOM     26  C   UNL     1       4.548   5.403  -4.749  0.00  0.00    -0.006 A 
ATOM     27  C   UNL     1       5.587   6.012  -5.370  0.00  0.00    +0.011 A 
ATOM     28  C   UNL     1       5.354   6.708  -6.541  0.00  0.00    +0.008 A 
ATOM     29  C   UNL     1       4.093   6.760  -7.035  0.00  0.00    +0.045 A 
ATOM     30  S   UNL     1       3.186   5.800  -5.833  0.00  0.00    -0.101 S 
ENDBRANCH  14  26
BRANCH   7  31
ATOM     31  O   UNL     1       4.203   1.413   2.987  0.00  0.00    -0.491 OA
ATOM     32  H   UNL     1       5.133   1.150   2.992  0.00  0.00    +0.294 HD
ENDBRANCH   7  31
TORSDOF 4
