REMARK  Name = ZINC59446834
REMARK  5 active torsions:
REMARK  status: ('A' for Active; 'I' for Inactive)
REMARK    1  A    between atoms: C_4  and  C_7
REMARK    2  A    between atoms: N_18  and  O_19
REMARK    3  A    between atoms: O_19  and  C_20
REMARK    4  A    between atoms: C_20  and  C_22
REMARK    5  A    between atoms: C_26  and  N_28
REMARK                            x       y       z     vdW  Elec       q    Type
REMARK                         _______ _______ _______ _____ _____    ______ ____
ROOT
ATOM      1  C   UNL     1       3.711  -0.707  -0.038  0.00  0.00    +0.232 C 
ATOM      2  N   UNL     1       4.730   0.103   0.641  0.00  0.00    -0.319 N 
ATOM      3  C   UNL     1       4.713   0.164   2.031  0.00  0.00    +0.041 A 
ATOM      4  C   UNL     1       5.165   1.275   2.721  0.00  0.00    +0.024 A 
ATOM      5  C   UNL     1       5.122   1.285   4.102  0.00  0.00    +0.002 A 
ATOM      6  C   UNL     1       4.632   0.193   4.800  0.00  0.00    +0.001 A 
ATOM      7  C   UNL     1       4.179  -0.923   4.127  0.00  0.00    +0.015 A 
ATOM      8  C   UNL     1       4.217  -0.948   2.735  0.00  0.00    +0.061 A 
ATOM      9  C   UNL     1       3.754  -2.117   1.966  0.00  0.00    +0.282 C 
ATOM     10  O   UNL     1       3.554  -3.180   2.523  0.00  0.00    -0.267 OA
ATOM     11  N   UNL     1       3.555  -1.994   0.641  0.00  0.00    -0.102 N 
ATOM     12  H   UNL     1       5.401   0.584   0.132  0.00  0.00    +0.148 HD
ENDROOT
BRANCH   1  16
ATOM     13  C   UNL     1      -0.017   1.378   0.010  0.00  0.00    +0.000 A 
ATOM     14  C   UNL     1       1.171   2.086   0.002  0.00  0.00    +0.000 A 
ATOM     15  C   UNL     1       2.377   1.411  -0.013  0.00  0.00    +0.007 A 
ATOM     16  C   UNL     1       2.396   0.029  -0.020  0.00  0.00    -0.006 A 
ATOM     17  C   UNL     1       1.208  -0.679  -0.012  0.00  0.00    +0.007 A 
ATOM     18  C   UNL     1       0.002  -0.004   0.002  0.00  0.00    +0.000 A 
ENDBRANCH   1  16
BRANCH  11  19
ATOM     19  O   UNL     1       3.186  -3.135  -0.111  0.00  0.00    -0.337 OA
BRANCH  19  20
ATOM     20  C   UNL     1       4.228  -3.826  -0.603  0.00  0.00    +0.362 C 
ATOM     21  O   UNL     1       5.364  -3.450  -0.386  0.00  0.00    -0.243 OA
BRANCH  20  22
ATOM     22  C   UNL     1       3.994  -5.043  -1.409  0.00  0.00    +0.063 A 
ATOM     23  C   UNL     1       2.691  -5.474  -1.665  0.00  0.00    +0.015 A 
ATOM     24  C   UNL     1       2.480  -6.610  -2.418  0.00  0.00    +0.003 A 
ATOM     25  C   UNL     1       3.555  -7.322  -2.919  0.00  0.00    +0.033 A 
ATOM     26  C   UNL     1       4.849  -6.901  -2.668  0.00  0.00    +0.127 A 
ATOM     27  C   UNL     1       5.075  -5.763  -1.921  0.00  0.00    +0.047 A 
BRANCH  26  28
ATOM     28  N   UNL     1       5.994  -7.669  -3.208  0.00  0.00    +0.056 N 
ATOM     29  O   UNL     1       5.797  -8.663  -3.867  0.00  0.00    -0.126 OA
ATOM     30  O   UNL     1       7.125  -7.301  -2.990  0.00  0.00    -0.126 OA
ENDBRANCH  26  28
ENDBRANCH  20  22
ENDBRANCH  19  20
ENDBRANCH  11  19
TORSDOF 5
