REMARK  Name = ZINC39659539
REMARK  8 active torsions:
REMARK  status: ('A' for Active; 'I' for Inactive)
REMARK    1  A    between atoms: C_1  and  C_2
REMARK    2  A    between atoms: C_2  and  C_38
REMARK    3  A    between atoms: C_5  and  C_8
REMARK    4  A    between atoms: C_8  and  N_9
REMARK    5  A    between atoms: C_10  and  C_12
REMARK    6  A    between atoms: C_23  and  C_25
REMARK    7  A    between atoms: C_30  and  O_31
REMARK    8  A    between atoms: O_31  and  C_32
REMARK                            x       y       z     vdW  Elec       q    Type
REMARK                         _______ _______ _______ _____ _____    ______ ____
ROOT
ATOM      1  C   UNL     1       3.349  -1.371   5.649  0.00  0.00    +0.100 C 
ATOM      2  C   UNL     1       4.465  -0.320   5.458  0.00  0.00    +0.121 C 
ATOM      3  N   UNL     1       5.367  -0.516   6.617  0.00  0.00    -0.296 N 
ATOM      4  C   UNL     1       5.424  -1.987   6.795  0.00  0.00    +0.115 C 
ATOM      5  C   UNL     1       3.983  -2.465   6.526  0.00  0.00    -0.004 C 
ATOM      6  C   UNL     1       3.999  -3.796   5.781  0.00  0.00    -0.010 C 
ATOM      7  C   UNL     1       4.580  -4.880   6.694  0.00  0.00    -0.082 C 
ATOM      8  N   UNL     1       3.764  -4.986   7.910  0.00  0.00    +0.379 N 
ATOM      9  C   UNL     1       3.830  -3.731   8.668  0.00  0.00    -0.082 C 
ATOM     10  C   UNL     1       3.217  -2.599   7.839  0.00  0.00    -0.010 C 
ATOM     11  C   UNL     1       5.994   0.428   7.346  0.00  0.00    +0.252 C 
ATOM     12  O   UNL     1       6.781   0.104   8.214  0.00  0.00    -0.270 OA
ATOM     13  H   UNL     1       2.806  -5.174   7.656  0.00  0.00    -0.086 HD
ATOM     14  H   UNL     1       4.112  -5.741   8.482  0.00  0.00    -0.086 HD
ENDROOT
BRANCH  11  15
ATOM     15  C   UNL     1       5.725   1.856   7.090  0.00  0.00    +0.099 A 
ATOM     16  C   UNL     1       5.471   2.312   5.791  0.00  0.00    +0.020 A 
ATOM     17  C   UNL     1       5.224   3.660   5.605  0.00  0.00    +0.021 A 
ATOM     18  C   UNL     1       5.235   4.511   6.696  0.00  0.00    +0.114 A 
ATOM     19  N   UNL     1       5.477   4.061   7.911  0.00  0.00    -0.220 NA
ATOM     20  C   UNL     1       5.713   2.781   8.145  0.00  0.00    +0.233 A 
BRANCH  20  21
ATOM     21  O   UNL     1       5.951   2.361   9.411  0.00  0.00    -0.437 OA
BRANCH  21  22
ATOM     22  C   UNL     1       6.027   3.299  10.391  0.00  0.00    +0.130 A 
ATOM     23  C   UNL     1       7.264   3.712  10.864  0.00  0.00    +0.046 A 
ATOM     24  C   UNL     1       7.338   4.667  11.860  0.00  0.00    +0.004 A 
ATOM     25  C   UNL     1       6.180   5.210  12.385  0.00  0.00    +0.000 A 
ATOM     26  C   UNL     1       4.946   4.801  11.915  0.00  0.00    +0.004 A 
ATOM     27  C   UNL     1       4.867   3.851  10.916  0.00  0.00    +0.046 A 
ENDBRANCH  21  22
ENDBRANCH  20  21
ENDBRANCH  11  15
BRANCH   1  29
ATOM     28  N   UNL     1       1.689  -2.436   4.156  0.00  0.00    -0.312 N 
ATOM     29  C   UNL     1       2.933  -1.942   4.318  0.00  0.00    +0.218 C 
ATOM     30  O   UNL     1       3.717  -1.957   3.393  0.00  0.00    -0.275 OA
ATOM     31  H   UNL     1       1.062  -2.424   4.896  0.00  0.00    +0.149 HD
BRANCH  28  32
ATOM     32  C   UNL     1       1.285  -2.991   2.862  0.00  0.00    +0.138 C 
BRANCH  32  37
ATOM     33  C   UNL     1      -2.655  -4.916   4.189  0.00  0.00    +0.074 C 
ATOM     34  C   UNL     1      -1.437  -5.332   3.362  0.00  0.00    +0.165 C 
ATOM     35  O   UNL     1      -1.657  -5.006   1.983  0.00  0.00    -0.347 OA
ATOM     36  C   UNL     1      -0.627  -4.074   1.593  0.00  0.00    +0.196 C 
ATOM     37  C   UNL     1      -0.163  -3.479   2.946  0.00  0.00    +0.164 C 
ATOM     38  O   UNL     1      -0.274  -4.625   3.825  0.00  0.00    -0.342 OA
ATOM     39  C   UNL     1      -1.211  -6.839   3.501  0.00  0.00    +0.074 C 
ENDBRANCH  32  37
ENDBRANCH  28  32
ENDBRANCH   1  29
TORSDOF 6
