REMARK  Name = ZINC13564964
REMARK  6 active torsions:
REMARK  status: ('A' for Active; 'I' for Inactive)
REMARK    1  A    between atoms: C_1  and  C_2
REMARK    2  A    between atoms: C_3  and  C_16
REMARK    3  A    between atoms: C_8  and  C_10
REMARK    4  A    between atoms: C_10  and  N_62
REMARK    5  A    between atoms: N_24  and  S_25
REMARK    6  A    between atoms: S_25  and  C_28
REMARK                            x       y       z     vdW  Elec       q    Type
REMARK                         _______ _______ _______ _____ _____    ______ ____
ROOT
ATOM      1  C   UNL     1       3.370  -7.175  -3.436  0.00  0.00    +0.054 C 
ATOM      2  C   UNL     1       3.186  -6.588  -4.812  0.00  0.00    +0.016 A 
ATOM      3  C   UNL     1       3.232  -5.284  -5.217  0.00  0.00    +0.083 A 
ATOM      4  N   UNL     1       3.044  -4.994  -6.496  0.00  0.00    -0.224 NA
ATOM      5  C   UNL     1       2.809  -5.940  -7.386  0.00  0.00    +0.165 A 
ATOM      6  S   UNL     1       2.847  -7.406  -6.365  0.00  0.00    -0.057 S 
ATOM      7  N   UNL     1       2.592  -5.826  -8.754  0.00  0.00    -0.266 N 
ATOM      8  C   UNL     1       2.368  -6.929  -9.495  0.00  0.00    +0.202 C 
ATOM      9  O   UNL     1       2.356  -8.021  -8.968  0.00  0.00    -0.277 OA
ATOM     10  H   UNL     1       2.601  -4.952  -9.175  0.00  0.00    +0.157 HD
ENDROOT
BRANCH   3  11
ATOM     11  C   UNL     1       3.494  -4.203  -4.235  0.00  0.00    +0.002 A 
ATOM     12  C   UNL     1       2.999  -4.301  -2.935  0.00  0.00    +0.012 A 
ATOM     13  C   UNL     1       3.244  -3.298  -2.026  0.00  0.00    +0.025 A 
ATOM     14  C   UNL     1       3.990  -2.175  -2.395  0.00  0.00    +0.055 A 
ATOM     15  C   UNL     1       4.476  -2.080  -3.690  0.00  0.00    -0.023 A 
ATOM     16  C   UNL     1       4.229  -3.080  -4.608  0.00  0.00    +0.015 A 
ATOM     17  C   UNL     1       5.245  -0.784  -3.822  0.00  0.00    +0.058 C 
ATOM     18  C   UNL     1       5.140  -0.130  -2.434  0.00  0.00    +0.136 C 
ATOM     19  N   UNL     1       4.345  -1.062  -1.630  0.00  0.00    -0.202 N 
BRANCH  19  20
ATOM     20  S   UNL     1       3.934  -0.832  -0.042  0.00  0.00    +0.075 S 
ATOM     21  O   UNL     1       4.902   0.054   0.504  0.00  0.00    -0.150 OA
ATOM     22  O   UNL     1       3.686  -2.120   0.504  0.00  0.00    -0.150 OA
BRANCH  20  23
ATOM     23  C   UNL     1       2.396   0.029  -0.022  0.00  0.00    +0.109 A 
ATOM     24  C   UNL     1       1.208  -0.679  -0.014  0.00  0.00    +0.029 A 
ATOM     25  C   UNL     1       0.002  -0.004   0.002  0.00  0.00    +0.002 A 
ATOM     26  C   UNL     1      -0.017   1.378   0.010  0.00  0.00    +0.000 A 
ATOM     27  C   UNL     1       1.171   2.086   0.002  0.00  0.00    +0.002 A 
ATOM     28  C   UNL     1       2.377   1.411  -0.014  0.00  0.00    +0.029 A 
ENDBRANCH  20  23
ENDBRANCH  19  20
ENDBRANCH   3  11
BRANCH   8  29
ATOM     29  C   UNL     1       2.131  -6.805 -10.978  0.00  0.00    +0.019 C 
BRANCH  29  35
ATOM     30  C   UNL     1       3.128  -8.959 -11.454  0.00  0.00    -0.078 C 
ATOM     31  C   UNL     1       2.824 -10.383 -11.926  0.00  0.00    -0.019 C 
ATOM     32  C   UNL     1       2.331 -10.340 -13.375  0.00  0.00    -0.004 C 
ATOM     33  C   UNL     1       1.094  -9.441 -13.458  0.00  0.00    -0.019 C 
ATOM     34  C   UNL     1       1.448  -8.045 -12.942  0.00  0.00    -0.078 C 
ATOM     35  N   UNL     1       1.892  -8.152 -11.535  0.00  0.00    +0.385 N 
ATOM     36  H   UNL     1       1.156  -8.614 -10.988  0.00  0.00    -0.081 HD
ENDBRANCH  29  35
ENDBRANCH   8  29
TORSDOF 5
