REMARK  Name = ZINC06229949
REMARK  6 active torsions:
REMARK  status: ('A' for Active; 'I' for Inactive)
REMARK    1  A    between atoms: C_7  and  C_11
REMARK    2  A    between atoms: N_21  and  C_22
REMARK    3  A    between atoms: C_22  and  C_23
REMARK    4  A    between atoms: N_25  and  C_26
REMARK    5  A    between atoms: C_26  and  C_27
REMARK    6  A    between atoms: C_27  and  C_28
REMARK                            x       y       z     vdW  Elec       q    Type
REMARK                         _______ _______ _______ _____ _____    ______ ____
ROOT
ATOM      1  C   UNL     1      -0.018   1.463   0.010  0.00  0.00    +0.140 C 
ATOM      2  C   UNL     1       1.424   1.905  -0.001  0.00  0.00    -0.010 A 
ATOM      3  C   UNL     1       2.032   3.139  -0.001  0.00  0.00    +0.006 A 
ATOM      4  C   UNL     1       3.413   3.230  -0.014  0.00  0.00    +0.000 A 
ATOM      5  C   UNL     1       4.186   2.082  -0.028  0.00  0.00    +0.001 A 
ATOM      6  C   UNL     1       3.587   0.839  -0.028  0.00  0.00    +0.013 A 
ATOM      7  C   UNL     1       2.194   0.740  -0.015  0.00  0.00    +0.042 A 
ATOM      8  C   UNL     1       1.281  -0.419  -0.012  0.00  0.00    +0.248 C 
ATOM      9  O   UNL     1       1.634  -1.582  -0.021  0.00  0.00    -0.270 OA
ATOM     10  N   UNL     1       0.002  -0.004   0.002  0.00  0.00    -0.278 N 
ENDROOT
BRANCH   1  17
ATOM     11  C   UNL     1      -2.273   5.439   1.048  0.00  0.00    +0.001 A 
ATOM     12  C   UNL     1      -2.754   5.464   2.350  0.00  0.00    +0.002 A 
ATOM     13  C   UNL     1      -2.552   4.395   3.194  0.00  0.00    +0.026 A 
ATOM     14  C   UNL     1      -1.859   3.277   2.740  0.00  0.00    +0.047 A 
ATOM     15  C   UNL     1      -1.374   3.257   1.420  0.00  0.00    +0.005 A 
ATOM     16  C   UNL     1      -1.590   4.352   0.581  0.00  0.00    +0.010 A 
ATOM     17  C   UNL     1      -0.703   1.965   1.255  0.00  0.00    +0.002 A 
ATOM     18  C   UNL     1      -0.820   1.310   2.421  0.00  0.00    +0.089 A 
ATOM     19  N   UNL     1      -1.503   2.081   3.322  0.00  0.00    -0.360 N 
ATOM     20  H   UNL     1      -1.710   1.822   4.234  0.00  0.00    +0.165 HD
ENDBRANCH   1  17
BRANCH  10  21
ATOM     21  C   UNL     1      -1.177  -0.874   0.008  0.00  0.00    +0.204 C 
BRANCH  21  22
ATOM     22  C   UNL     1      -1.594  -1.164  -1.411  0.00  0.00    +0.230 C 
ATOM     23  O   UNL     1      -0.968  -0.691  -2.336  0.00  0.00    -0.274 OA
ATOM     24  N   UNL     1      -2.663  -1.949  -1.652  0.00  0.00    -0.314 N 
ATOM     25  H   UNL     1      -3.163  -2.327  -0.912  0.00  0.00    +0.149 HD
BRANCH  24  26
ATOM     26  C   UNL     1      -3.068  -2.231  -3.031  0.00  0.00    +0.108 C 
BRANCH  26  27
ATOM     27  C   UNL     1      -4.300  -3.139  -3.025  0.00  0.00    +0.049 C 
BRANCH  27  28
ATOM     28  C   UNL     1      -4.716  -3.430  -4.444  0.00  0.00    -0.072 C 
ATOM     29  C   UNL     1      -4.284  -4.519  -4.992  0.00  0.00    -0.028 C 
ATOM     30  C   UNL     1      -4.605  -4.938  -6.397  0.00  0.00    +0.027 C 
ATOM     31  C   UNL     1      -5.812  -4.156  -6.918  0.00  0.00    +0.004 C 
ATOM     32  C   UNL     1      -5.578  -2.664  -6.645  0.00  0.00    +0.005 C 
ATOM     33  C   UNL     1      -5.612  -2.441  -5.130  0.00  0.00    +0.030 C 
ENDBRANCH  27  28
ENDBRANCH  26  27
ENDBRANCH  24  26
ENDBRANCH  21  22
ENDBRANCH  10  21
TORSDOF 6
