REMARK  Name = ZINC60386071
REMARK  10 active torsions:
REMARK  status: ('A' for Active; 'I' for Inactive)
REMARK    1  A    between atoms: C_1  and  C_2
REMARK    2  A    between atoms: C_8  and  C_10
REMARK    3  A    between atoms: C_10  and  S_11
REMARK    4  A    between atoms: S_11  and  C_12
REMARK    5  A    between atoms: C_16  and  C_18
REMARK    6  A    between atoms: C_18  and  C_19
REMARK    7  A    between atoms: C_18  and  C_20
REMARK    8  A    between atoms: C_18  and  C_21
REMARK    9  A    between atoms: N_22  and  C_29
REMARK   10  A    between atoms: N_25  and  C_28
REMARK                            x       y       z     vdW  Elec       q    Type
REMARK                         _______ _______ _______ _____ _____    ______ ____
ROOT
ATOM      1  C   UNL     1       4.806  -5.553   2.500  0.00  0.00    +0.115 A 
ATOM      2  C   UNL     1       5.868  -6.461   2.643  0.00  0.00    +0.114 A 
ATOM      3  C   UNL     1       6.285  -6.816   3.939  0.00  0.00    +0.154 A 
ATOM      4  N   UNL     1       5.662  -6.282   4.980  0.00  0.00    -0.213 NA
ATOM      5  C   UNL     1       4.668  -5.432   4.802  0.00  0.00    +0.138 A 
ATOM      6  N   UNL     1       4.246  -5.066   3.608  0.00  0.00    -0.224 NA
ATOM      7  N   UNL     1       7.328  -7.707   4.078  0.00  0.00    -0.281 N 
ATOM      8  C   UNL     1       7.934  -8.225   2.996  0.00  0.00    +0.333 A 
ATOM      9  O   UNL     1       8.850  -9.008   3.162  0.00  0.00    -0.246 OA
ATOM     10  N   UNL     1       7.572  -7.918   1.740  0.00  0.00    -0.263 N 
ATOM     11  C   UNL     1       6.561  -7.054   1.495  0.00  0.00    +0.268 A 
ATOM     12  O   UNL     1       6.236  -6.778   0.356  0.00  0.00    -0.267 OA
ATOM     13  C   UNL     1       8.286  -8.528   0.616  0.00  0.00    +0.157 C 
ATOM     14  C   UNL     1       7.780  -8.091   5.418  0.00  0.00    +0.155 C 
ENDROOT
BRANCH   5  15
ATOM     15  C   UNL     1       3.989  -4.851   6.016  0.00  0.00    +0.022 C 
ATOM     16  C   UNL     1       5.013  -4.082   6.853  0.00  0.00    +0.019 C 
ATOM     17  C   UNL     1       2.876  -3.899   5.572  0.00  0.00    +0.019 C 
ATOM     18  C   UNL     1       3.390  -5.981   6.855  0.00  0.00    +0.019 C 
ENDBRANCH   5  15
BRANCH   1  19
ATOM     19  S   UNL     1       4.236  -5.067   0.906  0.00  0.00    -0.096 S 
BRANCH  19  20
ATOM     20  C   UNL     1       2.889  -3.904   1.257  0.00  0.00    +0.171 C 
BRANCH  20  28
ATOM     21  C   UNL     1      -0.019   1.526   0.010  0.00  0.00    +0.007 C 
ATOM     22  C   UNL     1       0.002  -0.004   0.002  0.00  0.00    -0.011 C 
ATOM     23  C   UNL     1       0.717  -0.497  -1.258  0.00  0.00    +0.022 C 
ATOM     24  C   UNL     1       0.705  -2.029  -1.280  0.00  0.00    +0.108 C 
ATOM     25  N   UNL     1       1.285  -2.525  -0.025  0.00  0.00    -0.301 N 
ATOM     26  C   UNL     1       0.731  -2.043   1.248  0.00  0.00    +0.108 C 
ATOM     27  C   UNL     1       0.742  -0.511   1.242  0.00  0.00    +0.022 C 
ATOM     28  C   UNL     1       2.305  -3.405  -0.040  0.00  0.00    +0.226 C 
ATOM     29  O   UNL     1       2.754  -3.796  -1.097  0.00  0.00    -0.275 OA
ENDBRANCH  20  28
ENDBRANCH  19  20
ENDBRANCH   1  19
TORSDOF 4
