REMARK  Name = ZINC60332634
REMARK  14 active torsions:
REMARK  status: ('A' for Active; 'I' for Inactive)
REMARK    1  A    between atoms: C_1  and  C_2
REMARK    2  A    between atoms: C_2  and  C_4
REMARK    3  A    between atoms: C_2  and  N_7
REMARK    4  A    between atoms: C_4  and  C_5
REMARK    5  A    between atoms: C_4  and  C_6
REMARK    6  A    between atoms: C_8  and  C_10
REMARK    7  A    between atoms: N_13  and  C_16
REMARK    8  A    between atoms: C_16  and  C_18
REMARK    9  A    between atoms: C_16  and  C_19
REMARK   10  A    between atoms: N_21  and  C_22
REMARK   11  A    between atoms: C_26  and  S_28
REMARK   12  A    between atoms: S_28  and  N_31
REMARK   13  A    between atoms: N_31  and  C_32
REMARK   14  A    between atoms: N_31  and  C_33
REMARK                            x       y       z     vdW  Elec       q    Type
REMARK                         _______ _______ _______ _____ _____    ______ ____
ROOT
ATOM      1  C   UNL     1       5.211  -3.453  -4.881  0.00  0.00    +0.016 C 
ATOM      2  C   UNL     1       4.657  -4.763  -4.318  0.00  0.00    -0.004 C 
ENDROOT
BRANCH   1   6
ATOM      3  C   UNL     1       2.973   0.113  -4.220  0.00  0.00    +0.071 C 
ATOM      4  C   UNL     1       2.402  -1.231  -3.760  0.00  0.00    -0.006 C 
ATOM      5  C   UNL     1       3.109  -2.363  -4.508  0.00  0.00    -0.077 C 
ATOM      6  N   UNL     1       4.548  -2.319  -4.223  0.00  0.00    +0.387 N 
ATOM      7  C   UNL     1       5.117  -1.062  -4.727  0.00  0.00    -0.077 C 
ATOM      8  C   UNL     1       4.487   0.120  -3.987  0.00  0.00    -0.006 C 
ATOM      9  H   UNL     1       4.695  -2.377  -3.227  0.00  0.00    -0.081 HD
BRANCH   3  11
ATOM     10  N   UNL     1       1.003   1.415  -3.484  0.00  0.00    -0.312 N 
ATOM     11  C   UNL     1       2.337   1.228  -3.431  0.00  0.00    +0.216 C 
ATOM     12  O   UNL     1       3.025   1.957  -2.749  0.00  0.00    -0.276 OA
ATOM     13  H   UNL     1       0.453   0.831  -4.029  0.00  0.00    +0.149 HD
BRANCH  10  15
ATOM     14  C   UNL     1       0.450   3.797  -3.524  0.00  0.00    +0.028 C 
ATOM     15  C   UNL     1       0.384   2.499  -2.717  0.00  0.00    +0.072 C 
BRANCH  15  16
ATOM     16  C   UNL     1      -1.077   2.150  -2.429  0.00  0.00    +0.003 C 
ATOM     17  C   UNL     1      -1.724   3.282  -1.628  0.00  0.00    +0.009 C 
ATOM     18  C   UNL     1      -1.827   1.968  -3.750  0.00  0.00    +0.009 C 
ENDBRANCH  15  16
ENDBRANCH  10  15
ENDBRANCH   3  11
ENDBRANCH   1   6
BRANCH   1  19
ATOM     19  C   UNL     1       6.695  -3.384  -4.625  0.00  0.00    +0.203 C 
ATOM     20  O   UNL     1       7.112  -2.863  -3.613  0.00  0.00    -0.277 OA
ATOM     21  N   UNL     1       7.558  -3.902  -5.522  0.00  0.00    -0.287 N 
ATOM     22  H   UNL     1       7.229  -4.256  -6.363  0.00  0.00    +0.155 HD
BRANCH  21  23
ATOM     23  C   UNL     1       8.928  -3.929  -5.240  0.00  0.00    +0.035 A 
ATOM     24  C   UNL     1       9.366  -4.094  -3.932  0.00  0.00    +0.023 A 
ATOM     25  C   UNL     1      10.719  -4.120  -3.657  0.00  0.00    +0.004 A 
ATOM     26  C   UNL     1      11.637  -3.981  -4.681  0.00  0.00    +0.028 A 
ATOM     27  C   UNL     1      11.204  -3.816  -5.984  0.00  0.00    +0.107 A 
ATOM     28  C   UNL     1       9.853  -3.796  -6.267  0.00  0.00    +0.051 A 
BRANCH  27  29
ATOM     29  S   UNL     1      12.379  -3.639  -7.286  0.00  0.00    +0.060 S 
ATOM     30  O   UNL     1      11.717  -2.952  -8.339  0.00  0.00    -0.153 OA
ATOM     31  O   UNL     1      13.574  -3.151  -6.691  0.00  0.00    -0.153 OA
BRANCH  29  32
ATOM     32  N   UNL     1      12.717  -5.158  -7.850  0.00  0.00    -0.183 NA
ATOM     33  C   UNL     1      11.920  -5.729  -8.940  0.00  0.00    +0.131 C 
ATOM     34  C   UNL     1      13.812  -5.932  -7.261  0.00  0.00    +0.131 C 
ENDBRANCH  29  32
ENDBRANCH  27  29
ENDBRANCH  21  23
ENDBRANCH   1  19
TORSDOF 8
