REMARK  Name = ZINC02108574
REMARK  10 active torsions:
REMARK  status: ('A' for Active; 'I' for Inactive)
REMARK    1  A    between atoms: C_1  and  C_2
REMARK    2  A    between atoms: C_2  and  O_3
REMARK    3  A    between atoms: O_3  and  C_4
REMARK    4  A    between atoms: C_4  and  C_6
REMARK    5  A    between atoms: C_10  and  N_11
REMARK    6  A    between atoms: N_11  and  C_12
REMARK    7  A    between atoms: C_12  and  N_14
REMARK    8  A    between atoms: C_15  and  C_17
REMARK    9  A    between atoms: C_19  and  S_24
REMARK   10  A    between atoms: S_24  and  C_25
REMARK                            x       y       z     vdW  Elec       q    Type
REMARK                         _______ _______ _______ _____ _____    ______ ____
ROOT
ATOM      1  N   UNL     1       3.473   6.290   0.002  0.00  0.00    -0.290 N 
ATOM      2  H   UNL     1       4.318   5.815  -0.009  0.00  0.00    +0.154 HD
ENDROOT
BRANCH   1   7
ATOM      3  C   UNL     1       4.534   8.550   0.009  0.00  0.00    +0.091 A 
ATOM      4  C   UNL     1       4.247   9.978   0.010  0.00  0.00    -0.021 A 
ATOM      5  C   UNL     1       2.934  10.294   0.029  0.00  0.00    -0.004 A 
ATOM      6  S   UNL     1       2.089   8.737   0.028  0.00  0.00    -0.077 S 
ATOM      7  C   UNL     1       3.457   7.675   0.009  0.00  0.00    +0.086 A 
ATOM      8  C   UNL     1       2.323  11.660   0.059  0.00  0.00    +0.043 C 
ATOM      9  C   UNL     1       2.976  12.533  -1.021  0.00  0.00    +0.005 C 
ATOM     10  C   UNL     1       4.192  13.224  -0.412  0.00  0.00    +0.001 C 
ATOM     11  C   UNL     1       4.840  12.321   0.636  0.00  0.00    +0.005 C 
ATOM     12  C   UNL     1       5.344  11.035  -0.009  0.00  0.00    +0.037 C 
BRANCH   3  13
ATOM     13  C   UNL     1       5.912   8.055   0.004  0.00  0.00    +0.342 C 
ATOM     14  O   UNL     1       6.482   7.853  -1.052  0.00  0.00    -0.245 OA
BRANCH  13  15
ATOM     15  O   UNL     1       6.550   7.822   1.169  0.00  0.00    -0.461 OA
BRANCH  15  17
ATOM     16  C   UNL     1       8.468   7.129   2.500  0.00  0.00    +0.048 C 
ATOM     17  C   UNL     1       7.914   7.332   1.088  0.00  0.00    +0.229 C 
ENDBRANCH  15  17
ENDBRANCH  13  15
ENDBRANCH   3  13
ENDBRANCH   1   7
BRANCH   1  18
ATOM     18  C   UNL     1       2.313   5.604   0.009  0.00  0.00    +0.141 C 
ATOM     19  S   UNL     1       0.821   6.443   0.027  0.00  0.00    -0.018 S 
BRANCH  18  20
ATOM     20  N   UNL     1       2.328   4.256   0.002  0.00  0.00    -0.264 N 
ATOM     21  C   UNL     1       1.168   3.569   0.010  0.00  0.00    +0.251 C 
ATOM     22  O   UNL     1       0.109   4.165   0.022  0.00  0.00    -0.270 OA
ATOM     23  H   UNL     1       3.173   3.780  -0.008  0.00  0.00    +0.157 HD
BRANCH  21  24
ATOM     24  C   UNL     1       1.184   2.092   0.002  0.00  0.00    +0.056 A 
ATOM     25  C   UNL     1       2.399   1.405  -0.014  0.00  0.00    +0.029 A 
ATOM     26  C   UNL     1       2.406   0.019  -0.022  0.00  0.00    +0.008 A 
ATOM     27  C   UNL     1       1.205  -0.683  -0.014  0.00  0.00    +0.016 A 
ATOM     28  C   UNL     1       0.002  -0.004   0.002  0.00  0.00    +0.022 A 
ATOM     29  C   UNL     1      -0.017   1.378   0.010  0.00  0.00    +0.053 A 
ATOM     30 CL   UNL     1      -1.532   2.225   0.021  0.00  0.00    -0.083 Cl
BRANCH  26  31
ATOM     31  S   UNL     1       3.936  -0.854  -0.043  0.00  0.00    -0.129 S 
ATOM     32  C   UNL     1       3.445  -2.600  -0.048  0.00  0.00    +0.090 C 
ENDBRANCH  26  31
ENDBRANCH  21  24
ENDBRANCH  18  20
ENDBRANCH   1  18
TORSDOF 8
