REMARK  Name = ZINC15269169
REMARK  9 active torsions:
REMARK  status: ('A' for Active; 'I' for Inactive)
REMARK    1  A    between atoms: C_1  and  C_2
REMARK    2  A    between atoms: C_3  and  N_15
REMARK    3  A    between atoms: N_6  and  C_9
REMARK    4  A    between atoms: N_7  and  C_8
REMARK    5  A    between atoms: C_16  and  C_18
REMARK    6  A    between atoms: C_18  and  S_19
REMARK    7  A    between atoms: S_19  and  C_20
REMARK    8  A    between atoms: C_23  and  C_29
REMARK    9  A    between atoms: C_25  and  N_26
REMARK                            x       y       z     vdW  Elec       q    Type
REMARK                         _______ _______ _______ _____ _____    ______ ____
ROOT
ATOM      1  N   UNL     1       3.336  -3.218   0.502  0.00  0.00    -0.279 N 
ATOM      2  C   UNL     1       3.257  -1.922   0.142  0.00  0.00    +0.228 C 
ATOM      3  O   UNL     1       4.187  -1.392  -0.429  0.00  0.00    -0.275 OA
ATOM      4  H   UNL     1       2.625  -3.621   1.024  0.00  0.00    +0.155 HD
ENDROOT
BRANCH   1   7
ATOM      5  C   UNL     1       3.182  -5.937  -0.911  0.00  0.00    +0.067 C 
ATOM      6  C   UNL     1       4.424  -5.188  -0.503  0.00  0.00    +0.059 A 
ATOM      7  C   UNL     1       4.452  -3.988   0.119  0.00  0.00    +0.121 A 
ATOM      8  C   UNL     1       5.859  -3.641   0.327  0.00  0.00    +0.293 A 
ATOM      9  O   UNL     1       6.286  -2.634   0.862  0.00  0.00    -0.264 OA
ATOM     10  N   UNL     1       6.593  -4.650  -0.187  0.00  0.00    -0.216 N 
ATOM     11  N   UNL     1       5.712  -5.607  -0.704  0.00  0.00    -0.282 N 
ATOM     12  C   UNL     1       6.106  -6.861  -1.352  0.00  0.00    +0.171 C 
BRANCH  10  13
ATOM     13  C   UNL     1       7.989  -4.726  -0.200  0.00  0.00    +0.067 A 
ATOM     14  C   UNL     1       8.627  -5.881   0.235  0.00  0.00    +0.028 A 
ATOM     15  C   UNL     1      10.006  -5.955   0.215  0.00  0.00    +0.002 A 
ATOM     16  C   UNL     1      10.752  -4.877  -0.227  0.00  0.00    +0.000 A 
ATOM     17  C   UNL     1      10.119  -3.724  -0.655  0.00  0.00    +0.002 A 
ATOM     18  C   UNL     1       8.740  -3.645  -0.643  0.00  0.00    +0.028 A 
ENDBRANCH  10  13
ENDBRANCH   1   7
BRANCH   2  19
ATOM     19  C   UNL     1       2.011  -1.130   0.448  0.00  0.00    +0.170 C 
BRANCH  19  20
ATOM     20  S   UNL     1       2.211   0.569  -0.157  0.00  0.00    -0.114 S 
BRANCH  20  21
ATOM     21  C   UNL     1       0.693   1.355   0.271  0.00  0.00    +0.039 A 
ATOM     22  C   UNL     1      -0.302   0.634   0.928  0.00  0.00    +0.018 A 
ATOM     23  C   UNL     1      -1.482   1.237   1.257  0.00  0.00    +0.014 A 
ATOM     24  C   UNL     1      -1.692   2.583   0.945  0.00  0.00    +0.039 A 
ATOM     25  C   UNL     1      -0.695   3.309   0.285  0.00  0.00    +0.047 A 
ATOM     26  C   UNL     1       0.490   2.695  -0.049  0.00  0.00    +0.140 A 
BRANCH  24  27
ATOM     27  C   UNL     1      -2.965   3.236   1.306  0.00  0.00    +0.242 C 
ATOM     28  O   UNL     1      -3.148   4.406   1.029  0.00  0.00    -0.270 OA
ATOM     29  N   UNL     1      -3.925   2.535   1.942  0.00  0.00    -0.325 N 
ATOM     30  H   UNL     1      -3.778   1.602   2.162  0.00  0.00    +0.145 HD
ATOM     31  H   UNL     1      -4.761   2.964   2.179  0.00  0.00    +0.145 HD
ENDBRANCH  24  27
BRANCH  26  32
ATOM     32  N   UNL     1       1.549   3.459  -0.748  0.00  0.00    +0.058 N 
ATOM     33  O   UNL     1       1.371   4.631  -1.027  0.00  0.00    -0.126 OA
ATOM     34  O   UNL     1       2.598   2.915  -1.043  0.00  0.00    -0.126 OA
ENDBRANCH  26  32
ENDBRANCH  20  21
ENDBRANCH  19  20
ENDBRANCH   2  19
TORSDOF 7
