REMARK  Name = ZINC11007529
REMARK  3 active torsions:
REMARK  status: ('A' for Active; 'I' for Inactive)
REMARK    1  A    between atoms: C_10  and  N_11
REMARK    2  A    between atoms: N_14  and  N_15
REMARK    3  A    between atoms: C_16  and  C_18
REMARK                            x       y       z     vdW  Elec       q    Type
REMARK                         _______ _______ _______ _____ _____    ______ ____
ROOT
ATOM      1  N   UNL     1      -1.325   5.950   0.044  0.00  0.00    -0.268 N 
ATOM      2  C   UNL     1      -1.334   7.293   0.152  0.00  0.00    +0.320 C 
ATOM      3  O   UNL     1      -0.287   7.911   0.145  0.00  0.00    -0.251 OA
ATOM      4  N   UNL     1      -2.504   7.952   0.268  0.00  0.00    -0.218 N 
ATOM      5  H   UNL     1      -2.161   5.462  -0.017  0.00  0.00    +0.156 HD
ATOM      6  H   UNL     1      -2.511   8.919   0.345  0.00  0.00    +0.174 HD
ENDROOT
BRANCH   1  16
ATOM      7  C   UNL     1       0.255   1.479   1.776  0.00  0.00    +0.001 A 
ATOM      8  C   UNL     1      -0.967   2.149   1.807  0.00  0.00    +0.001 A 
ATOM      9  C   UNL     1      -1.105   3.382   1.246  0.00  0.00    +0.010 A 
ATOM     10  C   UNL     1      -0.005   3.986   0.617  0.00  0.00    +0.003 A 
ATOM     11  C   UNL     1       1.237   3.304   0.581  0.00  0.00    -0.016 A 
ATOM     12  C   UNL     1       1.342   2.034   1.175  0.00  0.00    +0.008 A 
ATOM     13  C   UNL     1       2.339   3.906  -0.049  0.00  0.00    +0.008 A 
ATOM     14  C   UNL     1       2.208   5.137  -0.618  0.00  0.00    +0.002 A 
ATOM     15  C   UNL     1       0.993   5.816  -0.588  0.00  0.00    +0.024 A 
ATOM     16  C   UNL     1      -0.111   5.260   0.020  0.00  0.00    +0.043 A 
ENDBRANCH   1  16
BRANCH   4  17
ATOM     17  N   UNL     1      -3.711   7.240   0.276  0.00  0.00    -0.233 N 
ATOM     18  C   UNL     1      -4.881   7.899   0.391  0.00  0.00    +0.234 C 
ATOM     19  O   UNL     1      -4.889   9.108   0.488  0.00  0.00    -0.274 OA
ATOM     20  H   UNL     1      -3.704   6.273   0.198  0.00  0.00    +0.173 HD
BRANCH  18  21
ATOM     21  C   UNL     1      -6.179   7.133   0.400  0.00  0.00    +0.099 C 
ATOM     22  C   UNL     1      -6.343   6.374  -0.927  0.00  0.00    +0.037 C 
ATOM     23  C   UNL     1      -7.794   5.853  -1.062  0.00  0.00    +0.166 C 
ATOM     24  S   UNL     1      -8.754   7.074  -0.077  0.00  0.00    -0.030 S 
ATOM     25  O   UNL     1      -9.358   6.408   1.024  0.00  0.00    -0.174 OA
ATOM     26  O   UNL     1      -9.561   7.846  -0.955  0.00  0.00    -0.174 OA
ATOM     27  C   UNL     1      -7.371   8.122   0.543  0.00  0.00    +0.178 C 
ENDBRANCH  18  21
ENDBRANCH   4  17
TORSDOF 3
