REMARK  Name = ZINC66820493
REMARK  6 active torsions:
REMARK  status: ('A' for Active; 'I' for Inactive)
REMARK    1  A    between atoms: C_1  and  C_2
REMARK    2  A    between atoms: C_2  and  C_4
REMARK    3  A    between atoms: C_2  and  N_16
REMARK    4  A    between atoms: C_9  and  C_12
REMARK    5  A    between atoms: N_14  and  C_15
REMARK    6  A    between atoms: C_17  and  C_19
REMARK                            x       y       z     vdW  Elec       q    Type
REMARK                         _______ _______ _______ _____ _____    ______ ____
ROOT
ATOM      1  C   UNL     1       0.836  -0.462   1.171  0.00  0.00    +0.236 C 
ATOM      2  O   UNL     1       0.368  -1.228   1.986  0.00  0.00    -0.274 OA
ATOM      3  N   UNL     1       2.100  -0.017   1.312  0.00  0.00    -0.300 N 
ATOM      4  C   UNL     1       2.642   1.000   0.401  0.00  0.00    +0.108 C 
ATOM      5  C   UNL     1       3.950   0.477  -0.201  0.00  0.00    +0.032 C 
ATOM      6  C   UNL     1       4.901   0.074   0.929  0.00  0.00    +0.078 C 
ATOM      7  C   UNL     1       4.268  -1.047   1.756  0.00  0.00    +0.032 C 
ATOM      8  C   UNL     1       2.961  -0.537   2.383  0.00  0.00    +0.108 C 
ENDROOT
BRANCH   6   9
ATOM      9  C   UNL     1       6.202  -0.409   0.341  0.00  0.00    +0.216 C 
ATOM     10  O   UNL     1       6.354  -0.429  -0.862  0.00  0.00    -0.276 OA
ATOM     11  N   UNL     1       7.197  -0.819   1.153  0.00  0.00    -0.318 N 
ATOM     12  C   UNL     1       8.461  -1.289   0.581  0.00  0.00    +0.128 C 
ATOM     13  H   UNL     1       7.076  -0.803   2.115  0.00  0.00    +0.148 HD
ENDBRANCH   6   9
BRANCH   1  15
ATOM     14  C   UNL     1      -0.623   1.354   0.320  0.00  0.00    +0.038 C 
ATOM     15  C   UNL     1       0.003  -0.005   0.001  0.00  0.00    +0.156 C 
BRANCH  15  16
ATOM     16  N   UNL     1      -1.058  -0.983  -0.254  0.00  0.00    -0.304 N 
ATOM     17  C   UNL     1      -1.597  -1.087  -1.485  0.00  0.00    +0.217 C 
ATOM     18  O   UNL     1      -1.203  -0.371  -2.382  0.00  0.00    -0.275 OA
ATOM     19  H   UNL     1      -1.373  -1.556   0.463  0.00  0.00    +0.149 HD
BRANCH  17  20
ATOM     20  C   UNL     1      -2.688  -2.093  -1.748  0.00  0.00    +0.079 C 
ATOM     21  C   UNL     1      -2.163  -3.504  -1.463  0.00  0.00    +0.041 C 
ATOM     22  C   UNL     1      -3.252  -4.524  -1.808  0.00  0.00    +0.160 C 
ATOM     23  O   UNL     1      -3.631  -4.370  -3.177  0.00  0.00    -0.380 OA
ATOM     24  C   UNL     1      -4.173  -3.085  -3.491  0.00  0.00    +0.160 C 
ATOM     25  C   UNL     1      -3.121  -2.008  -3.214  0.00  0.00    +0.041 C 
ENDBRANCH  17  20
ENDBRANCH  15  16
ENDBRANCH   1  15
TORSDOF 4
