REMARK  Name = ZINC36493957
REMARK  15 active torsions:
REMARK  status: ('A' for Active; 'I' for Inactive)
REMARK    1  A    between atoms: C_1  and  C_2
REMARK    2  A    between atoms: C_2  and  C_3
REMARK    3  A    between atoms: C_2  and  C_4
REMARK    4  A    between atoms: C_2  and  N_5
REMARK    5  A    between atoms: C_6  and  C_8
REMARK    6  A    between atoms: C_8  and  C_10
REMARK    7  A    between atoms: C_8  and  N_19
REMARK    8  A    between atoms: C_13  and  N_16
REMARK    9  A    between atoms: N_16  and  C_17
REMARK   10  A    between atoms: N_16  and  C_18
REMARK   11  A    between atoms: N_19  and  C_20
REMARK   12  A    between atoms: C_20  and  C_21
REMARK   13  A    between atoms: C_26  and  C_28
REMARK   14  A    between atoms: C_28  and  C_36
REMARK   15  A    between atoms: C_29  and  C_30
REMARK                            x       y       z     vdW  Elec       q    Type
REMARK                         _______ _______ _______ _____ _____    ______ ____
ROOT
ATOM      1  N   UNL     1       4.498  -0.554  -3.591  0.00  0.00    -0.275 N 
ATOM      2  C   UNL     1       5.201  -1.692  -3.761  0.00  0.00    +0.248 C 
ATOM      3  O   UNL     1       4.711  -2.762  -3.454  0.00  0.00    -0.270 OA
ENDROOT
BRANCH   2   4
ATOM      4  C   UNL     1       6.562  -1.639  -4.319  0.00  0.00    +0.045 C 
ATOM      5  C   UNL     1       6.747  -1.359  -5.637  0.00  0.00    +0.021 C 
BRANCH   5   6
ATOM      6  C   UNL     1       5.586  -1.165  -6.516  0.00  0.00    -0.024 A 
ATOM      7  C   UNL     1       5.663  -0.281  -7.598  0.00  0.00    +0.008 A 
ATOM      8  C   UNL     1       4.569  -0.106  -8.419  0.00  0.00    +0.001 A 
ATOM      9  C   UNL     1       3.397  -0.801  -8.175  0.00  0.00    +0.000 A 
ATOM     10  C   UNL     1       3.312  -1.677  -7.106  0.00  0.00    +0.001 A 
ATOM     11  C   UNL     1       4.399  -1.868  -6.279  0.00  0.00    +0.008 A 
ENDBRANCH   5   6
BRANCH   4  12
ATOM     12  C   UNL     1       7.731  -1.890  -3.445  0.00  0.00    -0.013 A 
ATOM     13  C   UNL     1       7.855  -3.108  -2.775  0.00  0.00    +0.008 A 
ATOM     14  C   UNL     1       8.947  -3.336  -1.962  0.00  0.00    +0.001 A 
ATOM     15  C   UNL     1       9.916  -2.360  -1.810  0.00  0.00    +0.000 A 
ATOM     16  C   UNL     1       9.798  -1.151  -2.471  0.00  0.00    +0.001 A 
ATOM     17  C   UNL     1       8.714  -0.913  -3.292  0.00  0.00    +0.008 A 
ENDBRANCH   4  12
ENDBRANCH   2   4
BRANCH   1  18
ATOM     18  C   UNL     1       3.161  -0.602  -2.993  0.00  0.00    +0.193 C 
BRANCH  18  19
ATOM     19  C   UNL     1       2.136  -0.206  -4.024  0.00  0.00    -0.018 A 
ATOM     20  C   UNL     1       2.030   1.115  -4.420  0.00  0.00    +0.008 A 
ATOM     21  C   UNL     1       1.091   1.481  -5.364  0.00  0.00    +0.023 A 
ATOM     22  C   UNL     1       0.253   0.521  -5.917  0.00  0.00    +0.029 A 
ATOM     23  C   UNL     1       0.362  -0.805  -5.517  0.00  0.00    +0.023 A 
ATOM     24  C   UNL     1       1.307  -1.165  -4.576  0.00  0.00    +0.008 A 
BRANCH  22  25
ATOM     25  N   UNL     1      -0.698   0.888  -6.872  0.00  0.00    -0.336 N 
ATOM     26  C   UNL     1      -0.812   2.287  -7.292  0.00  0.00    +0.129 C 
ATOM     27  C   UNL     1      -1.581  -0.126  -7.453  0.00  0.00    +0.129 C 
ENDBRANCH  22  25
ENDBRANCH  18  19
BRANCH  18  29
ATOM     28  N   UNL     1       1.911   0.853  -1.432  0.00  0.00    -0.309 N 
ATOM     29  C   UNL     1       3.098   0.352  -1.829  0.00  0.00    +0.239 C 
ATOM     30  O   UNL     1       4.114   0.670  -1.249  0.00  0.00    -0.273 OA
ATOM     31  H   UNL     1       1.096   0.586  -1.885  0.00  0.00    +0.149 HD
BRANCH  28  33
ATOM     32  C   UNL     1       2.557   3.098  -0.710  0.00  0.00    +0.031 C 
ATOM     33  C   UNL     1       1.851   1.799  -0.315  0.00  0.00    +0.026 C 
ATOM     34  C   UNL     1       2.546   1.192   0.905  0.00  0.00    +0.031 C 
ATOM     35  C   UNL     1       0.389   2.096   0.024  0.00  0.00    +0.031 C 
ENDBRANCH  28  33
ENDBRANCH  18  29
ENDBRANCH   1  18
BRANCH   1  36
ATOM     36  C   UNL     1       5.071   0.729  -4.004  0.00  0.00    +0.183 C 
BRANCH  36  37
ATOM     37  C   UNL     1       5.701   1.404  -2.813  0.00  0.00    +0.122 A 
ATOM     38  C   UNL     1       6.826   1.010  -2.190  0.00  0.00    +0.046 A 
ATOM     39  C   UNL     1       7.051   1.923  -1.134  0.00  0.00    +0.041 A 
ATOM     40  C   UNL     1       6.050   2.820  -1.175  0.00  0.00    +0.195 A 
ATOM     41  O   UNL     1       5.239   2.505  -2.198  0.00  0.00    -0.466 OA
ENDBRANCH  36  37
ENDBRANCH   1  36
TORSDOF 10
