REMARK  Name = ZINC01033163
REMARK  8 active torsions:
REMARK  status: ('A' for Active; 'I' for Inactive)
REMARK    1  A    between atoms: C_1  and  C_2
REMARK    2  A    between atoms: C_5  and  S_8
REMARK    3  A    between atoms: S_8  and  N_11
REMARK    4  A    between atoms: N_11  and  N_12
REMARK    5  A    between atoms: C_13  and  C_24
REMARK    6  A    between atoms: C_28  and  O_31
REMARK    7  A    between atoms: C_29  and  O_30
REMARK    8  A    between atoms: O_31  and  C_32
REMARK                            x       y       z     vdW  Elec       q    Type
REMARK                         _______ _______ _______ _____ _____    ______ ____
ROOT
ATOM      1  N   UNL     1       1.029   1.754   0.011  0.00  0.00    -0.189 N 
ATOM      2  C   UNL     1       0.997   3.216  -0.013  0.00  0.00    +0.214 C 
ATOM      3  N   UNL     1      -0.249   3.708   0.588  0.00  0.00    -0.320 N 
ATOM      4  C   UNL     1      -1.443   3.087   0.242  0.00  0.00    +0.041 A 
ATOM      5  C   UNL     1      -2.647   3.770   0.228  0.00  0.00    +0.024 A 
ATOM      6  C   UNL     1      -3.806   3.106  -0.127  0.00  0.00    +0.002 A 
ATOM      7  C   UNL     1      -3.771   1.763  -0.468  0.00  0.00    +0.001 A 
ATOM      8  C   UNL     1      -2.580   1.067  -0.458  0.00  0.00    +0.015 A 
ATOM      9  C   UNL     1      -1.405   1.724  -0.107  0.00  0.00    +0.059 A 
ATOM     10  C   UNL     1      -0.106   1.029  -0.070  0.00  0.00    +0.265 C 
ATOM     11  O   UNL     1      -0.057  -0.185  -0.117  0.00  0.00    -0.268 OA
ATOM     12  H   UNL     1      -0.238   4.450   1.213  0.00  0.00    +0.148 HD
ENDROOT
BRANCH   2  13
ATOM     13  C   UNL     1       1.085   3.694  -1.440  0.00  0.00    +0.037 A 
ATOM     14  C   UNL     1       1.634   2.876  -2.410  0.00  0.00    +0.011 A 
ATOM     15  C   UNL     1       1.711   3.309  -3.720  0.00  0.00    +0.004 A 
ATOM     16  C   UNL     1       1.250   4.567  -4.065  0.00  0.00    +0.049 A 
ATOM     17  C   UNL     1       0.705   5.393  -3.096  0.00  0.00    +0.162 A 
ATOM     18  C   UNL     1       0.622   4.955  -1.778  0.00  0.00    +0.165 A 
BRANCH  18  19
ATOM     19  O   UNL     1       0.087   5.763  -0.823  0.00  0.00    -0.503 OA
ATOM     20  H   UNL     1       0.732   6.334  -0.385  0.00  0.00    +0.292 HD
ENDBRANCH  18  19
BRANCH  17  21
ATOM     21  O   UNL     1       0.252   6.631  -3.433  0.00  0.00    -0.491 OA
ATOM     22  C   UNL     1       0.369   7.013  -4.805  0.00  0.00    +0.277 C 
ENDBRANCH  17  21
ENDBRANCH   2  13
BRANCH   1  23
ATOM     23  N   UNL     1       2.260   1.095   0.120  0.00  0.00    -0.103 NA
ATOM     24  H   UNL     1       2.715   0.782  -0.677  0.00  0.00    +0.172 HD
BRANCH  23  25
ATOM     25  S   UNL     1       2.939   0.850   1.611  0.00  0.00    +0.074 S 
ATOM     26  O   UNL     1       4.089   0.041   1.405  0.00  0.00    -0.152 OA
ATOM     27  O   UNL     1       3.005   2.122   2.241  0.00  0.00    -0.152 OA
BRANCH  25  32
ATOM     28  C   UNL     1      -0.950  -2.464   4.820  0.00  0.00    +0.044 C 
ATOM     29  C   UNL     1       0.021  -1.636   4.018  0.00  0.00    -0.050 A 
ATOM     30  C   UNL     1       0.918  -2.254   3.167  0.00  0.00    +0.005 A 
ATOM     31  C   UNL     1       1.809  -1.495   2.432  0.00  0.00    +0.029 A 
ATOM     32  C   UNL     1       1.803  -0.118   2.547  0.00  0.00    +0.107 A 
ATOM     33  C   UNL     1       0.910   0.500   3.402  0.00  0.00    +0.029 A 
ATOM     34  C   UNL     1       0.016  -0.259   4.135  0.00  0.00    +0.005 A 
ENDBRANCH  25  32
ENDBRANCH  23  25
ENDBRANCH   1  23
TORSDOF 6
