REMARK  Name = ZINC64520852
REMARK  10 active torsions:
REMARK  status: ('A' for Active; 'I' for Inactive)
REMARK    1  A    between atoms: C_1  and  C_2
REMARK    2  A    between atoms: C_4  and  S_9
REMARK    3  A    between atoms: C_5  and  C_8
REMARK    4  A    between atoms: S_9  and  N_12
REMARK    5  A    between atoms: C_15  and  C_18
REMARK    6  A    between atoms: C_18  and  C_20
REMARK    7  A    between atoms: C_18  and  C_21
REMARK    8  A    between atoms: N_23  and  C_24
REMARK    9  A    between atoms: C_24  and  C_25
REMARK   10  A    between atoms: C_25  and  C_26
REMARK                            x       y       z     vdW  Elec       q    Type
REMARK                         _______ _______ _______ _____ _____    ______ ____
ROOT
ATOM      1  C   UNL     1      -3.300  -2.513  -6.396  0.00  0.00    +0.075 C 
ATOM      2  C   UNL     1      -2.355  -2.108  -7.529  0.00  0.00    +0.017 C 
ENDROOT
BRANCH   1   6
ATOM      3  N   UNL     1      -2.300  -1.212  -2.470  0.00  0.00    -0.177 NA
ATOM      4  C   UNL     1      -1.454  -0.688  -3.552  0.00  0.00    +0.110 C 
ATOM      5  C   UNL     1      -2.193  -0.862  -4.883  0.00  0.00    +0.021 C 
ATOM      6  C   UNL     1      -2.593  -2.329  -5.052  0.00  0.00    +0.003 C 
ATOM      7  C   UNL     1      -3.538  -2.736  -3.919  0.00  0.00    +0.021 C 
ATOM      8  C   UNL     1      -2.811  -2.585  -2.575  0.00  0.00    +0.110 C 
BRANCH   3   9
ATOM      9  S   UNL     1      -2.666  -0.273  -1.156  0.00  0.00    +0.061 S 
ATOM     10  O   UNL     1      -3.870  -0.792  -0.609  0.00  0.00    -0.153 OA
ATOM     11  O   UNL     1      -2.539   1.079  -1.574  0.00  0.00    -0.153 OA
BRANCH   9  14
ATOM     12  C   UNL     1      -0.019   1.526   0.010  0.00  0.00    +0.047 C 
ATOM     13  C   UNL     1       0.002  -0.004   0.002  0.00  0.00    +0.196 C 
ATOM     14  C   UNL     1      -1.407  -0.548   0.046  0.00  0.00    +0.134 C 
ATOM     15  C   UNL     1      -1.526  -1.263   1.145  0.00  0.00    +0.061 C 
ATOM     16  N   UNL     1      -0.345  -1.271   1.865  0.00  0.00    -0.268 N 
ATOM     17  O   UNL     1       0.636  -0.500   1.190  0.00  0.00    -0.265 OA
ATOM     18  C   UNL     1      -2.784  -1.980   1.564  0.00  0.00    +0.067 C 
ATOM     19  H   UNL     1      -0.208  -1.735   2.706  0.00  0.00    +0.194 HD
ENDBRANCH   9  14
ENDBRANCH   3   9
ENDBRANCH   1   6
BRANCH   1  20
ATOM     20  C   UNL     1      -3.695  -3.958  -6.563  0.00  0.00    +0.216 C 
ATOM     21  O   UNL     1      -3.436  -4.761  -5.693  0.00  0.00    -0.276 OA
ATOM     22  N   UNL     1      -4.335  -4.356  -7.680  0.00  0.00    -0.315 N 
ATOM     23  H   UNL     1      -4.542  -3.714  -8.376  0.00  0.00    +0.149 HD
BRANCH  22  24
ATOM     24  C   UNL     1      -4.718  -5.761  -7.842  0.00  0.00    +0.108 C 
BRANCH  24  25
ATOM     25  C   UNL     1      -5.426  -5.945  -9.187  0.00  0.00    +0.052 C 
BRANCH  25  26
ATOM     26  C   UNL     1      -5.820  -7.389  -9.354  0.00  0.00    -0.040 C 
ATOM     27  C   UNL     1      -7.019  -7.944  -9.063  0.00  0.00    -0.001 A 
ATOM     28  C   UNL     1      -8.266  -7.389  -8.523  0.00  0.00    +0.010 A 
ATOM     29  C   UNL     1      -9.323  -8.213  -8.336  0.00  0.00    +0.001 A 
ATOM     30  C   UNL     1      -9.257  -9.579  -8.643  0.00  0.00    +0.002 A 
ATOM     31  C   UNL     1      -8.146 -10.161  -9.141  0.00  0.00    +0.026 A 
ATOM     32  C   UNL     1      -6.975  -9.390  -9.379  0.00  0.00    +0.043 A 
ATOM     33  N   UNL     1      -5.795  -9.716  -9.847  0.00  0.00    -0.380 N 
ATOM     34  C   UNL     1      -4.958  -8.512  -9.886  0.00  0.00    +0.144 C 
ATOM     35  H   UNL     1      -5.522 -10.604 -10.125  0.00  0.00    +0.160 HD
ENDBRANCH  25  26
ENDBRANCH  24  25
ENDBRANCH  22  24
ENDBRANCH   1  20
TORSDOF 7
