REMARK  Name = ZINC21237494
REMARK  7 active torsions:
REMARK  status: ('A' for Active; 'I' for Inactive)
REMARK    1  A    between atoms: C_1  and  C_2
REMARK    2  A    between atoms: C_2  and  C_3
REMARK    3  A    between atoms: C_2  and  C_4
REMARK    4  A    between atoms: C_4  and  O_5
REMARK    5  A    between atoms: O_5  and  C_6
REMARK    6  A    between atoms: C_9  and  C_12
REMARK    7  A    between atoms: C_17  and  C_27
REMARK                            x       y       z     vdW  Elec       q    Type
REMARK                         _______ _______ _______ _____ _____    ______ ____
ROOT
ATOM      1  C   UNL     1      -5.279   4.676  -4.107  0.00  0.00    +0.032 C 
ATOM      2  C   UNL     1      -6.577   4.117  -3.526  0.00  0.00    +0.059 C 
ATOM      3  C   UNL     1      -6.330   3.574  -2.129  0.00  0.00    +0.017 C 
ATOM      4  C   UNL     1      -5.399   4.128  -1.335  0.00  0.00    +0.037 C 
ATOM      5  C   UNL     1      -5.059   3.693   0.070  0.00  0.00    +0.143 C 
ATOM      6  N   UNL     1      -5.998   2.759   0.655  0.00  0.00    -0.331 N 
ATOM      7  C   UNL     1      -6.166   1.482   0.123  0.00  0.00    +0.049 A 
ATOM      8  C   UNL     1      -5.770   0.351   0.819  0.00  0.00    +0.025 A 
ATOM      9  C   UNL     1      -5.851  -0.887   0.206  0.00  0.00    +0.002 A 
ATOM     10  C   UNL     1      -6.323  -0.998  -1.089  0.00  0.00    +0.002 A 
ATOM     11  C   UNL     1      -6.739   0.128  -1.779  0.00  0.00    +0.025 A 
ATOM     12  C   UNL     1      -6.676   1.365  -1.161  0.00  0.00    +0.052 A 
ATOM     13  N   UNL     1      -7.122   2.528  -1.777  0.00  0.00    -0.316 N 
ATOM     14  C   UNL     1      -4.629   5.223  -1.796  0.00  0.00    +0.163 C 
ATOM     15  O   UNL     1      -3.807   5.718  -1.051  0.00  0.00    -0.292 OA
ATOM     16  C   UNL     1      -4.793   5.792  -3.174  0.00  0.00    +0.088 C 
ATOM     17  H   UNL     1      -6.592   3.054   1.532  0.00  0.00    +0.147 HD
ATOM     18  H   UNL     1      -8.203   2.565  -1.977  0.00  0.00    +0.152 HD
ENDROOT
BRANCH   5  19
ATOM     19  C   UNL     1      -3.695   3.051   0.054  0.00  0.00    +0.059 A 
ATOM     20  C   UNL     1      -3.156   2.635  -1.106  0.00  0.00    +0.205 A 
ATOM     21  O   UNL     1      -1.952   2.060  -1.182  0.00  0.00    -0.462 OA
ATOM     22  C   UNL     1      -1.178   1.857  -0.096  0.00  0.00    +0.138 A 
ATOM     23  C   UNL     1       0.068   1.252  -0.207  0.00  0.00    +0.047 A 
ATOM     24  C   UNL     1       0.837   1.049   0.918  0.00  0.00    +0.004 A 
ATOM     25  C   UNL     1       0.380   1.440   2.169  0.00  0.00    +0.001 A 
ATOM     26  C   UNL     1      -0.855   2.037   2.302  0.00  0.00    +0.015 A 
ATOM     27  C   UNL     1      -1.643   2.246   1.171  0.00  0.00    +0.064 A 
ATOM     28  C   UNL     1      -2.971   2.882   1.264  0.00  0.00    +0.198 A 
ATOM     29  O   UNL     1      -3.428   3.247   2.334  0.00  0.00    -0.287 OA
ENDBRANCH   5  19
BRANCH   1  33
ATOM     30  C   UNL     1      -6.003   6.261  -8.008  0.00  0.00    +0.121 A 
ATOM     31  C   UNL     1      -5.068   5.253  -7.831  0.00  0.00    +0.046 A 
ATOM     32  C   UNL     1      -4.835   4.742  -6.569  0.00  0.00    +0.007 A 
ATOM     33  C   UNL     1      -5.535   5.235  -5.483  0.00  0.00    -0.043 A 
ATOM     34  C   UNL     1      -6.472   6.236  -5.657  0.00  0.00    +0.007 A 
ATOM     35  C   UNL     1      -6.704   6.755  -6.917  0.00  0.00    +0.046 A 
BRANCH  30  36
ATOM     36  O   UNL     1      -6.233   6.766  -9.249  0.00  0.00    -0.492 OA
BRANCH  36  37
ATOM     37  C   UNL     1      -7.211   7.803  -9.357  0.00  0.00    +0.232 C 
BRANCH  37  39
ATOM     38  C   UNL     1      -7.876   7.082 -11.654  0.00  0.00    +0.010 C 
ATOM     39  C   UNL     1      -7.331   8.241 -10.818  0.00  0.00    +0.020 C 
ATOM     40  C   UNL     1      -8.284   9.434 -10.916  0.00  0.00    +0.010 C 
ENDBRANCH  37  39
ENDBRANCH  36  37
ENDBRANCH  30  36
ENDBRANCH   1  33
TORSDOF 5
