REMARK  Name = ZINC01228698
REMARK  3 active torsions:
REMARK  status: ('A' for Active; 'I' for Inactive)
REMARK    1  A    between atoms: C_3  and  N_19
REMARK    2  A    between atoms: C_6  and  C_7
REMARK    3  A    between atoms: C_12  and  C_15
REMARK                            x       y       z     vdW  Elec       q    Type
REMARK                         _______ _______ _______ _____ _____    ______ ____
ROOT
ATOM      1  C   UNL     1      -2.197   1.259   1.222  0.00  0.00    +0.052 C 
ATOM      2  N   UNL     1      -2.928   1.018   0.197  0.00  0.00    -0.227 NA
ATOM      3  C   UNL     1      -2.485   0.981  -1.088  0.00  0.00    +0.182 C 
ATOM      4  N   UNL     1      -3.205   0.432  -2.031  0.00  0.00    -0.276 NA
ATOM      5  S   UNL     1      -0.906   1.695  -1.452  0.00  0.00    -0.079 S 
ATOM      6  C   UNL     1      -0.013   1.086   0.008  0.00  0.00    +0.111 C 
ATOM      7  C   UNL     1      -0.741   1.585   1.257  0.00  0.00    +0.075 C 
ATOM      8  H   UNL     1      -4.069   0.044  -1.818  0.00  0.00    +0.189 HD
ENDROOT
BRANCH   1  14
ATOM      9  C   UNL     1      -2.160   1.449   3.703  0.00  0.00    +0.012 A 
ATOM     10  C   UNL     1      -2.806   1.404   4.920  0.00  0.00    +0.033 A 
ATOM     11  C   UNL     1      -4.157   1.109   4.980  0.00  0.00    +0.126 A 
ATOM     12  C   UNL     1      -4.872   0.861   3.821  0.00  0.00    +0.033 A 
ATOM     13  C   UNL     1      -4.242   0.908   2.595  0.00  0.00    +0.012 A 
ATOM     14  C   UNL     1      -2.877   1.207   2.526  0.00  0.00    -0.004 A 
BRANCH  11  15
ATOM     15  N   UNL     1      -4.841   1.057   6.292  0.00  0.00    +0.056 N 
ATOM     16  O   UNL     1      -6.030   0.797   6.349  0.00  0.00    -0.126 OA
ATOM     17  O   UNL     1      -4.216   1.274   7.314  0.00  0.00    -0.126 OA
ENDBRANCH  11  15
ENDBRANCH   1  14
BRANCH   6  18
ATOM     18  C   UNL     1       1.420   1.621  -0.003  0.00  0.00    +0.203 C 
ATOM     19 CL   UNL     1       2.295   1.028   1.458  0.00  0.00    -0.082 Cl
ATOM     20 CL   UNL     1       2.267   1.044  -1.486  0.00  0.00    -0.082 Cl
ATOM     21 CL   UNL     1       1.388   3.424   0.007  0.00  0.00    -0.082 Cl
ENDBRANCH   6  18
TORSDOF 3
