REMARK  Name = ZINC36586863
REMARK  14 active torsions:
REMARK  status: ('A' for Active; 'I' for Inactive)
REMARK    1  A    between atoms: C_1  and  C_2
REMARK    2  A    between atoms: C_2  and  C_3
REMARK    3  A    between atoms: C_3  and  C_4
REMARK    4  A    between atoms: C_4  and  N_5
REMARK    5  A    between atoms: C_6  and  C_8
REMARK    6  A    between atoms: C_8  and  C_10
REMARK    7  A    between atoms: C_8  and  N_16
REMARK    8  A    between atoms: N_16  and  C_27
REMARK    9  A    between atoms: C_17  and  C_19
REMARK   10  A    between atoms: C_23  and  O_26
REMARK   11  A    between atoms: C_24  and  O_25
REMARK   12  A    between atoms: C_27  and  C_28
REMARK   13  A    between atoms: C_27  and  C_29
REMARK   14  A    between atoms: C_27  and  C_30
REMARK                            x       y       z     vdW  Elec       q    Type
REMARK                         _______ _______ _______ _____ _____    ______ ____
ROOT
ATOM      1  N   UNL     1       1.216  -5.963  -3.566  0.00  0.00    -0.281 N 
ATOM      2  C   UNL     1       2.437  -6.473  -3.312  0.00  0.00    +0.251 C 
ATOM      3  O   UNL     1       2.830  -7.445  -3.927  0.00  0.00    -0.270 OA
ENDROOT
BRANCH   2   4
ATOM      4  C   UNL     1       3.298  -5.852  -2.287  0.00  0.00    +0.082 A 
ATOM      5  C   UNL     1       3.351  -4.461  -2.163  0.00  0.00    +0.017 A 
ATOM      6  C   UNL     1       4.155  -3.884  -1.204  0.00  0.00    +0.005 A 
ATOM      7  C   UNL     1       4.915  -4.677  -0.359  0.00  0.00    +0.049 A 
ATOM      8  C   UNL     1       4.874  -6.056  -0.470  0.00  0.00    +0.159 A 
ATOM      9  C   UNL     1       4.061  -6.653  -1.430  0.00  0.00    +0.171 A 
BRANCH   9  10
ATOM     10  O   UNL     1       4.014  -8.006  -1.538  0.00  0.00    -0.503 OA
ATOM     11  H   UNL     1       4.670  -8.375  -2.144  0.00  0.00    +0.292 HD
ENDBRANCH   9  10
BRANCH   8  12
ATOM     12  O   UNL     1       5.623  -6.828   0.363  0.00  0.00    -0.503 OA
ATOM     13  H   UNL     1       5.171  -7.078   1.180  0.00  0.00    +0.292 HD
ENDBRANCH   8  12
ENDBRANCH   2   4
BRANCH   1  14
ATOM     14  C   UNL     1       0.116  -6.851  -3.946  0.00  0.00    +0.030 C 
ATOM     15  C   UNL     1      -1.138  -6.019  -4.227  0.00  0.00    +0.031 C 
ATOM     16  C   UNL     1       0.502  -7.632  -5.204  0.00  0.00    +0.031 C 
ATOM     17  C   UNL     1      -0.167  -7.830  -2.805  0.00  0.00    +0.031 C 
ENDBRANCH   1  14
BRANCH   1  18
ATOM     18  C   UNL     1       0.990  -4.519  -3.461  0.00  0.00    +0.166 C 
BRANCH  18  19
ATOM     19  C   UNL     1       1.989  -3.780  -4.354  0.00  0.00    +0.019 C 
ATOM     20  C   UNL     1       1.787  -2.271  -4.204  0.00  0.00    +0.006 C 
ATOM     21  C   UNL     1       2.786  -1.532  -5.097  0.00  0.00    +0.000 C 
ATOM     22  C   UNL     1       2.561  -1.934  -6.556  0.00  0.00    +0.000 C 
ATOM     23  C   UNL     1       2.763  -3.443  -6.705  0.00  0.00    +0.000 C 
ATOM     24  C   UNL     1       1.764  -4.182  -5.813  0.00  0.00    +0.006 C 
ENDBRANCH  18  19
BRANCH  18  26
ATOM     25  N   UNL     1       1.012  -2.789  -1.693  0.00  0.00    -0.314 N 
ATOM     26  C   UNL     1       1.176  -4.083  -2.031  0.00  0.00    +0.234 C 
ATOM     27  O   UNL     1       1.474  -4.898  -1.183  0.00  0.00    -0.274 OA
ATOM     28  H   UNL     1       0.804  -2.132  -2.376  0.00  0.00    +0.149 HD
BRANCH  25  29
ATOM     29  C   UNL     1       1.149  -2.373  -0.295  0.00  0.00    +0.104 C 
BRANCH  29  30
ATOM     30  C   UNL     1       0.916  -0.865  -0.187  0.00  0.00    +0.018 C 
BRANCH  30  32
ATOM     31  C   UNL     1       0.827   1.078   1.382  0.00  0.00    +0.004 C 
ATOM     32  C   UNL     1       1.059  -0.431   1.274  0.00  0.00    -0.002 C 
ENDBRANCH  30  32
ENDBRANCH  29  30
ENDBRANCH  25  29
ENDBRANCH  18  26
ENDBRANCH   1  18
TORSDOF 10
