REMARK  Name = ZINC39630980
REMARK  10 active torsions:
REMARK  status: ('A' for Active; 'I' for Inactive)
REMARK    1  A    between atoms: C_1  and  C_2
REMARK    2  A    between atoms: C_2  and  C_3
REMARK    3  A    between atoms: C_2  and  C_4
REMARK    4  A    between atoms: C_2  and  C_30
REMARK    5  A    between atoms: C_4  and  N_5
REMARK    6  A    between atoms: C_6  and  C_8
REMARK    7  A    between atoms: C_19  and  C_21
REMARK    8  A    between atoms: C_30  and  N_31
REMARK    9  A    between atoms: N_31  and  C_32
REMARK   10  A    between atoms: N_31  and  C_33
REMARK                            x       y       z     vdW  Elec       q    Type
REMARK                         _______ _______ _______ _____ _____    ______ ____
ROOT
ATOM      1  C   UNL     1      -5.729   1.425   1.927  0.00  0.00    +0.100 C 
ATOM      2  C   UNL     1      -5.262   0.843   3.280  0.00  0.00    +0.121 C 
ATOM      3  N   UNL     1      -6.508   0.383   3.939  0.00  0.00    -0.296 N 
ATOM      4  C   UNL     1      -7.310  -0.207   2.840  0.00  0.00    +0.115 C 
ATOM      5  C   UNL     1      -7.072   0.733   1.641  0.00  0.00    -0.004 C 
ATOM      6  C   UNL     1      -6.987  -0.073   0.348  0.00  0.00    -0.010 C 
ATOM      7  C   UNL     1      -8.351  -0.704   0.055  0.00  0.00    -0.082 C 
ATOM      8  N   UNL     1      -9.364   0.351  -0.068  0.00  0.00    +0.379 N 
ATOM      9  C   UNL     1      -9.505   1.061   1.209  0.00  0.00    -0.082 C 
ATOM     10  C   UNL     1      -8.190   1.767   1.551  0.00  0.00    -0.010 C 
ATOM     11  C   UNL     1      -6.837   0.479   5.242  0.00  0.00    +0.248 C 
ATOM     12  O   UNL     1      -7.865  -0.029   5.649  0.00  0.00    -0.270 OA
ATOM     13  H   UNL     1      -9.083   1.004  -0.785  0.00  0.00    -0.086 HD
ATOM     14  H   UNL     1     -10.249  -0.062  -0.322  0.00  0.00    -0.086 HD
ENDROOT
BRANCH  11  15
ATOM     15  C   UNL     1      -5.955   1.196   6.171  0.00  0.00    +0.052 A 
ATOM     16  C   UNL     1      -4.603   1.119   6.055  0.00  0.00    +0.059 A 
ATOM     17  S   UNL     1      -3.994   2.071   7.294  0.00  0.00    -0.096 S 
ATOM     18  C   UNL     1      -5.504   2.626   8.035  0.00  0.00    +0.020 A 
ATOM     19  C   UNL     1      -6.504   2.023   7.248  0.00  0.00    +0.001 A 
ATOM     20  C   UNL     1      -7.843   2.285   7.594  0.00  0.00    +0.010 A 
ATOM     21  C   UNL     1      -8.139   3.103   8.657  0.00  0.00    +0.001 A 
ATOM     22  C   UNL     1      -7.135   3.688   9.414  0.00  0.00    +0.001 A 
ATOM     23  C   UNL     1      -5.812   3.440   9.104  0.00  0.00    +0.015 A 
ENDBRANCH  11  15
BRANCH   1  25
ATOM     24  N   UNL     1      -4.658   1.874  -0.258  0.00  0.00    -0.315 N 
ATOM     25  C   UNL     1      -4.731   1.102   0.845  0.00  0.00    +0.218 C 
ATOM     26  O   UNL     1      -3.994   0.146   0.966  0.00  0.00    -0.275 OA
ATOM     27  H   UNL     1      -5.248   2.638  -0.354  0.00  0.00    +0.149 HD
BRANCH  24  28
ATOM     28  C   UNL     1      -3.688   1.559  -1.310  0.00  0.00    +0.108 C 
BRANCH  28  30
ATOM     29  C   UNL     1      -5.227   2.534  -3.020  0.00  0.00    +0.010 C 
ATOM     30  C   UNL     1      -3.812   2.583  -2.440  0.00  0.00    -0.034 C 
ATOM     31  C   UNL     1      -3.534   3.984  -1.892  0.00  0.00    +0.010 C 
BRANCH  30  32
ATOM     32  C   UNL     1      -2.799   2.254  -3.539  0.00  0.00    -0.072 C 
BRANCH  32  33
ATOM     33  N   UNL     1      -2.874   3.274  -4.594  0.00  0.00    +0.376 N 
ATOM     34  C   UNL     1      -2.009   4.408  -4.240  0.00  0.00    -0.097 C 
ATOM     35  C   UNL     1      -2.425   2.694  -5.867  0.00  0.00    -0.097 C 
ATOM     36  H   UNL     1      -3.826   3.593  -4.687  0.00  0.00    -0.083 HD
ENDBRANCH  32  33
ENDBRANCH  30  32
ENDBRANCH  28  30
ENDBRANCH  24  28
ENDBRANCH   1  25
TORSDOF 6
