REMARK  Name = ZINC20685380
REMARK  9 active torsions:
REMARK  status: ('A' for Active; 'I' for Inactive)
REMARK    1  A    between atoms: C_1  and  C_2
REMARK    2  A    between atoms: C_3  and  N_9
REMARK    3  A    between atoms: N_9  and  C_10
REMARK    4  A    between atoms: C_10  and  N_12
REMARK    5  A    between atoms: N_12  and  N_13
REMARK    6  A    between atoms: N_21  and  C_24
REMARK    7  A    between atoms: C_24  and  N_25
REMARK    8  A    between atoms: C_27  and  C_34
REMARK    9  A    between atoms: C_30  and  C_33
REMARK                            x       y       z     vdW  Elec       q    Type
REMARK                         _______ _______ _______ _____ _____    ______ ____
ROOT
ATOM      1  N   UNL     1       0.162   1.430  -4.729  0.00  0.00    -0.175 NA
ATOM      2  C   UNL     1       0.246   2.095  -5.857  0.00  0.00    +0.153 C 
ATOM      3  C   UNL     1       0.248   3.565  -6.040  0.00  0.00    +0.028 A 
ATOM      4  C   UNL     1       0.167   4.635  -5.155  0.00  0.00    +0.012 A 
ATOM      5  C   UNL     1       0.194   5.928  -5.638  0.00  0.00    +0.001 A 
ATOM      6  C   UNL     1       0.301   6.157  -7.000  0.00  0.00    +0.002 A 
ATOM      7  C   UNL     1       0.382   5.102  -7.886  0.00  0.00    +0.024 A 
ATOM      8  C   UNL     1       0.356   3.793  -7.417  0.00  0.00    +0.047 A 
ATOM      9  N   UNL     1       0.420   2.572  -8.081  0.00  0.00    -0.252 N 
ATOM     10  C   UNL     1       0.367   1.542  -7.220  0.00  0.00    +0.272 C 
ATOM     11  O   UNL     1       0.407   0.361  -7.512  0.00  0.00    -0.268 OA
ENDROOT
BRANCH   1  12
ATOM     12  N   UNL     1       0.182   0.029  -4.739  0.00  0.00    -0.217 N 
ATOM     13  H   UNL     1       0.258  -0.449  -5.580  0.00  0.00    +0.176 HD
BRANCH  12  14
ATOM     14  C   UNL     1       0.095  -0.654  -3.581  0.00  0.00    +0.154 C 
ATOM     15  S   UNL     1       0.119  -2.365  -3.592  0.00  0.00    -0.017 S 
BRANCH  14  16
ATOM     16  N   UNL     1      -0.010   0.011  -2.413  0.00  0.00    -0.295 N 
ATOM     17  H   UNL     1      -0.103   0.976  -2.411  0.00  0.00    +0.154 HD
BRANCH  16  20
ATOM     18  C   UNL     1      -1.912   0.706  -0.414  0.00  0.00    +0.047 C 
ATOM     19  C   UNL     1      -0.895  -0.385  -0.201  0.00  0.00    -0.011 A 
ATOM     20  C   UNL     1       0.016  -0.692  -1.204  0.00  0.00    +0.037 A 
ATOM     21  C   UNL     1       0.952  -1.698  -1.004  0.00  0.00    +0.023 A 
ATOM     22  C   UNL     1       0.975  -2.391   0.191  0.00  0.00    +0.003 A 
ATOM     23  C   UNL     1       0.067  -2.084   1.188  0.00  0.00    +0.020 A 
ATOM     24  C   UNL     1      -0.864  -1.078   0.994  0.00  0.00    +0.046 A 
ATOM     25 CL   UNL     1      -1.997  -0.690   2.251  0.00  0.00    -0.083 Cl
ENDBRANCH  16  20
ENDBRANCH  14  16
ENDBRANCH  12  14
ENDBRANCH   1  12
BRANCH   9  26
ATOM     26  C   UNL     1       0.538   2.428  -9.534  0.00  0.00    +0.201 C 
BRANCH  26  27
ATOM     27  N   UNL     1       1.958   2.393  -9.909  0.00  0.00    -0.286 NA
ATOM     28  C   UNL     1       2.521   3.748  -9.966  0.00  0.00    +0.089 C 
ATOM     29  C   UNL     1       4.029   3.665 -10.216  0.00  0.00    +0.000 C 
ATOM     30  C   UNL     1       4.283   2.930 -11.535  0.00  0.00    +0.009 C 
ATOM     31  C   UNL     1       3.645   1.540 -11.467  0.00  0.00    +0.000 C 
ATOM     32  C   UNL     1       2.148   1.685 -11.181  0.00  0.00    +0.089 C 
ATOM     33  C   UNL     1       3.843   0.821 -12.803  0.00  0.00    +0.009 C 
ATOM     34  C   UNL     1       4.611   5.077 -10.296  0.00  0.00    +0.009 C 
ENDBRANCH  26  27
ENDBRANCH   9  26
TORSDOF 6
