REMARK  Name = ZINC41491596
REMARK  8 active torsions:
REMARK  status: ('A' for Active; 'I' for Inactive)
REMARK    1  A    between atoms: C_1  and  C_2
REMARK    2  A    between atoms: C_2  and  C_3
REMARK    3  A    between atoms: C_8  and  N_9
REMARK    4  A    between atoms: C_10  and  C_12
REMARK    5  A    between atoms: N_14  and  C_15
REMARK    6  A    between atoms: C_15  and  C_16
REMARK    7  A    between atoms: C_24  and  C_31
REMARK    8  A    between atoms: C_27  and  C_30
REMARK                            x       y       z     vdW  Elec       q    Type
REMARK                         _______ _______ _______ _____ _____    ______ ____
ROOT
ATOM      1  C   UNL     1      -1.455  -0.290  -4.851  0.00  0.00    +0.300 C 
ATOM      2  O   UNL     1      -0.320   0.138  -4.857  0.00  0.00    -0.265 OA
ATOM      3  N   UNL     1      -2.098  -0.514  -6.014  0.00  0.00    -0.303 N 
ATOM      4  H   UNL     1      -3.005  -0.856  -6.009  0.00  0.00    +0.149 HD
ENDROOT
BRANCH   1   6
ATOM      5  N   UNL     1      -1.499  -0.344  -2.390  0.00  0.00    -0.278 N 
ATOM      6  C   UNL     1      -2.141  -0.568  -3.553  0.00  0.00    +0.303 C 
ATOM      7  O   UNL     1      -3.277  -0.996  -3.547  0.00  0.00    -0.265 OA
ATOM      8  H   UNL     1      -0.615   0.056  -2.393  0.00  0.00    +0.155 HD
BRANCH   5  14
ATOM      9  C   UNL     1      -1.334  -1.157  -0.123  0.00  0.00    -0.026 A 
ATOM     10  C   UNL     1      -1.937  -1.492   1.074  0.00  0.00    +0.005 A 
ATOM     11  C   UNL     1      -3.306  -1.367   1.220  0.00  0.00    +0.000 A 
ATOM     12  C   UNL     1      -4.077  -0.906   0.168  0.00  0.00    +0.002 A 
ATOM     13  C   UNL     1      -3.482  -0.570  -1.032  0.00  0.00    +0.023 A 
ATOM     14  C   UNL     1      -2.105  -0.689  -1.179  0.00  0.00    +0.037 A 
BRANCH   9  16
ATOM     15  C   UNL     1       0.828   0.048   0.018  0.00  0.00    +0.009 C 
ATOM     16  C   UNL     1       0.158  -1.295  -0.281  0.00  0.00    +0.033 C 
ENDBRANCH   9  16
ENDBRANCH   5  14
ENDBRANCH   1   6
BRANCH   3  17
ATOM     17  C   UNL     1      -1.425  -0.241  -7.287  0.00  0.00    +0.141 C 
BRANCH  17  18
ATOM     18  C   UNL     1      -2.353  -0.573  -8.427  0.00  0.00    -0.014 A 
ATOM     19  C   UNL     1      -2.366  -1.851  -8.971  0.00  0.00    +0.010 A 
ATOM     20  C   UNL     1      -3.232  -2.114 -10.016  0.00  0.00    +0.042 A 
ATOM     21  C   UNL     1      -4.057  -1.095 -10.485  0.00  0.00    +0.099 A 
ATOM     22  N   UNL     1      -4.015   0.110  -9.939  0.00  0.00    -0.349 N 
ATOM     23  C   UNL     1      -3.202   0.388  -8.937  0.00  0.00    +0.089 A 
ATOM     24  N   UNL     1      -4.932  -1.346 -11.535  0.00  0.00    -0.312 N 
ATOM     25  C   UNL     1      -5.094  -2.704 -12.078  0.00  0.00    +0.137 C 
ATOM     26  C   UNL     1      -4.940  -2.636 -13.602  0.00  0.00    +0.133 C 
ATOM     27  O   UNL     1      -5.820  -1.636 -14.120  0.00  0.00    -0.371 OA
ATOM     28  C   UNL     1      -5.540  -0.313 -13.656  0.00  0.00    +0.133 C 
ATOM     29  C   UNL     1      -5.729  -0.262 -12.132  0.00  0.00    +0.137 C 
ATOM     30  C   UNL     1      -6.498   0.676 -14.323  0.00  0.00    +0.039 C 
ATOM     31  C   UNL     1      -5.293  -3.994 -14.212  0.00  0.00    +0.039 C 
ATOM     32  H   UNL     1      -4.598   0.805 -10.282  0.00  0.00    +0.167 HD
ENDBRANCH  17  18
ENDBRANCH   3  17
TORSDOF 5
