REMARK  Name = ZINC40178037
REMARK  12 active torsions:
REMARK  status: ('A' for Active; 'I' for Inactive)
REMARK    1  A    between atoms: C_1  and  C_2
REMARK    2  A    between atoms: C_2  and  C_3
REMARK    3  A    between atoms: C_3  and  O_4
REMARK    4  A    between atoms: O_4  and  C_5
REMARK    5  A    between atoms: C_8  and  C_11
REMARK    6  A    between atoms: C_13  and  S_25
REMARK    7  A    between atoms: C_14  and  N_16
REMARK    8  A    between atoms: N_16  and  C_17
REMARK    9  A    between atoms: C_17  and  C_18
REMARK   10  A    between atoms: C_18  and  C_19
REMARK   11  A    between atoms: C_19  and  N_20
REMARK   12  A    between atoms: S_25  and  C_28
REMARK                            x       y       z     vdW  Elec       q    Type
REMARK                         _______ _______ _______ _____ _____    ______ ____
ROOT
ATOM      1  C   UNL     1      -6.374  -4.575   0.040  0.00  0.00    +0.231 A 
ATOM      2  N   UNL     1      -6.554  -5.875   0.045  0.00  0.00    -0.188 NA
ATOM      3  C   UNL     1      -7.872  -6.128   0.054  0.00  0.00    +0.243 A 
ATOM      4  C   UNL     1      -8.520  -4.939   0.054  0.00  0.00    +0.233 A 
ATOM      5  O   UNL     1      -7.579  -3.973   0.051  0.00  0.00    -0.420 OA
ENDROOT
BRANCH   1   9
ATOM      6  C   UNL     1      -2.616  -2.596   0.013  0.00  0.00    +0.121 A 
ATOM      7  C   UNL     1      -3.790  -1.853   0.023  0.00  0.00    +0.046 A 
ATOM      8  C   UNL     1      -5.011  -2.492   0.031  0.00  0.00    +0.017 A 
ATOM      9  C   UNL     1      -5.067  -3.887   0.030  0.00  0.00    +0.037 A 
ATOM     10  C   UNL     1      -3.885  -4.630   0.020  0.00  0.00    +0.017 A 
ATOM     11  C   UNL     1      -2.667  -3.983   0.006  0.00  0.00    +0.046 A 
BRANCH   6  12
ATOM     12  O   UNL     1      -1.414  -1.962   0.005  0.00  0.00    -0.492 OA
BRANCH  12  13
ATOM     13  C   UNL     1      -1.433  -0.534   0.013  0.00  0.00    +0.229 C 
BRANCH  13  15
ATOM     14  C   UNL     1      -0.019   1.526   0.010  0.00  0.00    +0.007 C 
ATOM     15  C   UNL     1       0.002  -0.004   0.002  0.00  0.00    +0.038 C 
ENDBRANCH  13  15
ENDBRANCH  12  13
ENDBRANCH   6  12
ENDBRANCH   1   9
BRANCH   3  16
ATOM     16  S   UNL     1      -8.624  -7.721   0.064  0.00  0.00    +0.047 S 
ATOM     17  O   UNL     1      -9.927  -7.559  -0.480  0.00  0.00    -0.163 OA
ATOM     18  O   UNL     1      -7.674  -8.622  -0.490  0.00  0.00    -0.163 OA
BRANCH  16  19
ATOM     19  C   UNL     1      -8.836  -8.187   1.750  0.00  0.00    +0.099 A 
ATOM     20  C   UNL     1      -7.834  -8.875   2.407  0.00  0.00    +0.031 A 
ATOM     21  C   UNL     1      -7.998  -9.243   3.729  0.00  0.00    +0.051 A 
ATOM     22  C   UNL     1      -9.168  -8.921   4.400  0.00  0.00    +0.162 A 
ATOM     23  C   UNL     1     -10.175  -8.227   3.740  0.00  0.00    +0.164 A 
ATOM     24  C   UNL     1     -10.003  -7.858   2.414  0.00  0.00    +0.076 A 
ATOM     25  O   UNL     1     -11.328  -7.894   4.382  0.00  0.00    -0.485 OA
ATOM     26  C   UNL     1     -11.615  -8.598   5.595  0.00  0.00    +0.270 C 
ATOM     27  C   UNL     1     -10.340  -8.627   6.448  0.00  0.00    +0.270 C 
ATOM     28  O   UNL     1      -9.316  -9.293   5.701  0.00  0.00    -0.485 OA
ENDBRANCH  16  19
ENDBRANCH   3  16
BRANCH   4  29
ATOM     29  N   UNL     1      -9.899  -4.749   0.062  0.00  0.00    -0.312 N 
ATOM     30  H   UNL     1     -10.493  -5.515   0.068  0.00  0.00    +0.149 HD
BRANCH  29  31
ATOM     31  C   UNL     1     -10.451  -3.392   0.061  0.00  0.00    +0.106 C 
BRANCH  31  32
ATOM     32  C   UNL     1     -11.979  -3.464   0.071  0.00  0.00    +0.040 C 
BRANCH  32  33
ATOM     33  C   UNL     1     -12.557  -2.047   0.070  0.00  0.00    +0.124 C 
BRANCH  33  34
ATOM     34  N   UNL     1     -14.020  -2.116   0.079  0.00  0.00    -0.338 N 
ATOM     35  C   UNL     1     -14.838  -2.164  -1.017  0.00  0.00    +0.104 A 
ATOM     36  C   UNL     1     -16.103  -2.220  -0.558  0.00  0.00    +0.101 A 
ATOM     37  N   UNL     1     -16.058  -2.208   0.783  0.00  0.00    -0.352 N 
ATOM     38  C   UNL     1     -14.814  -2.150   1.171  0.00  0.00    +0.173 A 
ATOM     39  H   UNL     1     -16.829  -2.240   1.370  0.00  0.00    +0.166 HD
ENDBRANCH  33  34
ENDBRANCH  32  33
ENDBRANCH  31  32
ENDBRANCH  29  31
ENDBRANCH   4  29
TORSDOF 11
