REMARK  Name = ZINC66803020
REMARK  5 active torsions:
REMARK  status: ('A' for Active; 'I' for Inactive)
REMARK    1  A    between atoms: C_3  and  C_10
REMARK    2  A    between atoms: C_5  and  N_7
REMARK    3  A    between atoms: C_11  and  C_12
REMARK    4  A    between atoms: N_14  and  C_15
REMARK    5  A    between atoms: C_18  and  C_21
REMARK                            x       y       z     vdW  Elec       q    Type
REMARK                         _______ _______ _______ _____ _____    ______ ____
ROOT
ATOM      1  C   UNL     1       4.842   4.360   0.517  0.00  0.00    +0.241 C 
ATOM      2  O   UNL     1       5.847   3.868   0.996  0.00  0.00    -0.270 OA
ATOM      3  N   UNL     1       4.885   5.597  -0.016  0.00  0.00    -0.282 N 
ATOM      4  H   UNL     1       4.102   5.962  -0.457  0.00  0.00    +0.155 HD
ENDROOT
BRANCH   3   5
ATOM      5  C   UNL     1       6.056   6.352   0.066  0.00  0.00    +0.034 A 
ATOM      6  C   UNL     1       7.294   5.725  -0.023  0.00  0.00    +0.024 A 
ATOM      7  C   UNL     1       8.451   6.468   0.057  0.00  0.00    +0.013 A 
ATOM      8  C   UNL     1       8.381   7.852   0.229  0.00  0.00    +0.019 A 
ATOM      9  C   UNL     1       7.136   8.479   0.319  0.00  0.00    +0.013 A 
ATOM     10  C   UNL     1       5.982   7.731   0.232  0.00  0.00    +0.024 A 
BRANCH   8  11
ATOM     11  C   UNL     1       9.621   8.652   0.316  0.00  0.00    +0.164 A 
ATOM     12  N   UNL     1       9.734   9.879   0.784  0.00  0.00    -0.129 NA
ATOM     13  N   UNL     1      10.962  10.263   0.710  0.00  0.00    -0.134 NA
ATOM     14  C   UNL     1      11.691   9.317   0.199  0.00  0.00    +0.134 A 
ATOM     15  N   UNL     1      10.867   8.262  -0.065  0.00  0.00    -0.311 N 
ATOM     16  C   UNL     1      11.296   6.992  -0.648  0.00  0.00    +0.125 C 
ATOM     17  C   UNL     1      12.677   7.186  -1.287  0.00  0.00    +0.022 C 
ATOM     18  C   UNL     1      13.618   7.859  -0.284  0.00  0.00    +0.009 C 
ATOM     19  C   UNL     1      13.174   9.315  -0.074  0.00  0.00    +0.076 C 
ENDBRANCH   8  11
ENDBRANCH   3   5
BRANCH   1  21
ATOM     20  C   UNL     1       3.543   2.369   1.052  0.00  0.00    +0.013 C 
ATOM     21  C   UNL     1       3.586   3.607   0.519  0.00  0.00    +0.068 C 
BRANCH  20  24
ATOM     22  C   UNL     1      -0.055   1.457   0.510  0.00  0.00    +0.003 A 
ATOM     23  C   UNL     1       1.124   2.173   0.505  0.00  0.00    +0.008 A 
ATOM     24  C   UNL     1       2.281   1.612   1.054  0.00  0.00    -0.023 A 
ATOM     25  C   UNL     1       2.232   0.328   1.606  0.00  0.00    +0.040 A 
ATOM     26  C   UNL     1       1.046  -0.375   1.604  0.00  0.00    +0.127 A 
ATOM     27  C   UNL     1      -0.095   0.187   1.058  0.00  0.00    +0.033 A 
BRANCH  26  28
ATOM     28  N   UNL     1       0.993  -1.734   2.187  0.00  0.00    +0.056 N 
ATOM     29  O   UNL     1       1.989  -2.227   2.664  0.00  0.00    -0.126 OA
ATOM     30  O   UNL     1      -0.046  -2.352   2.186  0.00  0.00    -0.126 OA
ENDBRANCH  26  28
ENDBRANCH  20  24
ENDBRANCH   1  21
TORSDOF 5
