REMARK  Name = ZINC58848419
REMARK  5 active torsions:
REMARK  status: ('A' for Active; 'I' for Inactive)
REMARK    1  A    between atoms: C_4  and  C_7
REMARK    2  A    between atoms: C_18  and  S_23
REMARK    3  A    between atoms: S_23  and  N_26
REMARK    4  A    between atoms: N_26  and  C_27
REMARK    5  A    between atoms: C_31  and  C_33
REMARK                            x       y       z     vdW  Elec       q    Type
REMARK                         _______ _______ _______ _____ _____    ______ ____
ROOT
ATOM      1  C   UNL     1       5.893  -0.588   3.832  0.00  0.00    +0.105 C 
ATOM      2  C   UNL     1       5.355  -0.411   2.443  0.00  0.00    +0.029 C 
ATOM      3  C   UNL     1       3.815  -0.490   2.398  0.00  0.00    +0.033 C 
ATOM      4  C   UNL     1       3.521  -0.990   0.999  0.00  0.00    -0.030 C 
ATOM      5  C   UNL     1       4.585  -1.526   0.461  0.00  0.00    -0.023 C 
ATOM      6  C   UNL     1       5.737  -1.490   1.434  0.00  0.00    +0.049 C 
ATOM      7  C   UNL     1       5.869  -2.855   2.049  0.00  0.00    -0.018 A 
ATOM      8  C   UNL     1       5.909  -3.956   1.206  0.00  0.00    +0.034 A 
ATOM      9  C   UNL     1       6.017  -5.231   1.724  0.00  0.00    +0.109 A 
ATOM     10  C   UNL     1       6.085  -5.421   3.092  0.00  0.00    +0.030 A 
ATOM     11  C   UNL     1       6.050  -4.332   3.938  0.00  0.00    +0.025 A 
ATOM     12  C   UNL     1       5.947  -3.045   3.417  0.00  0.00    +0.031 A 
ATOM     13  N   UNL     1       5.962  -1.964   4.278  0.00  0.00    -0.336 N 
ATOM     14  H   UNL     1       5.993  -2.143   5.231  0.00  0.00    +0.147 HD
ENDROOT
BRANCH   1  18
ATOM     15  C   UNL     1       3.399   1.587   6.533  0.00  0.00    +0.000 A 
ATOM     16  C   UNL     1       4.577   2.148   6.075  0.00  0.00    +0.000 A 
ATOM     17  C   UNL     1       5.383   1.444   5.201  0.00  0.00    +0.005 A 
ATOM     18  C   UNL     1       5.013   0.179   4.786  0.00  0.00    -0.027 A 
ATOM     19  C   UNL     1       3.837  -0.383   5.245  0.00  0.00    +0.005 A 
ATOM     20  C   UNL     1       3.029   0.322   6.117  0.00  0.00    +0.000 A 
ENDBRANCH   1  18
BRANCH   9  21
ATOM     21  S   UNL     1       6.067  -6.619   0.640  0.00  0.00    +0.072 S 
ATOM     22  O   UNL     1       5.504  -7.711   1.352  0.00  0.00    -0.150 OA
ATOM     23  O   UNL     1       5.553  -6.178  -0.610  0.00  0.00    -0.150 OA
BRANCH  21  24
ATOM     24  N   UNL     1       7.663  -6.988   0.391  0.00  0.00    -0.216 N 
ATOM     25  H   UNL     1       8.011  -7.848   0.675  0.00  0.00    +0.174 HD
BRANCH  24  26
ATOM     26  C   UNL     1       8.506  -6.062  -0.228  0.00  0.00    +0.049 A 
ATOM     27  C   UNL     1       8.423  -5.852  -1.599  0.00  0.00    +0.026 A 
ATOM     28  C   UNL     1       9.257  -4.936  -2.207  0.00  0.00    +0.022 A 
ATOM     29  C   UNL     1      10.176  -4.227  -1.453  0.00  0.00    +0.053 A 
ATOM     30  C   UNL     1      10.261  -4.434  -0.088  0.00  0.00    +0.075 A 
ATOM     31  C   UNL     1       9.425  -5.345   0.527  0.00  0.00    +0.038 A 
ATOM     32 CL   UNL     1      11.224  -3.076  -2.222  0.00  0.00    -0.083 Cl
BRANCH  30  33
ATOM     33  C   UNL     1      11.263  -3.660   0.730  0.00  0.00    +0.419 C 
ATOM     34  F   UNL     1      11.161  -4.039   2.072  0.00  0.00    -0.166 F 
ATOM     35  F   UNL     1      12.554  -3.932   0.265  0.00  0.00    -0.166 F 
ATOM     36  F   UNL     1      11.004  -2.290   0.611  0.00  0.00    -0.166 F 
ENDBRANCH  30  33
ENDBRANCH  24  26
ENDBRANCH  21  24
ENDBRANCH   9  21
TORSDOF 5
