REMARK  Name = ZINC13361271
REMARK  5 active torsions:
REMARK  status: ('A' for Active; 'I' for Inactive)
REMARK    1  A    between atoms: C_3  and  C_25
REMARK    2  A    between atoms: C_5  and  S_7
REMARK    3  A    between atoms: S_7  and  N_10
REMARK    4  A    between atoms: N_10  and  C_11
REMARK    5  A    between atoms: C_16  and  N_17
REMARK                            x       y       z     vdW  Elec       q    Type
REMARK                         _______ _______ _______ _____ _____    ______ ____
ROOT
ATOM      1  N   UNL     1      -2.304   4.153  -0.475  0.00  0.00    -0.214 N 
ATOM      2  H   UNL     1      -3.095   4.015   0.067  0.00  0.00    +0.174 HD
ENDROOT
BRANCH   1   3
ATOM      3  C   UNL     1      -1.242   3.243  -0.409  0.00  0.00    +0.070 A 
ATOM      4  C   UNL     1       0.067   3.692  -0.504  0.00  0.00    +0.046 A 
ATOM      5  C   UNL     1       1.114   2.791  -0.437  0.00  0.00    +0.043 A 
ATOM      6  C   UNL     1       0.860   1.441  -0.275  0.00  0.00    +0.022 A 
ATOM      7  C   UNL     1      -0.442   0.985  -0.179  0.00  0.00    +0.026 A 
ATOM      8  C   UNL     1      -1.497   1.881  -0.251  0.00  0.00    +0.052 A 
ATOM      9 CL   UNL     1       2.751   3.356  -0.557  0.00  0.00    -0.083 Cl
BRANCH   8  10
ATOM     10  N   UNL     1      -2.817   1.420  -0.159  0.00  0.00    -0.328 N 
ATOM     11  C   UNL     1      -3.064   0.774   1.149  0.00  0.00    +0.105 C 
ATOM     12  C   UNL     1      -4.369   0.028   1.195  0.00  0.00    +0.019 C 
ATOM     13  C   UNL     1      -4.103  -1.448   0.830  0.00  0.00    +0.002 C 
ATOM     14  C   UNL     1      -3.951  -1.641  -0.608  0.00  0.00    +0.002 C 
ATOM     15  C   UNL     1      -2.758  -0.847  -1.179  0.00  0.00    +0.019 C 
ATOM     16  C   UNL     1      -3.172   0.592  -1.333  0.00  0.00    +0.105 C 
ENDBRANCH   8  10
ENDBRANCH   1   3
BRANCH   1  17
ATOM     17  S   UNL     1      -2.207   5.465  -1.481  0.00  0.00    +0.072 S 
ATOM     18  O   UNL     1      -3.474   6.108  -1.433  0.00  0.00    -0.150 OA
ATOM     19  O   UNL     1      -0.999   6.138  -1.155  0.00  0.00    -0.150 OA
BRANCH  17  24
ATOM     20  C   UNL     1      -2.991   4.114  -5.187  0.00  0.00    +0.003 A 
ATOM     21  C   UNL     1      -1.734   3.885  -5.707  0.00  0.00    +0.015 A 
ATOM     22  C   UNL     1      -0.603   4.140  -4.929  0.00  0.00    +0.065 A 
ATOM     23  C   UNL     1      -0.753   4.632  -3.631  0.00  0.00    +0.044 A 
ATOM     24  C   UNL     1      -2.016   4.852  -3.121  0.00  0.00    +0.109 A 
ATOM     25  C   UNL     1      -3.132   4.596  -3.898  0.00  0.00    +0.029 A 
BRANCH  22  26
ATOM     26  C   UNL     1       0.746   3.897  -5.480  0.00  0.00    +0.387 C 
ATOM     27  O   UNL     1       1.728   4.120  -4.801  0.00  0.00    -0.241 OA
ATOM     28  O   UNL     1       0.887   3.429  -6.735  0.00  0.00    -0.241 OA
ENDBRANCH  22  26
ENDBRANCH  17  24
ENDBRANCH   1  17
TORSDOF 5
