REMARK  Name = ZINC64104245
REMARK  9 active torsions:
REMARK  status: ('A' for Active; 'I' for Inactive)
REMARK    1  A    between atoms: C_1  and  C_2
REMARK    2  A    between atoms: C_5  and  S_8
REMARK    3  A    between atoms: S_8  and  N_11
REMARK    4  A    between atoms: N_11  and  C_12
REMARK    5  A    between atoms: N_11  and  C_13
REMARK    6  A    between atoms: C_16  and  C_19
REMARK    7  A    between atoms: N_21  and  C_22
REMARK    8  A    between atoms: C_22  and  C_24
REMARK    9  A    between atoms: C_22  and  C_25
REMARK                            x       y       z     vdW  Elec       q    Type
REMARK                         _______ _______ _______ _____ _____    ______ ____
ROOT
ATOM      1  C   UNL     1       2.241  -5.265  -1.265  0.00  0.00    +0.051 A 
ATOM      2  C   UNL     1       1.444  -5.547  -2.371  0.00  0.00    +0.025 A 
ATOM      3  C   UNL     1       2.025  -5.810  -3.591  0.00  0.00    +0.015 A 
ATOM      4  C   UNL     1       3.417  -5.794  -3.718  0.00  0.00    +0.037 A 
ATOM      5  C   UNL     1       4.214  -5.511  -2.605  0.00  0.00    +0.015 A 
ATOM      6  C   UNL     1       3.627  -5.243  -1.390  0.00  0.00    +0.025 A 
ENDROOT
BRANCH   4   7
ATOM      7  C   UNL     1       4.043  -6.077  -5.024  0.00  0.00    +0.245 C 
ATOM      8  O   UNL     1       3.348  -6.323  -5.990  0.00  0.00    -0.270 OA
ATOM      9  N   UNL     1       5.385  -6.061  -5.145  0.00  0.00    -0.305 N 
ATOM     10  H   UNL     1       5.939  -5.864  -4.373  0.00  0.00    +0.150 HD
BRANCH   9  11
ATOM     11  C   UNL     1       6.007  -6.341  -6.441  0.00  0.00    +0.100 C 
ATOM     12  C   UNL     1       6.064  -5.055  -7.268  0.00  0.00    +0.033 C 
BRANCH  11  13
ATOM     13  C   UNL     1       7.404  -6.863  -6.226  0.00  0.00    -0.026 A 
ATOM     14  C   UNL     1       8.228  -6.267  -5.181  0.00  0.00    +0.007 A 
ATOM     15  C   UNL     1       9.488  -6.687  -4.936  0.00  0.00    +0.025 A 
ATOM     16  C   UNL     1      10.055  -7.772  -5.735  0.00  0.00    +0.056 A 
ATOM     17  N   UNL     1      11.204  -8.398  -5.759  0.00  0.00    -0.268 N 
ATOM     18  C   UNL     1      11.159  -9.351  -6.750  0.00  0.00    +0.308 C 
ATOM     19  O   UNL     1      12.064 -10.106  -7.033  0.00  0.00    -0.252 OA
ATOM     20  N   UNL     1       9.932  -9.319  -7.371  0.00  0.00    -0.268 N 
ATOM     21  C   UNL     1       9.208  -8.384  -6.808  0.00  0.00    +0.056 A 
ATOM     22  C   UNL     1       7.853  -7.872  -7.003  0.00  0.00    +0.030 A 
ATOM     23  H   UNL     1      11.959  -8.221  -5.177  0.00  0.00    +0.156 HD
ATOM     24  H   UNL     1       9.652  -9.891  -8.102  0.00  0.00    +0.156 HD
ENDBRANCH  11  13
ENDBRANCH   9  11
ENDBRANCH   4   7
BRANCH   1  25
ATOM     25  N   UNL     1       1.651  -4.999  -0.034  0.00  0.00    -0.206 N 
ATOM     26  C   UNL     1       1.950  -5.850   1.120  0.00  0.00    +0.157 C 
BRANCH  25  27
ATOM     27  S   UNL     1       0.610  -3.721   0.127  0.00  0.00    +0.074 S 
ATOM     28  O   UNL     1      -0.309  -4.073   1.151  0.00  0.00    -0.150 OA
ATOM     29  O   UNL     1       0.192  -3.371  -1.185  0.00  0.00    -0.150 OA
BRANCH  27  34
ATOM     30  C   UNL     1       3.818   0.943   2.216  0.00  0.00    +0.044 C 
ATOM     31  C   UNL     1       3.017  -0.222   1.694  0.00  0.00    -0.050 A 
ATOM     32  C   UNL     1       2.892  -0.420   0.332  0.00  0.00    +0.005 A 
ATOM     33  C   UNL     1       2.157  -1.488  -0.147  0.00  0.00    +0.029 A 
ATOM     34  C   UNL     1       1.548  -2.360   0.737  0.00  0.00    +0.109 A 
ATOM     35  C   UNL     1       1.675  -2.163   2.099  0.00  0.00    +0.029 A 
ATOM     36  C   UNL     1       2.413  -1.097   2.578  0.00  0.00    +0.005 A 
ENDBRANCH  27  34
ENDBRANCH  25  27
ENDBRANCH   1  25
TORSDOF 6
