REMARK  Name = ZINC19941646
REMARK  8 active torsions:
REMARK  status: ('A' for Active; 'I' for Inactive)
REMARK    1  A    between atoms: C_1  and  C_2
REMARK    2  A    between atoms: C_7  and  N_8
REMARK    3  A    between atoms: N_11  and  C_14
REMARK    4  A    between atoms: C_14  and  C_16
REMARK    5  A    between atoms: C_14  and  C_30
REMARK    6  A    between atoms: C_20  and  C_29
REMARK    7  A    between atoms: C_22  and  C_28
REMARK    8  A    between atoms: N_34  and  C_35
REMARK                            x       y       z     vdW  Elec       q    Type
REMARK                         _______ _______ _______ _____ _____    ______ ____
ROOT
ATOM      1  C   UNL     1       2.591  -0.626  -0.056  0.00  0.00    +0.162 C 
ENDROOT
BRANCH   1   2
ATOM      2  C   UNL     1       2.972  -1.079  -1.442  0.00  0.00    +0.042 A 
ATOM      3  C   UNL     1       2.103  -1.821  -2.173  0.00  0.00    +0.021 A 
ATOM      4  C   UNL     1       2.504  -2.246  -3.515  0.00  0.00    -0.001 A 
ATOM      5  C   UNL     1       1.651  -3.012  -4.316  0.00  0.00    +0.013 A 
ATOM      6  C   UNL     1       2.055  -3.392  -5.565  0.00  0.00    -0.050 A 
ATOM      7  C   UNL     1       3.304  -3.025  -6.046  0.00  0.00    +0.008 A 
ATOM      8  C   UNL     1       4.161  -2.270  -5.274  0.00  0.00    -0.026 A 
ATOM      9  C   UNL     1       3.772  -1.872  -3.999  0.00  0.00    +0.052 A 
ATOM     10  N   UNL     1       4.608  -1.116  -3.206  0.00  0.00    -0.322 N 
ATOM     11  H   UNL     1       5.602  -0.824  -3.576  0.00  0.00    +0.169 HD
ATOM     12  C   UNL     1       4.229  -0.726  -1.976  0.00  0.00    +0.254 A 
ATOM     13  O   UNL     1       4.993  -0.054  -1.304  0.00  0.00    -0.268 OA
ATOM     14  C   UNL     1       5.514  -1.879  -5.809  0.00  0.00    +0.046 C 
ATOM     15  C   UNL     1       1.136  -4.218  -6.428  0.00  0.00    +0.044 C 
ENDBRANCH   1   2
BRANCH   1  19
ATOM     16  N   UNL     1       4.594  -2.498   3.157  0.00  0.00    -0.327 N 
ATOM     17  C   UNL     1       4.402  -1.043   3.220  0.00  0.00    +0.120 C 
ATOM     18  C   UNL     1       3.275  -0.638   2.267  0.00  0.00    +0.104 C 
ATOM     19  N   UNL     1       3.615  -1.063   0.902  0.00  0.00    -0.286 NA
ATOM     20  C   UNL     1       3.806  -2.519   0.839  0.00  0.00    +0.104 C 
ATOM     21  C   UNL     1       4.933  -2.924   1.792  0.00  0.00    +0.120 C 
BRANCH  16  28
ATOM     22  C   UNL     1       3.836  -4.351   5.178  0.00  0.00    +0.045 C 
ATOM     23  C   UNL     1       5.241  -3.819   5.071  0.00  0.00    -0.029 A 
ATOM     24  C   UNL     1       6.206  -4.229   5.970  0.00  0.00    +0.006 A 
ATOM     25  C   UNL     1       7.496  -3.742   5.873  0.00  0.00    +0.020 A 
ATOM     26  C   UNL     1       7.825  -2.841   4.874  0.00  0.00    +0.043 A 
ATOM     27  C   UNL     1       6.866  -2.430   3.969  0.00  0.00    +0.043 A 
ATOM     28  C   UNL     1       5.568  -2.915   4.068  0.00  0.00    +0.034 A 
ATOM     29 CL   UNL     1       9.447  -2.232   4.756  0.00  0.00    -0.083 Cl
ENDBRANCH  16  28
ENDBRANCH   1  19
BRANCH   1  30
ATOM     30  C   UNL     1       2.488   0.878  -0.030  0.00  0.00    +0.173 A 
ATOM     31  N   UNL     1       3.484   1.730  -0.030  0.00  0.00    -0.111 NA
ATOM     32  N   UNL     1       2.990   2.919  -0.003  0.00  0.00    -0.023 NA
ATOM     33  N   UNL     1       1.705   2.848   0.008  0.00  0.00    -0.044 NA
ATOM     34  N   UNL     1       1.357   1.606  -0.002  0.00  0.00    -0.224 N 
BRANCH  34  35
ATOM     35  C   UNL     1      -0.013   1.086   0.008  0.00  0.00    +0.111 C 
ATOM     36  C   UNL     1      -0.763   1.597   1.255  0.00  0.00    +0.027 C 
ATOM     37  C   UNL     1      -1.531   2.845   0.750  0.00  0.00    +0.002 C 
ATOM     38  C   UNL     1      -1.978   2.421  -0.670  0.00  0.00    +0.002 C 
ATOM     39  C   UNL     1      -0.784   1.609  -1.216  0.00  0.00    +0.027 C 
ENDBRANCH  34  35
ENDBRANCH   1  30
TORSDOF 5
