REMARK  Name = ZINC36551044
REMARK  8 active torsions:
REMARK  status: ('A' for Active; 'I' for Inactive)
REMARK    1  A    between atoms: C_1  and  N_2
REMARK    2  A    between atoms: N_2  and  C_3
REMARK    3  A    between atoms: N_2  and  C_4
REMARK    4  A    between atoms: C_7  and  C_10
REMARK    5  A    between atoms: C_23  and  C_26
REMARK    6  A    between atoms: N_28  and  C_29
REMARK    7  A    between atoms: C_32  and  N_35
REMARK    8  A    between atoms: N_35  and  C_36
REMARK                            x       y       z     vdW  Elec       q    Type
REMARK                         _______ _______ _______ _____ _____    ______ ____
ROOT
ATOM      1  C   UNL     1       0.096  -2.688  -4.985  0.00  0.00    +0.105 C 
ATOM      2  C   UNL     1       1.477  -2.658  -5.616  0.00  0.00    +0.029 C 
ATOM      3  C   UNL     1       2.596  -3.417  -4.891  0.00  0.00    +0.033 C 
ATOM      4  C   UNL     1       3.508  -3.807  -6.057  0.00  0.00    -0.030 C 
ATOM      5  C   UNL     1       2.803  -3.878  -7.180  0.00  0.00    -0.023 C 
ATOM      6  C   UNL     1       1.373  -3.559  -6.884  0.00  0.00    +0.049 C 
ATOM      7  C   UNL     1       0.482  -2.879  -7.849  0.00  0.00    -0.019 A 
ATOM      8  C   UNL     1       0.682  -2.942  -9.210  0.00  0.00    +0.006 A 
ATOM      9  C   UNL     1      -0.183  -2.301 -10.082  0.00  0.00    +0.001 A 
ATOM     10  C   UNL     1      -1.259  -1.591  -9.594  0.00  0.00    +0.015 A 
ATOM     11  C   UNL     1      -1.476  -1.512  -8.217  0.00  0.00    +0.058 A 
ATOM     12  C   UNL     1      -0.595  -2.152  -7.330  0.00  0.00    +0.044 A 
ATOM     13  N   UNL     1      -0.804  -2.031  -5.958  0.00  0.00    -0.336 N 
ATOM     14  H   UNL     1      -1.552  -1.506  -5.634  0.00  0.00    +0.147 HD
ENDROOT
BRANCH   1  18
ATOM     15  C   UNL     1       0.113  -0.530  -1.296  0.00  0.00    +0.029 A 
ATOM     16  C   UNL     1       0.155  -1.919  -1.290  0.00  0.00    +0.023 A 
ATOM     17  C   UNL     1       0.149  -2.613  -2.484  0.00  0.00    +0.007 A 
ATOM     18  C   UNL     1       0.102  -1.927  -3.684  0.00  0.00    -0.027 A 
ATOM     19  C   UNL     1       0.059  -0.545  -3.693  0.00  0.00    +0.007 A 
ATOM     20  C   UNL     1       0.059   0.155  -2.503  0.00  0.00    +0.023 A 
BRANCH  15  22
ATOM     21  C   UNL     1       0.067   1.639  -0.098  0.00  0.00    +0.129 C 
ATOM     22  N   UNL     1       0.118   0.175  -0.090  0.00  0.00    -0.336 N 
ATOM     23  C   UNL     1       0.174  -0.550   1.182  0.00  0.00    +0.129 C 
ENDBRANCH  15  22
ENDBRANCH   1  18
BRANCH  11  24
ATOM     24  C   UNL     1      -2.630  -0.757  -7.694  0.00  0.00    +0.250 C 
ATOM     25  O   UNL     1      -2.882  -0.780  -6.505  0.00  0.00    -0.270 OA
ATOM     26  N   UNL     1      -3.404  -0.043  -8.535  0.00  0.00    -0.281 N 
ATOM     27  H   UNL     1      -3.252  -0.089  -9.492  0.00  0.00    +0.155 HD
BRANCH  26  28
ATOM     28  C   UNL     1      -4.428   0.766  -8.027  0.00  0.00    +0.034 A 
ATOM     29  C   UNL     1      -5.613   0.914  -8.735  0.00  0.00    +0.025 A 
ATOM     30  C   UNL     1      -6.622   1.712  -8.235  0.00  0.00    +0.025 A 
ATOM     31  C   UNL     1      -6.452   2.367  -7.021  0.00  0.00    +0.031 A 
ATOM     32  C   UNL     1      -5.266   2.219  -6.312  0.00  0.00    +0.025 A 
ATOM     33  C   UNL     1      -4.260   1.417  -6.811  0.00  0.00    +0.025 A 
BRANCH  31  34
ATOM     34  N   UNL     1      -7.474   3.177  -6.514  0.00  0.00    -0.314 N 
ATOM     35  H   UNL     1      -8.394   3.017  -6.776  0.00  0.00    +0.152 HD
BRANCH  34  36
ATOM     36  C   UNL     1      -7.170   4.215  -5.630  0.00  0.00    +0.031 A 
ATOM     37  C   UNL     1      -5.983   4.924  -5.771  0.00  0.00    +0.023 A 
ATOM     38  C   UNL     1      -5.685   5.949  -4.896  0.00  0.00    +0.002 A 
ATOM     39  C   UNL     1      -6.566   6.270  -3.879  0.00  0.00    +0.000 A 
ATOM     40  C   UNL     1      -7.747   5.566  -3.735  0.00  0.00    +0.002 A 
ATOM     41  C   UNL     1      -8.055   4.544  -4.611  0.00  0.00    +0.023 A 
ENDBRANCH  34  36
ENDBRANCH  31  34
ENDBRANCH  26  28
ENDBRANCH  11  24
TORSDOF 6
