REMARK  Name = ZINC07801938
REMARK  11 active torsions:
REMARK  status: ('A' for Active; 'I' for Inactive)
REMARK    1  A    between atoms: C_1  and  C_2
REMARK    2  A    between atoms: C_2  and  C_3
REMARK    3  A    between atoms: C_2  and  C_4
REMARK    4  A    between atoms: C_2  and  C_5
REMARK    5  A    between atoms: C_8  and  C_11
REMARK    6  A    between atoms: N_13  and  C_14
REMARK    7  A    between atoms: C_14  and  C_15
REMARK    8  A    between atoms: C_15  and  O_17
REMARK    9  A    between atoms: O_17  and  C_18
REMARK   10  A    between atoms: C_18  and  C_19
REMARK   11  A    between atoms: C_22  and  C_25
REMARK                            x       y       z     vdW  Elec       q    Type
REMARK                         _______ _______ _______ _____ _____    ______ ____
ROOT
ATOM      1  C   UNL     1      -0.014   1.211   0.009  0.00  0.00    +0.245 C 
ATOM      2  O   UNL     1       0.002  -0.004   0.002  0.00  0.00    -0.270 OA
ATOM      3  N   UNL     1       1.143   1.901   0.001  0.00  0.00    -0.301 N 
ATOM      4  H   UNL     1       1.130   2.871   0.007  0.00  0.00    +0.150 HD
ENDROOT
BRANCH   1   8
ATOM      5  C   UNL     1      -3.721   3.285   0.038  0.00  0.00    -0.042 A 
ATOM      6  C   UNL     1      -3.706   1.901   0.030  0.00  0.00    +0.005 A 
ATOM      7  C   UNL     1      -2.506   1.222   0.021  0.00  0.00    +0.013 A 
ATOM      8  C   UNL     1      -1.305   1.933   0.019  0.00  0.00    +0.037 A 
ATOM      9  C   UNL     1      -1.327   3.329   0.032  0.00  0.00    +0.013 A 
ATOM     10  C   UNL     1      -2.534   3.996   0.036  0.00  0.00    +0.005 A 
BRANCH   5  12
ATOM     11  C   UNL     1      -5.828   3.633   1.300  0.00  0.00    +0.015 C 
ATOM     12  C   UNL     1      -5.037   4.021   0.049  0.00  0.00    -0.013 C 
ATOM     13  C   UNL     1      -4.777   5.529   0.056  0.00  0.00    +0.015 C 
ATOM     14  C   UNL     1      -5.840   3.647  -1.199  0.00  0.00    +0.015 C 
ENDBRANCH   5  12
ENDBRANCH   1   8
BRANCH   3  15
ATOM     15  C   UNL     1       2.422   1.186  -0.015  0.00  0.00    +0.225 C 
BRANCH  15  16
ATOM     16  C   UNL     1       3.554   2.181  -0.020  0.00  0.00    +0.325 C 
ATOM     17  O   UNL     1       3.317   3.365  -0.011  0.00  0.00    -0.249 OA
BRANCH  16  18
ATOM     18  O   UNL     1       4.825   1.750  -0.035  0.00  0.00    -0.459 OA
BRANCH  18  19
ATOM     19  C   UNL     1       5.864   2.765  -0.039  0.00  0.00    +0.267 C 
BRANCH  19  20
ATOM     20  C   UNL     1       7.216   2.099  -0.056  0.00  0.00    -0.010 A 
ATOM     21  C   UNL     1       7.848   1.793   1.137  0.00  0.00    +0.008 A 
ATOM     22  C   UNL     1       9.083   1.180   1.129  0.00  0.00    +0.019 A 
ATOM     23  C   UNL     1       9.701   0.876  -0.086  0.00  0.00    +0.052 A 
ATOM     24  C   UNL     1       9.060   1.192  -1.286  0.00  0.00    +0.019 A 
ATOM     25  C   UNL     1       7.822   1.801  -1.263  0.00  0.00    +0.008 A 
BRANCH  23  26
ATOM     26  C   UNL     1      10.986   0.243  -0.102  0.00  0.00    +0.099 C 
ATOM     27  N   UNL     1      12.005  -0.258  -0.114  0.00  0.00    -0.191 NA
ENDBRANCH  23  26
ENDBRANCH  19  20
ENDBRANCH  18  19
ENDBRANCH  16  18
ENDBRANCH  15  16
ENDBRANCH   3  15
TORSDOF 8
