REMARK  Name = ZINC09013061
REMARK  6 active torsions:
REMARK  status: ('A' for Active; 'I' for Inactive)
REMARK    1  A    between atoms: C_1  and  O_2
REMARK    2  A    between atoms: O_2  and  C_3
REMARK    3  A    between atoms: C_6  and  C_10
REMARK    4  A    between atoms: N_14  and  C_15
REMARK    5  A    between atoms: C_15  and  N_17
REMARK    6  A    between atoms: C_18  and  C_20
REMARK                            x       y       z     vdW  Elec       q    Type
REMARK                         _______ _______ _______ _____ _____    ______ ____
ROOT
ATOM      1  C   UNL     1      -4.960  -2.619   0.054  0.00  0.00    +0.055 A 
ATOM      2  C   UNL     1      -6.122  -1.929   0.059  0.00  0.00    +0.074 A 
ATOM      3  S   UNL     1      -7.331  -3.239   0.060  0.00  0.00    -0.060 S 
ATOM      4  C   UNL     1      -6.288  -4.556   0.054  0.00  0.00    +0.162 A 
ATOM      5  N   UNL     1      -6.595  -5.851   0.052  0.00  0.00    -0.169 NA
ATOM      6  N   UNL     1      -5.052  -3.983   0.046  0.00  0.00    -0.335 N 
ATOM      7  H   UNL     1      -4.253  -4.532   0.039  0.00  0.00    +0.168 HD
ENDROOT
BRANCH   1  11
ATOM      8  C   UNL     1      -1.198  -0.640   0.047  0.00  0.00    +0.134 A 
ATOM      9  C   UNL     1      -2.371   0.102   0.057  0.00  0.00    +0.047 A 
ATOM     10  C   UNL     1      -3.593  -0.536   0.059  0.00  0.00    +0.013 A 
ATOM     11  C   UNL     1      -3.651  -1.930   0.051  0.00  0.00    +0.000 A 
ATOM     12  C   UNL     1      -2.470  -2.674   0.041  0.00  0.00    +0.029 A 
ATOM     13  C   UNL     1      -1.250  -2.028   0.034  0.00  0.00    +0.060 A 
ATOM     14 BR   UNL     1       0.351  -3.033   0.013  0.00  0.00    -0.046 Br
BRANCH   8  16
ATOM     15  C   UNL     1      -0.014   1.422   0.059  0.00  0.00    +0.277 C 
ATOM     16  O   UNL     1       0.005  -0.007   0.045  0.00  0.00    -0.494 OA
ENDBRANCH   8  16
ENDBRANCH   1  11
BRANCH   5  17
ATOM     17  C   UNL     1      -7.869  -6.235   0.161  0.00  0.00    +0.163 C 
ATOM     18  S   UNL     1      -9.118  -5.064   0.165  0.00  0.00    -0.016 S 
BRANCH  17  19
ATOM     19  N   UNL     1      -8.172  -7.543   0.267  0.00  0.00    -0.262 N 
ATOM     20  C   UNL     1      -9.459  -7.931   0.377  0.00  0.00    +0.250 C 
ATOM     21  O   UNL     1     -10.345  -7.100   0.380  0.00  0.00    -0.270 OA
ATOM     22  H   UNL     1      -7.465  -8.207   0.264  0.00  0.00    +0.157 HD
BRANCH  20  23
ATOM     23  C   UNL     1      -9.790  -9.366   0.493  0.00  0.00    +0.037 A 
ATOM     24  C   UNL     1      -8.773 -10.322   0.495  0.00  0.00    +0.014 A 
ATOM     25  C   UNL     1      -9.089 -11.660   0.605  0.00  0.00    +0.021 A 
ATOM     26  C   UNL     1     -10.413 -12.056   0.712  0.00  0.00    +0.041 A 
ATOM     27  C   UNL     1     -11.426 -11.111   0.710  0.00  0.00    +0.021 A 
ATOM     28  C   UNL     1     -11.122  -9.770   0.607  0.00  0.00    +0.014 A 
ATOM     29 CL   UNL     1     -10.803 -13.742   0.848  0.00  0.00    -0.084 Cl
ENDBRANCH  20  23
ENDBRANCH  17  19
ENDBRANCH   5  17
TORSDOF 5
