REMARK  Name = ZINC06839972
REMARK  9 active torsions:
REMARK  status: ('A' for Active; 'I' for Inactive)
REMARK    1  A    between atoms: C_1  and  C_2
REMARK    2  A    between atoms: C_4  and  C_26
REMARK    3  A    between atoms: C_6  and  N_8
REMARK    4  A    between atoms: C_9  and  C_11
REMARK    5  A    between atoms: C_11  and  O_12
REMARK    6  A    between atoms: O_12  and  C_13
REMARK    7  A    between atoms: C_13  and  C_15
REMARK    8  A    between atoms: C_15  and  O_16
REMARK    9  A    between atoms: O_16  and  C_17
REMARK                            x       y       z     vdW  Elec       q    Type
REMARK                         _______ _______ _______ _____ _____    ______ ____
ROOT
ATOM      1  O   UNL     1       0.910  -0.666  -0.860  0.00  0.00    -0.453 OA
ENDROOT
BRANCH   1   2
ATOM      2  C   UNL     1       0.351   0.004   0.160  0.00  0.00    +0.346 C 
ATOM      3  O   UNL     1      -0.281  -0.592   1.000  0.00  0.00    -0.247 OA
BRANCH   2   4
ATOM      4  C   UNL     1       0.511   1.499   0.258  0.00  0.00    +0.349 C 
BRANCH   4   5
ATOM      5  O   UNL     1      -0.169   1.976   1.421  0.00  0.00    -0.481 OA
BRANCH   5   6
ATOM      6  C   UNL     1      -0.122   3.313   1.658  0.00  0.00    +0.122 A 
ATOM      7  C   UNL     1       0.564   4.150   0.790  0.00  0.00    +0.046 A 
ATOM      8  C   UNL     1       0.608   5.508   1.034  0.00  0.00    +0.007 A 
ATOM      9  C   UNL     1      -0.029   6.039   2.144  0.00  0.00    -0.044 A 
ATOM     10  C   UNL     1      -0.714   5.207   3.010  0.00  0.00    -0.041 A 
ATOM     11  C   UNL     1      -0.764   3.846   2.764  0.00  0.00    +0.049 A 
ATOM     12  C   UNL     1      -1.317   6.023   4.133  0.00  0.00    +0.036 C 
ATOM     13  C   UNL     1      -1.301   7.481   3.627  0.00  0.00    +0.009 C 
ATOM     14  C   UNL     1      -0.127   7.471   2.625  0.00  0.00    +0.036 C 
ENDBRANCH   5   6
ENDBRANCH   4   5
ENDBRANCH   2   4
ENDBRANCH   1   2
BRANCH   1  15
ATOM     15  C   UNL     1       0.715  -2.104  -0.890  0.00  0.00    +0.328 C 
BRANCH  15  17
ATOM     16  N   UNL     1       1.362  -4.006  -2.332  0.00  0.00    -0.283 N 
ATOM     17  C   UNL     1       1.409  -2.680  -2.097  0.00  0.00    +0.255 C 
ATOM     18  O   UNL     1       2.009  -1.950  -2.857  0.00  0.00    -0.272 OA
ATOM     19  H   UNL     1       0.949  -4.599  -1.686  0.00  0.00    +0.155 HD
BRANCH  16  25
ATOM     20  C   UNL     1       3.675  -7.665  -4.665  0.00  0.00    +0.044 C 
ATOM     21  C   UNL     1       3.039  -6.299  -4.668  0.00  0.00    -0.048 A 
ATOM     22  C   UNL     1       2.997  -5.559  -5.836  0.00  0.00    +0.006 A 
ATOM     23  C   UNL     1       2.414  -4.305  -5.843  0.00  0.00    -0.048 A 
ATOM     24  C   UNL     1       1.871  -3.788  -4.684  0.00  0.00    +0.026 A 
ATOM     25  C   UNL     1       1.911  -4.528  -3.509  0.00  0.00    +0.034 A 
ATOM     26  C   UNL     1       2.503  -5.785  -3.504  0.00  0.00    +0.026 A 
ATOM     27  C   UNL     1       2.370  -3.503  -7.118  0.00  0.00    +0.044 C 
ENDBRANCH  16  25
ENDBRANCH  15  17
ENDBRANCH   1  15
TORSDOF 7
