REMARK  Name = ZINC16649390
REMARK  14 active torsions:
REMARK  status: ('A' for Active; 'I' for Inactive)
REMARK    1  A    between atoms: C_1  and  C_2
REMARK    2  A    between atoms: C_6  and  N_9
REMARK    3  A    between atoms: C_7  and  C_8
REMARK    4  A    between atoms: N_12  and  C_13
REMARK    5  A    between atoms: N_12  and  C_17
REMARK    6  A    between atoms: C_13  and  C_14
REMARK    7  A    between atoms: C_14  and  O_15
REMARK    8  A    between atoms: O_15  and  C_16
REMARK    9  A    between atoms: C_17  and  C_18
REMARK   10  A    between atoms: N_20  and  C_21
REMARK   11  A    between atoms: N_20  and  C_33
REMARK   12  A    between atoms: C_21  and  C_22
REMARK   13  A    between atoms: C_22  and  C_23
REMARK   14  A    between atoms: C_33  and  C_34
REMARK                            x       y       z     vdW  Elec       q    Type
REMARK                         _______ _______ _______ _____ _____    ______ ____
ROOT
ATOM      1  C   UNL     1      -4.152  -0.964  -1.115  0.00  0.00    +0.233 C 
ATOM      2  O   UNL     1      -4.237   0.217  -0.856  0.00  0.00    -0.274 OA
ATOM      3  N   UNL     1      -2.994  -1.620  -0.904  0.00  0.00    -0.296 N 
ENDROOT
BRANCH   1   4
ATOM      4  C   UNL     1      -5.343  -1.700  -1.675  0.00  0.00    +0.205 C 
BRANCH   4   8
ATOM      5  N   UNL     1      -7.804   0.778  -2.824  0.00  0.00    -0.269 N 
ATOM      6  C   UNL     1      -6.739  -0.047  -2.796  0.00  0.00    +0.307 C 
ATOM      7  O   UNL     1      -5.994  -0.110  -3.754  0.00  0.00    -0.252 OA
ATOM      8  N   UNL     1      -6.501  -0.802  -1.705  0.00  0.00    -0.274 N 
ATOM      9  H   UNL     1      -8.448   0.764  -2.098  0.00  0.00    +0.156 HD
BRANCH   5  15
ATOM     10  C   UNL     1     -10.778   3.601  -5.537  0.00  0.00    +0.044 C 
ATOM     11  C   UNL     1      -9.412   3.039  -5.237  0.00  0.00    -0.046 A 
ATOM     12  C   UNL     1      -8.332   3.390  -6.026  0.00  0.00    +0.004 A 
ATOM     13  C   UNL     1      -7.077   2.877  -5.754  0.00  0.00    +0.002 A 
ATOM     14  C   UNL     1      -6.899   2.011  -4.693  0.00  0.00    +0.023 A 
ATOM     15  C   UNL     1      -7.982   1.656  -3.899  0.00  0.00    +0.038 A 
ATOM     16  C   UNL     1      -9.242   2.169  -4.178  0.00  0.00    -0.026 A 
ATOM     17  C   UNL     1     -10.420   1.782  -3.323  0.00  0.00    +0.046 C 
ENDBRANCH   5  15
BRANCH   8  18
ATOM     18  C   UNL     1      -7.399  -0.726  -0.550  0.00  0.00    +0.138 C 
BRANCH  18  19
ATOM     19  C   UNL     1      -6.906   0.359   0.409  0.00  0.00    +0.178 C 
BRANCH  19  20
ATOM     20  O   UNL     1      -6.999   1.635  -0.228  0.00  0.00    -0.381 OA
ATOM     21  C   UNL     1      -6.561   2.724   0.587  0.00  0.00    +0.194 C 
ENDBRANCH  19  20
ENDBRANCH  18  19
ENDBRANCH   8  18
ENDBRANCH   4   8
ENDBRANCH   1   4
BRANCH   3  22
ATOM     22  C   UNL     1      -1.808  -0.886  -0.456  0.00  0.00    +0.113 C 
BRANCH  22  23
ATOM     23  C   UNL     1      -1.774  -0.856   1.073  0.00  0.00    +0.056 C 
BRANCH  23  24
ATOM     24  C   UNL     1      -0.554  -0.101   1.534  0.00  0.00    -0.021 A 
ATOM     25  C   UNL     1       0.632  -0.630   1.873  0.00  0.00    +0.087 A 
ATOM     26  N   UNL     1       1.499   0.363   2.240  0.00  0.00    -0.360 N 
ATOM     27  H   UNL     1       2.415   0.225   2.527  0.00  0.00    +0.165 HD
ATOM     28  C   UNL     1       0.876   1.587   2.144  0.00  0.00    +0.047 A 
ATOM     29  C   UNL     1      -0.437   1.350   1.697  0.00  0.00    +0.003 A 
ATOM     30  C   UNL     1      -1.313   2.421   1.511  0.00  0.00    +0.010 A 
ATOM     31  C   UNL     1      -0.887   3.696   1.755  0.00  0.00    +0.001 A 
ATOM     32  C   UNL     1       0.407   3.935   2.196  0.00  0.00    +0.002 A 
ATOM     33  C   UNL     1       1.286   2.893   2.391  0.00  0.00    +0.026 A 
ENDBRANCH  23  24
ENDBRANCH  22  23
ENDBRANCH   3  22
BRANCH   3  34
ATOM     34  C   UNL     1      -2.921  -3.067  -1.122  0.00  0.00    +0.143 C 
BRANCH  34  35
ATOM     35  C   UNL     1      -2.454  -3.340  -2.529  0.00  0.00    -0.030 A 
ATOM     36  C   UNL     1      -3.376  -3.611  -3.522  0.00  0.00    +0.008 A 
ATOM     37  C   UNL     1      -2.949  -3.857  -4.814  0.00  0.00    +0.038 A 
ATOM     38  C   UNL     1      -1.597  -3.841  -5.110  0.00  0.00    +0.123 A 
ATOM     39  C   UNL     1      -0.674  -3.575  -4.113  0.00  0.00    +0.038 A 
ATOM     40  C   UNL     1      -1.103  -3.324  -2.824  0.00  0.00    +0.008 A 
ATOM     41  F   UNL     1      -1.178  -4.086  -6.371  0.00  0.00    -0.205 F 
ENDBRANCH  34  35
ENDBRANCH   3  34
TORSDOF 11
