REMARK  Name = ZINC66907988
REMARK  7 active torsions:
REMARK  status: ('A' for Active; 'I' for Inactive)
REMARK    1  A    between atoms: C_10  and  C_11
REMARK    2  A    between atoms: C_10  and  O_29
REMARK    3  A    between atoms: C_11  and  N_12
REMARK    4  A    between atoms: N_15  and  C_16
REMARK    5  A    between atoms: C_16  and  C_17
REMARK    6  A    between atoms: C_22  and  C_23
REMARK    7  A    between atoms: C_23  and  N_24
REMARK                            x       y       z     vdW  Elec       q    Type
REMARK                         _______ _______ _______ _____ _____    ______ ____
ROOT
ATOM      1  N   UNL     1       4.837   1.444   0.478  0.00  0.00    -0.296 N 
ATOM      2  C   UNL     1       5.710   2.251   1.112  0.00  0.00    +0.300 C 
ATOM      3  O   UNL     1       6.375   1.822   2.035  0.00  0.00    -0.253 OA
ATOM      4  N   UNL     1       5.846   3.534   0.723  0.00  0.00    -0.295 N 
ATOM      5  H   UNL     1       4.306   1.786  -0.259  0.00  0.00    +0.150 HD
ATOM      6  H   UNL     1       5.316   3.877  -0.014  0.00  0.00    +0.151 HD
ENDROOT
BRANCH   1   7
ATOM      7  C   UNL     1       4.689   0.049   0.901  0.00  0.00    +0.145 C 
BRANCH   7  17
ATOM      8  C   UNL     1       3.502  -4.769   1.163  0.00  0.00    +0.000 A 
ATOM      9  C   UNL     1       3.495  -3.749   2.096  0.00  0.00    +0.000 A 
ATOM     10  C   UNL     1       3.578  -2.438   1.677  0.00  0.00    +0.007 A 
ATOM     11  C   UNL     1       3.670  -2.133   0.325  0.00  0.00    -0.011 A 
ATOM     12  C   UNL     1       3.682  -3.149  -0.604  0.00  0.00    -0.041 A 
ATOM     13  C   UNL     1       3.594  -4.469  -0.180  0.00  0.00    +0.004 A 
ATOM     14  C   UNL     1       3.796  -2.893  -2.084  0.00  0.00    +0.035 C 
ATOM     15  C   UNL     1       3.451  -1.440  -2.406  0.00  0.00    +0.008 C 
ATOM     16  C   UNL     1       4.277  -0.532  -1.488  0.00  0.00    +0.041 C 
ATOM     17  C   UNL     1       3.750  -0.679  -0.063  0.00  0.00    +0.107 C 
BRANCH  17  18
ATOM     18  O   UNL     1       2.447  -0.097   0.020  0.00  0.00    -0.382 OA
ATOM     19  H   UNL     1       2.054  -0.138   0.902  0.00  0.00    +0.211 HD
ENDBRANCH  17  18
ENDBRANCH   7  17
ENDBRANCH   1   7
BRANCH   4  20
ATOM     20  C   UNL     1       6.795   4.412   1.412  0.00  0.00    +0.141 C 
BRANCH  20  21
ATOM     21  C   UNL     1       6.755   5.784   0.789  0.00  0.00    -0.029 A 
ATOM     22  C   UNL     1       7.723   6.157  -0.125  0.00  0.00    +0.005 A 
ATOM     23  C   UNL     1       7.686   7.415  -0.696  0.00  0.00    +0.000 A 
ATOM     24  C   UNL     1       6.681   8.300  -0.355  0.00  0.00    +0.000 A 
ATOM     25  C   UNL     1       5.712   7.926   0.557  0.00  0.00    +0.002 A 
ATOM     26  C   UNL     1       5.746   6.667   1.126  0.00  0.00    -0.059 A 
BRANCH  26  27
ATOM     27  C   UNL     1       4.687   6.258   2.117  0.00  0.00    -0.043 C 
BRANCH  27  28
ATOM     28  N   UNL     1       5.214   6.395   3.481  0.00  0.00    +0.382 N 
ATOM     29  C   UNL     1       5.409   7.830   3.813  0.00  0.00    -0.078 C 
ATOM     30  C   UNL     1       5.402   7.840   5.362  0.00  0.00    -0.020 C 
ATOM     31  C   UNL     1       4.331   6.781   5.710  0.00  0.00    -0.020 C 
ATOM     32  C   UNL     1       4.230   5.885   4.461  0.00  0.00    -0.078 C 
ATOM     33  H   UNL     1       6.085   5.895   3.571  0.00  0.00    -0.081 HD
ENDBRANCH  27  28
ENDBRANCH  26  27
ENDBRANCH  20  21
ENDBRANCH   4  20
TORSDOF 7
