REMARK  Name = ZINC64076433
REMARK  6 active torsions:
REMARK  status: ('A' for Active; 'I' for Inactive)
REMARK    1  A    between atoms: C_1  and  C_2
REMARK    2  A    between atoms: C_2  and  C_3
REMARK    3  A    between atoms: C_2  and  C_4
REMARK    4  A    between atoms: C_2  and  C_5
REMARK    5  A    between atoms: C_10  and  N_15
REMARK    6  A    between atoms: C_16  and  C_18
REMARK                            x       y       z     vdW  Elec       q    Type
REMARK                         _______ _______ _______ _____ _____    ______ ____
ROOT
ATOM      1  N   UNL     1       1.848   2.912  -6.025  0.00  0.00    -0.281 N 
ATOM      2  C   UNL     1       2.865   3.696  -6.432  0.00  0.00    +0.254 C 
ATOM      3  O   UNL     1       3.908   3.713  -5.807  0.00  0.00    -0.270 OA
ATOM      4  H   UNL     1       1.048   2.833  -6.568  0.00  0.00    +0.155 HD
ENDROOT
BRANCH   2   5
ATOM      5  C   UNL     1       2.713   4.533  -7.634  0.00  0.00    +0.102 A 
ATOM      6  C   UNL     1       3.785   5.257  -8.139  0.00  0.00    +0.031 A 
ATOM      7  C   UNL     1       3.592   6.044  -9.294  0.00  0.00    +0.037 A 
ATOM      8  C   UNL     1       2.357   6.090  -9.919  0.00  0.00    +0.030 A 
ATOM      9  N   UNL     1       1.314   5.392  -9.426  0.00  0.00    -0.325 N 
ATOM     10  C   UNL     1       1.429   4.619  -8.333  0.00  0.00    +0.261 A 
ATOM     11  O   UNL     1       0.466   3.997  -7.922  0.00  0.00    -0.267 OA
ATOM     12  C   UNL     1       2.138   6.908 -11.166  0.00  0.00    +0.054 C 
ATOM     13  C   UNL     1       3.161   8.034 -11.278  0.00  0.00    +0.014 C 
ATOM     14  C   UNL     1       4.575   7.443 -11.197  0.00  0.00    +0.080 C 
ATOM     15  C   UNL     1       4.724   6.822  -9.824  0.00  0.00    +0.165 C 
ATOM     16  O   UNL     1       5.744   6.961  -9.181  0.00  0.00    -0.292 OA
ATOM     17  H   UNL     1       0.457   5.445  -9.877  0.00  0.00    +0.169 HD
ENDBRANCH   2   5
BRANCH   1  22
ATOM     18  C   UNL     1       0.674   0.367  -0.756  0.00  0.00    +0.266 C 
ATOM     19  N   UNL     1      -0.009   1.162  -1.785  0.00  0.00    -0.306 N 
ATOM     20  C   UNL     1       0.941   1.408  -2.786  0.00  0.00    +0.074 A 
ATOM     21  C   UNL     1       0.843   2.105  -3.982  0.00  0.00    +0.050 A 
ATOM     22  C   UNL     1       1.946   2.209  -4.817  0.00  0.00    +0.036 A 
ATOM     23  C   UNL     1       3.147   1.615  -4.454  0.00  0.00    +0.027 A 
ATOM     24  C   UNL     1       3.245   0.921  -3.264  0.00  0.00    +0.049 A 
ATOM     25  C   UNL     1       2.145   0.814  -2.423  0.00  0.00    +0.144 A 
ATOM     26  O   UNL     1       2.015   0.186  -1.220  0.00  0.00    -0.469 OA
ATOM     27  H   UNL     1      -0.933   1.457  -1.774  0.00  0.00    +0.150 HD
BRANCH  18  29
ATOM     28  C   UNL     1       1.382   2.464   0.403  0.00  0.00    +0.016 C 
ATOM     29  C   UNL     1       0.675   1.118   0.577  0.00  0.00    +0.016 C 
ATOM     30  C   UNL     1       1.411   0.288   1.630  0.00  0.00    +0.016 C 
ATOM     31  C   UNL     1      -0.767   1.355   1.030  0.00  0.00    +0.016 C 
ENDBRANCH  18  29
ENDBRANCH   1  22
TORSDOF 3
