REMARK  Name = ZINC09367610
REMARK  5 active torsions:
REMARK  status: ('A' for Active; 'I' for Inactive)
REMARK    1  A    between atoms: C_3  and  N_25
REMARK    2  A    between atoms: C_6  and  C_7
REMARK    3  A    between atoms: C_8  and  C_9
REMARK    4  A    between atoms: C_17  and  S_21
REMARK    5  A    between atoms: S_21  and  N_24
REMARK                            x       y       z     vdW  Elec       q    Type
REMARK                         _______ _______ _______ _____ _____    ______ ____
ROOT
ATOM      1  C   UNL     1      -1.447   7.190  -6.901  0.00  0.00    +0.243 C 
ATOM      2  O   UNL     1      -1.930   6.109  -7.184  0.00  0.00    -0.270 OA
ATOM      3  N   UNL     1      -0.999   7.422  -5.651  0.00  0.00    -0.261 N 
ATOM      4  C   UNL     1      -1.089   6.431  -4.689  0.00  0.00    +0.166 A 
ATOM      5  N   UNL     1      -1.573   5.216  -4.801  0.00  0.00    -0.225 NA
ATOM      6  C   UNL     1      -1.598   4.346  -3.768  0.00  0.00    +0.080 A 
ATOM      7  C   UNL     1      -2.087   3.019  -3.756  0.00  0.00    +0.031 A 
ATOM      8  C   UNL     1      -2.036   2.266  -2.612  0.00  0.00    +0.030 A 
ATOM      9  C   UNL     1      -1.507   2.771  -1.433  0.00  0.00    +0.106 A 
ATOM     10  C   UNL     1      -1.025   4.067  -1.408  0.00  0.00    +0.045 A 
ATOM     11  C   UNL     1      -1.067   4.827  -2.550  0.00  0.00    +0.043 A 
ATOM     12  S   UNL     1      -0.576   6.481  -2.978  0.00  0.00    -0.052 S 
ATOM     13  H   UNL     1      -0.614   8.283  -5.426  0.00  0.00    +0.157 HD
ENDROOT
BRANCH   9  14
ATOM     14  S   UNL     1      -1.456   1.774   0.019  0.00  0.00    +0.056 S 
ATOM     15  O   UNL     1      -2.472   0.792  -0.128  0.00  0.00    -0.153 OA
ATOM     16  O   UNL     1      -1.413   2.667   1.123  0.00  0.00    -0.153 OA
BRANCH  14  17
ATOM     17  N   UNL     1      -0.011   0.966   0.007  0.00  0.00    -0.204 NA
ATOM     18  H   UNL     1       0.002  -0.004   0.002  0.00  0.00    +0.144 HD
ATOM     19  H   UNL     1       0.822   1.462   0.002  0.00  0.00    +0.144 HD
ENDBRANCH  14  17
ENDBRANCH   9  14
BRANCH   1  21
ATOM     20  C   UNL     1      -1.800   8.006  -9.169  0.00  0.00    +0.013 C 
ATOM     21  C   UNL     1      -1.352   8.238  -7.919  0.00  0.00    +0.068 C 
BRANCH  20  27
ATOM     22  C   UNL     1      -1.154  10.304  -9.870  0.00  0.00    +0.010 A 
ATOM     23  C   UNL     1      -1.063  11.284 -10.836  0.00  0.00    +0.033 A 
ATOM     24  C   UNL     1      -1.523  11.042 -12.119  0.00  0.00    +0.126 A 
ATOM     25  C   UNL     1      -2.074   9.815 -12.444  0.00  0.00    +0.033 A 
ATOM     26  C   UNL     1      -2.167   8.823 -11.491  0.00  0.00    +0.010 A 
ATOM     27  C   UNL     1      -1.704   9.059 -10.193  0.00  0.00    -0.025 A 
BRANCH  24  28
ATOM     28  N   UNL     1      -1.427  12.101 -13.148  0.00  0.00    +0.056 N 
ATOM     29  O   UNL     1      -1.831  11.892 -14.277  0.00  0.00    -0.126 OA
ATOM     30  O   UNL     1      -0.942  13.183 -12.865  0.00  0.00    -0.126 OA
ENDBRANCH  24  28
ENDBRANCH  20  27
ENDBRANCH   1  21
TORSDOF 5
