REMARK  Name = ZINC07894000
REMARK  5 active torsions:
REMARK  status: ('A' for Active; 'I' for Inactive)
REMARK    1  A    between atoms: C_1  and  C_2
REMARK    2  A    between atoms: C_5  and  C_11
REMARK    3  A    between atoms: C_7  and  N_8
REMARK    4  A    between atoms: N_12  and  N_13
REMARK    5  A    between atoms: C_14  and  C_16
REMARK                            x       y       z     vdW  Elec       q    Type
REMARK                         _______ _______ _______ _____ _____    ______ ____
ROOT
ATOM      1  C   UNL     1       2.322   1.056  -0.107  0.00  0.00    +0.138 C 
ATOM      2  N   UNL     1       1.200   1.664   0.130  0.00  0.00    -0.187 NA
ENDROOT
BRANCH   1   7
ATOM      3  C   UNL     1       7.269   3.986   0.046  0.00  0.00    +0.046 C 
ATOM      4  C   UNL     1       5.973   3.218   0.006  0.00  0.00    -0.020 A 
ATOM      5  C   UNL     1       4.779   3.869   0.260  0.00  0.00    +0.006 A 
ATOM      6  C   UNL     1       3.588   3.175   0.220  0.00  0.00    +0.010 A 
ATOM      7  C   UNL     1       3.591   1.807  -0.067  0.00  0.00    -0.003 A 
ATOM      8  C   UNL     1       4.800   1.156  -0.322  0.00  0.00    +0.042 A 
ATOM      9  C   UNL     1       5.983   1.865  -0.284  0.00  0.00    +0.130 A 
BRANCH   9  10
ATOM     10  N   UNL     1       7.265   1.177  -0.553  0.00  0.00    +0.057 N 
ATOM     11  O   UNL     1       7.290  -0.033  -0.692  0.00  0.00    -0.126 OA
ATOM     12  O   UNL     1       8.296   1.821  -0.635  0.00  0.00    -0.126 OA
ENDBRANCH   9  10
ENDBRANCH   1   7
BRANCH   2  13
ATOM     13  N   UNL     1      -0.005   0.950   0.092  0.00  0.00    -0.203 N 
ATOM     14  C   UNL     1      -1.170   1.583   0.333  0.00  0.00    +0.264 C 
ATOM     15  O   UNL     1      -1.175   2.772   0.588  0.00  0.00    -0.268 OA
ATOM     16  H   UNL     1      -0.001   0.002  -0.111  0.00  0.00    +0.178 HD
BRANCH  14  17
ATOM     17  C   UNL     1      -2.441   0.832   0.287  0.00  0.00    +0.052 A 
ATOM     18  C   UNL     1      -2.440  -0.533  -0.011  0.00  0.00    +0.014 A 
ATOM     19  C   UNL     1      -3.630  -1.229  -0.048  0.00  0.00    +0.001 A 
ATOM     20  C   UNL     1      -4.825  -0.577   0.200  0.00  0.00    +0.001 A 
ATOM     21  C   UNL     1      -4.836   0.775   0.491  0.00  0.00    +0.016 A 
ATOM     22  C   UNL     1      -3.651   1.484   0.536  0.00  0.00    +0.030 A 
ATOM     23 BR   UNL     1      -3.667   3.333   0.934  0.00  0.00    -0.050 Br
ENDBRANCH  14  17
ENDBRANCH   2  13
TORSDOF 4
