REMARK  Name = ZINC08833963
REMARK  18 active torsions:
REMARK  status: ('A' for Active; 'I' for Inactive)
REMARK    1  A    between atoms: C_1  and  C_2
REMARK    2  A    between atoms: C_2  and  N_67
REMARK    3  A    between atoms: C_3  and  C_4
REMARK    4  A    between atoms: C_3  and  N_67
REMARK    5  A    between atoms: C_5  and  C_6
REMARK    6  A    between atoms: C_5  and  N_67
REMARK    7  A    between atoms: C_6  and  C_7
REMARK    8  A    between atoms: C_7  and  N_8
REMARK    9  A    between atoms: C_9  and  C_31
REMARK   10  A    between atoms: C_11  and  C_16
REMARK   11  A    between atoms: C_12  and  O_15
REMARK   12  A    between atoms: C_16  and  C_18
REMARK   13  A    between atoms: C_19  and  C_30
REMARK   14  A    between atoms: C_20  and  C_25
REMARK   15  A    between atoms: C_23  and  C_24
REMARK   16  A    between atoms: C_25  and  O_27
REMARK   17  A    between atoms: O_27  and  C_28
REMARK   18  A    between atoms: C_28  and  C_29
REMARK                            x       y       z     vdW  Elec       q    Type
REMARK                         _______ _______ _______ _____ _____    ______ ____
ROOT
ATOM      1  N   UNL     1      -0.681   5.745  -0.404  0.00  0.00    -0.281 N 
ATOM      2  C   UNL     1      -0.183   4.373  -0.250  0.00  0.00    +0.180 C 
ATOM      3  C   UNL     1      -1.402   3.503  -0.052  0.00  0.00    +0.074 C 
ATOM      4  C   UNL     1      -2.477   4.324  -0.083  0.00  0.00    +0.188 C 
ATOM      5  C   UNL     1      -2.022   5.713  -0.301  0.00  0.00    +0.282 C 
ATOM      6  O   UNL     1      -2.751   6.682  -0.377  0.00  0.00    -0.267 OA
ENDROOT
BRANCH   2   7
ATOM      7  C   UNL     1       0.722   4.278   0.950  0.00  0.00    +0.130 A 
ATOM      8  C   UNL     1       1.875   3.588   1.013  0.00  0.00    +0.047 A 
ATOM      9  C   UNL     1       2.393   3.773   2.316  0.00  0.00    +0.041 A 
ATOM     10  C   UNL     1       1.525   4.565   2.971  0.00  0.00    +0.195 A 
ATOM     11  O   UNL     1       0.518   4.872   2.137  0.00  0.00    -0.466 OA
ENDBRANCH   2   7
BRANCH   4  12
ATOM     12  O   UNL     1      -3.765   3.935   0.064  0.00  0.00    -0.502 OA
ATOM     13  H   UNL     1      -4.364   4.734   0.001  0.00  0.00    +0.292 HD
ENDBRANCH   4  12
BRANCH   3  14
ATOM     14  C   UNL     1      -1.417   2.049   0.143  0.00  0.00    +0.197 C 
ATOM     15  O   UNL     1      -1.128   1.309  -0.779  0.00  0.00    -0.287 OA
BRANCH  14  16
ATOM     16  C   UNL     1      -1.782   1.485   1.455  0.00  0.00    +0.046 A 
ATOM     17  C   UNL     1      -1.857   0.114   1.788  0.00  0.00    -0.008 A 
ATOM     18  C   UNL     1      -2.223   0.041   3.100  0.00  0.00    +0.128 A 
ATOM     19  N   UNL     1      -2.374   1.325   3.580  0.00  0.00    -0.352 N 
ATOM     20  H   UNL     1      -2.630   1.560   4.485  0.00  0.00    +0.166 HD
ATOM     21  C   UNL     1      -2.110   2.198   2.595  0.00  0.00    +0.025 A 
ATOM     22  C   UNL     1      -2.162   3.700   2.711  0.00  0.00    +0.064 C 
ATOM     23  C   UNL     1      -1.585  -1.048   0.868  0.00  0.00    +0.047 C 
BRANCH  18  24
ATOM     24  C   UNL     1      -2.421  -1.191   3.870  0.00  0.00    +0.356 C 
ATOM     25  O   UNL     1      -2.258  -2.273   3.338  0.00  0.00    -0.243 OA
BRANCH  24  26
ATOM     26  O   UNL     1      -2.785  -1.126   5.167  0.00  0.00    -0.460 OA
BRANCH  26  27
ATOM     27  C   UNL     1      -2.963  -2.386   5.866  0.00  0.00    +0.229 C 
ATOM     28  C   UNL     1      -3.372  -2.111   7.315  0.00  0.00    +0.048 C 
ENDBRANCH  26  27
ENDBRANCH  24  26
ENDBRANCH  18  24
ENDBRANCH  14  16
ENDBRANCH   3  14
BRANCH   1  29
ATOM     29  C   UNL     1       0.138   6.940  -0.622  0.00  0.00    +0.107 C 
BRANCH  29  30
ATOM     30  C   UNL     1       0.527   7.546   0.728  0.00  0.00    +0.000 C 
BRANCH  30  31
ATOM     31  C   UNL     1       1.383   8.793   0.500  0.00  0.00    -0.077 C 
BRANCH  31  32
ATOM     32  N   UNL     1       1.625   9.446   1.804  0.00  0.00    +0.379 N 
ATOM     33  H   UNL     1       0.760   9.420   2.356  0.00  0.00    -0.082 HD
BRANCH  32  35
ATOM     34  C   UNL     1       2.760   9.278   3.965  0.00  0.00    -0.017 C 
ATOM     35  C   UNL     1       2.686   8.725   2.540  0.00  0.00    -0.082 C 
ENDBRANCH  32  35
BRANCH  32  36
ATOM     36  C   UNL     1       2.022  10.855   1.598  0.00  0.00    -0.082 C 
ATOM     37  C   UNL     1       0.767  11.678   1.302  0.00  0.00    -0.017 C 
ENDBRANCH  32  36
ENDBRANCH  31  32
ENDBRANCH  30  31
ENDBRANCH  29  30
ENDBRANCH   1  29
TORSDOF 13
