REMARK  Name = ZINC35114673
REMARK  3 active torsions:
REMARK  status: ('A' for Active; 'I' for Inactive)
REMARK    1  A    between atoms: C_3  and  C_11
REMARK    2  A    between atoms: N_13  and  C_14
REMARK    3  A    between atoms: C_17  and  O_20
REMARK                            x       y       z     vdW  Elec       q    Type
REMARK                         _______ _______ _______ _____ _____    ______ ____
ROOT
ATOM      1  C   UNL     1       3.552   2.121   1.264  0.00  0.00    +0.218 C 
ATOM      2  O   UNL     1       3.932   2.826   0.353  0.00  0.00    -0.275 OA
ATOM      3  N   UNL     1       4.386   1.827   2.281  0.00  0.00    -0.312 N 
ATOM      4  H   UNL     1       4.082   1.263   3.010  0.00  0.00    +0.149 HD
ENDROOT
BRANCH   1   7
ATOM      5  C   UNL     1      -0.020   1.529   0.013  0.00  0.00    +0.020 C 
ATOM      6  C   UNL     1       1.417   2.056   0.003  0.00  0.00    +0.016 C 
ATOM      7  C   UNL     1       2.147   1.575   1.259  0.00  0.00    +0.092 C 
ATOM      8  C   UNL     1       2.193   0.044   1.263  0.00  0.00    +0.122 C 
ATOM      9  N   UNL     1       0.824  -0.471   1.127  0.00  0.00    -0.285 N 
ATOM     10  C   UNL     1       0.002  -0.003   0.003  0.00  0.00    +0.109 C 
ATOM     11  C   UNL     1       0.332  -1.357   2.016  0.00  0.00    +0.300 C 
ATOM     12  O   UNL     1       1.050  -1.807   2.887  0.00  0.00    -0.253 OA
ATOM     13  N   UNL     1      -0.957  -1.743   1.939  0.00  0.00    -0.313 N 
ATOM     14  H   UNL     1      -1.511  -1.442   1.201  0.00  0.00    +0.146 HD
ATOM     15  H   UNL     1      -1.331  -2.323   2.621  0.00  0.00    +0.146 HD
ENDBRANCH   1   7
BRANCH   3  16
ATOM     16  C   UNL     1       5.751   2.357   2.286  0.00  0.00    +0.073 C 
ATOM     17  C   UNL     1       6.659   1.437   1.469  0.00  0.00    +0.025 C 
ATOM     18  C   UNL     1       8.085   1.991   1.474  0.00  0.00    +0.033 C 
ATOM     19  C   UNL     1       8.598   2.066   2.914  0.00  0.00    +0.115 C 
ATOM     20  C   UNL     1       7.689   2.987   3.731  0.00  0.00    +0.033 C 
ATOM     21  C   UNL     1       6.263   2.433   3.726  0.00  0.00    +0.025 C 
BRANCH  19  22
ATOM     22  O   UNL     1       9.930   2.584   2.919  0.00  0.00    -0.392 OA
ATOM     23  H   UNL     1      10.319   2.659   3.801  0.00  0.00    +0.210 HD
ENDBRANCH  19  22
ENDBRANCH   3  16
TORSDOF 3
