REMARK  Name = ZINC20322185
REMARK  5 active torsions:
REMARK  status: ('A' for Active; 'I' for Inactive)
REMARK    1  A    between atoms: C_10  and  N_23
REMARK    2  A    between atoms: C_12  and  N_16
REMARK    3  A    between atoms: N_23  and  C_24
REMARK    4  A    between atoms: C_24  and  C_25
REMARK    5  A    between atoms: C_25  and  N_26
REMARK                            x       y       z     vdW  Elec       q    Type
REMARK                         _______ _______ _______ _____ _____    ______ ____
ROOT
ATOM      1  C   UNL     1     -12.937  -6.735   2.716  0.00  0.00    +0.001 A 
ATOM      2  C   UNL     1     -12.037  -7.191   1.762  0.00  0.00    +0.001 A 
ATOM      3  C   UNL     1     -10.814  -6.582   1.604  0.00  0.00    +0.012 A 
ATOM      4  C   UNL     1     -10.461  -5.491   2.406  0.00  0.00    +0.033 A 
ATOM      5  C   UNL     1     -11.381  -5.029   3.379  0.00  0.00    +0.031 A 
ATOM      6  C   UNL     1     -12.618  -5.666   3.520  0.00  0.00    +0.012 A 
ATOM      7  C   UNL     1     -11.025  -3.891   4.225  0.00  0.00    +0.176 A 
ATOM      8  C   UNL     1      -9.787  -3.346   3.995  0.00  0.00    +0.063 A 
ATOM      9  C   UNL     1      -8.803  -3.755   3.031  0.00  0.00    +0.056 A 
ATOM     10  C   UNL     1      -7.606  -3.022   2.998  0.00  0.00    +0.041 A 
ATOM     11  C   UNL     1      -7.418  -1.954   3.884  0.00  0.00    +0.049 A 
ATOM     12  C   UNL     1      -8.342  -1.531   4.818  0.00  0.00    +0.061 A 
ATOM     13  C   UNL     1      -9.625  -2.236   4.927  0.00  0.00    +0.136 A 
ATOM     14  N   UNL     1     -10.750  -2.248   5.585  0.00  0.00    -0.076 NA
ATOM     15  O   UNL     1     -11.516  -3.137   5.216  0.00  0.00    -0.353 OA
ATOM     16  C   UNL     1      -9.139  -4.857   2.211  0.00  0.00    +0.196 C 
ATOM     17  O   UNL     1      -8.361  -5.272   1.366  0.00  0.00    -0.287 OA
ENDROOT
BRANCH  12  18
ATOM     18  N   UNL     1      -8.062  -0.461   5.643  0.00  0.00    -0.328 N 
ATOM     19  C   UNL     1      -7.855   0.775   4.856  0.00  0.00    +0.105 C 
ATOM     20  C   UNL     1      -7.284   1.900   5.676  0.00  0.00    +0.019 C 
ATOM     21  C   UNL     1      -5.748   1.882   5.529  0.00  0.00    +0.002 C 
ATOM     22  C   UNL     1      -5.127   0.856   6.358  0.00  0.00    +0.002 C 
ATOM     23  C   UNL     1      -5.601  -0.564   5.981  0.00  0.00    +0.019 C 
ATOM     24  C   UNL     1      -6.963  -0.787   6.579  0.00  0.00    +0.105 C 
ENDBRANCH  12  18
BRANCH  10  25
ATOM     25  N   UNL     1      -6.615  -3.357   2.099  0.00  0.00    -0.345 N 
ATOM     26  H   UNL     1      -6.763  -4.199   1.407  0.00  0.00    +0.146 HD
BRANCH  25  27
ATOM     27  C   UNL     1      -5.367  -2.592   2.066  0.00  0.00    +0.083 C 
BRANCH  27  28
ATOM     28  C   UNL     1      -4.445  -3.165   0.988  0.00  0.00    -0.060 C 
BRANCH  28  29
ATOM     29  N   UNL     1      -3.193  -2.397   0.955  0.00  0.00    +0.383 N 
ATOM     30  C   UNL     1      -2.384  -2.760  -0.217  0.00  0.00    -0.060 C 
ATOM     31  C   UNL     1      -1.056  -1.999  -0.172  0.00  0.00    +0.088 C 
ATOM     32  N   UNL     1      -1.324  -0.554  -0.147  0.00  0.00    -0.319 N 
ATOM     33  C   UNL     1      -2.133  -0.192   1.024  0.00  0.00    +0.088 C 
ATOM     34  C   UNL     1      -3.461  -0.953   0.980  0.00  0.00    -0.060 C 
ATOM     35  C   UNL     1      -0.139   0.172  -0.178  0.00  0.00    +0.121 A 
ATOM     36  C   UNL     1      -0.182   1.562  -0.161  0.00  0.00    +0.043 A 
ATOM     37  C   UNL     1       1.004   2.273  -0.192  0.00  0.00    +0.005 A 
ATOM     38  C   UNL     1       2.199   1.566  -0.239  0.00  0.00    +0.020 A 
ATOM     39  C   UNL     1       2.168   0.186  -0.253  0.00  0.00    +0.113 A 
ATOM     40  N   UNL     1       1.020  -0.466  -0.223  0.00  0.00    -0.240 NA
ATOM     41  H   UNL     1      -2.618  -2.652   1.857  0.00  0.00    -0.082 HD
ENDBRANCH  28  29
ENDBRANCH  27  28
ENDBRANCH  25  27
ENDBRANCH  10  25
TORSDOF 5
