REMARK  Name = ZINC64731863
REMARK  12 active torsions:
REMARK  status: ('A' for Active; 'I' for Inactive)
REMARK    1  A    between atoms: C_1  and  C_2
REMARK    2  A    between atoms: C_2  and  O_3
REMARK    3  A    between atoms: O_3  and  C_4
REMARK    4  A    between atoms: C_4  and  C_6
REMARK    5  A    between atoms: C_8  and  C_26
REMARK    6  A    between atoms: C_9  and  C_13
REMARK    7  A    between atoms: C_10  and  C_12
REMARK    8  A    between atoms: C_13  and  C_14
REMARK    9  A    between atoms: C_14  and  C_15
REMARK   10  A    between atoms: N_17  and  C_18
REMARK   11  A    between atoms: C_20  and  C_25
REMARK   12  A    between atoms: C_23  and  C_24
REMARK                            x       y       z     vdW  Elec       q    Type
REMARK                         _______ _______ _______ _____ _____    ______ ____
ROOT
ATOM      1  C   UNL     1      -0.441  -4.155  -5.232  0.00  0.00    +0.046 C 
ENDROOT
BRANCH   1   4
ATOM      2  C   UNL     1       1.482  -2.395  -2.536  0.00  0.00    +0.240 C 
ATOM      3  C   UNL     1       0.540  -2.390  -3.719  0.00  0.00    -0.033 C 
ATOM      4  C   UNL     1       0.408  -3.663  -4.088  0.00  0.00    -0.025 C 
ATOM      5  C   UNL     1       1.215  -4.511  -3.209  0.00  0.00    +0.037 C 
ATOM      6  N   UNL     1       1.835  -3.804  -2.320  0.00  0.00    -0.269 NA
ATOM      7  C   UNL     1       1.313  -6.010  -3.325  0.00  0.00    +0.065 C 
ATOM      8  C   UNL     1      -0.116  -1.190  -4.352  0.00  0.00    +0.042 C 
BRANCH   2   9
ATOM      9  C   UNL     1       0.793  -1.837  -1.317  0.00  0.00    +0.336 C 
ATOM     10  O   UNL     1       0.327  -2.586  -0.491  0.00  0.00    -0.248 OA
BRANCH   9  11
ATOM     11  O   UNL     1       0.697  -0.509  -1.150  0.00  0.00    -0.463 OA
BRANCH  11  13
ATOM     12  C   UNL     1       0.019   1.480   0.045  0.00  0.00    +0.048 C 
ATOM     13  C   UNL     1       0.030  -0.050   0.028  0.00  0.00    +0.229 C 
ENDBRANCH  11  13
ENDBRANCH   9  11
ENDBRANCH   2   9
ENDBRANCH   1   4
BRANCH   1  14
ATOM     14  C   UNL     1       0.426  -4.297  -6.485  0.00  0.00    +0.101 C 
BRANCH  14  15
ATOM     15  C   UNL     1      -0.423  -4.788  -7.629  0.00  0.00    +0.218 C 
ATOM     16  O   UNL     1      -1.605  -5.004  -7.459  0.00  0.00    -0.275 OA
ATOM     17  N   UNL     1       0.130  -4.989  -8.841  0.00  0.00    -0.285 N 
ATOM     18  H   UNL     1       1.055  -4.741  -8.999  0.00  0.00    +0.155 HD
BRANCH  17  19
ATOM     19  C   UNL     1      -0.628  -5.554  -9.872  0.00  0.00    +0.037 A 
ATOM     20  C   UNL     1      -1.717  -6.362  -9.572  0.00  0.00    +0.027 A 
ATOM     21  C   UNL     1      -2.464  -6.919 -10.592  0.00  0.00    -0.049 A 
ATOM     22  C   UNL     1      -2.129  -6.671 -11.911  0.00  0.00    +0.004 A 
ATOM     23  C   UNL     1      -1.046  -5.867 -12.213  0.00  0.00    +0.005 A 
ATOM     24  C   UNL     1      -0.298  -5.302 -11.197  0.00  0.00    -0.029 A 
ATOM     25  C   UNL     1       0.878  -4.420 -11.527  0.00  0.00    +0.045 C 
ATOM     26  C   UNL     1      -3.645  -7.796 -10.268  0.00  0.00    +0.044 C 
ENDBRANCH  17  19
ENDBRANCH  14  15
ENDBRANCH   1  14
TORSDOF 7
