REMARK  Name = ZINC37511241
REMARK  10 active torsions:
REMARK  status: ('A' for Active; 'I' for Inactive)
REMARK    1  A    between atoms: C_1  and  C_2
REMARK    2  A    between atoms: C_2  and  N_3
REMARK    3  A    between atoms: C_9  and  C_11
REMARK    4  A    between atoms: C_14  and  C_16
REMARK    5  A    between atoms: C_16  and  N_17
REMARK    6  A    between atoms: C_20  and  C_28
REMARK    7  A    between atoms: C_28  and  C_30
REMARK    8  A    between atoms: C_30  and  O_31
REMARK    9  A    between atoms: O_31  and  C_32
REMARK   10  A    between atoms: C_35  and  C_38
REMARK                            x       y       z     vdW  Elec       q    Type
REMARK                         _______ _______ _______ _____ _____    ______ ____
ROOT
ATOM      1  N   UNL     1      -4.550  -7.159  -1.923  0.00  0.00    -0.258 N 
ATOM      2  C   UNL     1      -5.669  -8.004  -1.962  0.00  0.00    +0.079 A 
ATOM      3  C   UNL     1      -6.139  -8.602  -0.811  0.00  0.00    +0.038 A 
ATOM      4  C   UNL     1      -7.257  -9.443  -0.873  0.00  0.00    +0.023 A 
ATOM      5  C   UNL     1      -7.890  -9.671  -2.101  0.00  0.00    +0.015 A 
ATOM      6  C   UNL     1      -7.415  -9.069  -3.245  0.00  0.00    +0.048 A 
ATOM      7  C   UNL     1      -6.307  -8.235  -3.184  0.00  0.00    +0.143 A 
ATOM      8  O   UNL     1      -5.833  -7.636  -4.307  0.00  0.00    -0.481 OA
ATOM      9  C   UNL     1      -5.252  -6.339  -4.148  0.00  0.00    +0.325 C 
ATOM     10  C   UNL     1      -4.308  -6.344  -2.973  0.00  0.00    +0.258 C 
ATOM     11  O   UNL     1      -3.332  -5.623  -2.972  0.00  0.00    -0.271 OA
ENDROOT
BRANCH   4  12
ATOM     12  C   UNL     1      -7.764 -10.084   0.347  0.00  0.00    +0.200 C 
ATOM     13  O   UNL     1      -7.215  -9.886   1.410  0.00  0.00    -0.288 OA
BRANCH  12  14
ATOM     14  C   UNL     1      -8.968 -10.989   0.278  0.00  0.00    +0.308 C 
BRANCH  14  15
ATOM     15  O   UNL     1      -9.264 -11.487   1.584  0.00  0.00    -0.484 OA
BRANCH  15  16
ATOM     16  C   UNL     1     -10.329 -12.324   1.698  0.00  0.00    +0.121 A 
ATOM     17  C   UNL     1     -11.070 -12.662   0.575  0.00  0.00    +0.046 A 
ATOM     18  C   UNL     1     -12.152 -13.514   0.694  0.00  0.00    +0.007 A 
ATOM     19  C   UNL     1     -12.496 -14.027   1.930  0.00  0.00    -0.050 A 
ATOM     20  C   UNL     1     -11.760 -13.691   3.051  0.00  0.00    +0.007 A 
ATOM     21  C   UNL     1     -10.674 -12.845   2.937  0.00  0.00    +0.046 A 
ATOM     22  C   UNL     1     -13.677 -14.955   2.057  0.00  0.00    +0.044 C 
ENDBRANCH  15  16
ENDBRANCH  14  15
ENDBRANCH  12  14
ENDBRANCH   4  12
BRANCH   1  23
ATOM     23  C   UNL     1      -3.661  -7.155  -0.758  0.00  0.00    +0.188 C 
BRANCH  23  27
ATOM     24  C   UNL     1      -4.419  -4.246   1.316  0.00  0.00    +0.190 A 
ATOM     25  C   UNL     1      -5.205  -5.175   1.936  0.00  0.00    +0.055 A 
ATOM     26  C   UNL     1      -5.026  -6.383   1.244  0.00  0.00    +0.047 A 
ATOM     27  C   UNL     1      -4.149  -6.142   0.244  0.00  0.00    +0.124 A 
ATOM     28  O   UNL     1      -3.790  -4.852   0.288  0.00  0.00    -0.453 OA
BRANCH  24  35
ATOM     29  N   UNL     1      -0.965  -0.698   0.649  0.00  0.00    +0.382 N 
ATOM     30  C   UNL     1      -1.867  -0.237   1.711  0.00  0.00    -0.060 C 
ATOM     31  C   UNL     1      -3.309  -0.612   1.354  0.00  0.00    +0.089 C 
ATOM     32  N   UNL     1      -3.364  -2.060   1.095  0.00  0.00    -0.299 N 
ATOM     33  C   UNL     1      -2.383  -2.635   0.162  0.00  0.00    +0.089 C 
ATOM     34  C   UNL     1      -0.985  -2.164   0.576  0.00  0.00    -0.060 C 
ATOM     35  C   UNL     1      -4.286  -2.836   1.697  0.00  0.00    +0.282 C 
ATOM     36  O   UNL     1      -5.010  -2.368   2.556  0.00  0.00    -0.267 OA
ATOM     37  H   UNL     1      -1.266  -0.314  -0.235  0.00  0.00    -0.082 HD
BRANCH  29  39
ATOM     38  C   UNL     1       0.451   1.286   0.891  0.00  0.00    -0.017 C 
ATOM     39  C   UNL     1       0.402  -0.242   0.938  0.00  0.00    -0.082 C 
ENDBRANCH  29  39
ENDBRANCH  24  35
ENDBRANCH  23  27
ENDBRANCH   1  23
TORSDOF 8
