REMARK  Name = ZINC12572217
REMARK  10 active torsions:
REMARK  status: ('A' for Active; 'I' for Inactive)
REMARK    1  A    between atoms: C_5  and  N_7
REMARK    2  A    between atoms: C_8  and  C_10
REMARK    3  A    between atoms: C_10  and  C_11
REMARK    4  A    between atoms: C_11  and  C_12
REMARK    5  A    between atoms: N_14  and  N_15
REMARK    6  A    between atoms: N_15  and  C_16
REMARK    7  A    between atoms: C_16  and  N_18
REMARK    8  A    between atoms: C_19  and  C_21
REMARK    9  A    between atoms: C_21  and  O_22
REMARK   10  A    between atoms: O_22  and  C_23
REMARK                            x       y       z     vdW  Elec       q    Type
REMARK                         _______ _______ _______ _____ _____    ______ ____
ROOT
ATOM      1  C   UNL     1       6.495   8.914  -0.048  0.00  0.00    +0.230 C 
ATOM      2  O   UNL     1       6.321  10.115  -0.043  0.00  0.00    -0.274 OA
ATOM      3  N   UNL     1       5.436   8.080  -0.048  0.00  0.00    -0.235 N 
ATOM      4  H   UNL     1       5.575   7.120  -0.052  0.00  0.00    +0.173 HD
ENDROOT
BRANCH   3   5
ATOM      5  N   UNL     1       4.135   8.600  -0.044  0.00  0.00    -0.246 N 
ATOM      6  H   UNL     1       3.996   9.559  -0.041  0.00  0.00    +0.172 HD
BRANCH   5   7
ATOM      7  C   UNL     1       3.076   7.765  -0.045  0.00  0.00    +0.153 C 
ATOM      8  S   UNL     1       1.486   8.400  -0.040  0.00  0.00    -0.017 S 
BRANCH   7   9
ATOM      9  N   UNL     1       3.269   6.431  -0.050  0.00  0.00    -0.264 N 
ATOM     10  C   UNL     1       2.211   5.597  -0.051  0.00  0.00    +0.256 C 
ATOM     11  O   UNL     1       1.085   6.047  -0.047  0.00  0.00    -0.272 OA
ATOM     12  H   UNL     1       4.170   6.072  -0.053  0.00  0.00    +0.157 HD
BRANCH  10  13
ATOM     13  C   UNL     1       2.427   4.106  -0.056  0.00  0.00    +0.324 C 
BRANCH  13  14
ATOM     14  O   UNL     1       1.162   3.441  -0.056  0.00  0.00    -0.483 OA
BRANCH  14  15
ATOM     15  C   UNL     1       1.178   2.082  -0.061  0.00  0.00    +0.121 A 
ATOM     16  C   UNL     1      -0.014   1.373  -0.061  0.00  0.00    +0.047 A 
ATOM     17  C   UNL     1       0.006  -0.008  -0.066  0.00  0.00    +0.019 A 
ATOM     18  C   UNL     1       1.213  -0.684  -0.070  0.00  0.00    +0.018 A 
ATOM     19  C   UNL     1       2.403   0.021  -0.069  0.00  0.00    +0.019 A 
ATOM     20  C   UNL     1       2.388   1.403  -0.065  0.00  0.00    +0.047 A 
ATOM     21 BR   UNL     1       1.236  -2.575  -0.075  0.00  0.00    -0.050 Br
ENDBRANCH  14  15
ENDBRANCH  13  14
ENDBRANCH  10  13
ENDBRANCH   7   9
ENDBRANCH   5   7
ENDBRANCH   3   5
BRANCH   1  22
ATOM     22  C   UNL     1       7.894   8.355  -0.052  0.00  0.00    +0.106 C 
BRANCH  22  23
ATOM     23  C   UNL     1       8.903   9.506  -0.050  0.00  0.00    +0.105 C 
BRANCH  23  25
ATOM     24  N   UNL     1      11.361   9.782  -0.054  0.00  0.00    -0.284 N 
ATOM     25  C   UNL     1      10.302   8.947  -0.055  0.00  0.00    +0.218 C 
ATOM     26  O   UNL     1      10.476   7.747  -0.059  0.00  0.00    -0.275 OA
ATOM     27  H   UNL     1      11.223  10.740  -0.116  0.00  0.00    +0.155 HD
BRANCH  24  32
ATOM     28  C   UNL     1      14.252   7.548  -0.478  0.00  0.00    +0.002 A 
ATOM     29  C   UNL     1      15.225   8.244   0.215  0.00  0.00    +0.002 A 
ATOM     30  C   UNL     1      14.919   9.449   0.820  0.00  0.00    +0.022 A 
ATOM     31  C   UNL     1      13.639   9.963   0.733  0.00  0.00    +0.062 A 
ATOM     32  C   UNL     1      12.659   9.265   0.037  0.00  0.00    +0.052 A 
ATOM     33  C   UNL     1      12.969   8.052  -0.564  0.00  0.00    +0.025 A 
ATOM     34 CL   UNL     1      13.255  11.476   1.492  0.00  0.00    -0.082 Cl
ENDBRANCH  24  32
ENDBRANCH  23  25
ENDBRANCH  22  23
ENDBRANCH   1  22
TORSDOF 10
