REMARK  Name = ZINC13278938
REMARK  8 active torsions:
REMARK  status: ('A' for Active; 'I' for Inactive)
REMARK    1  A    between atoms: C_1  and  C_2
REMARK    2  A    between atoms: C_5  and  C_23
REMARK    3  A    between atoms: C_6  and  S_9
REMARK    4  A    between atoms: S_9  and  N_12
REMARK    5  A    between atoms: N_12  and  C_13
REMARK    6  A    between atoms: C_16  and  C_21
REMARK    7  A    between atoms: C_18  and  S_19
REMARK    8  A    between atoms: S_19  and  C_20
REMARK                            x       y       z     vdW  Elec       q    Type
REMARK                         _______ _______ _______ _____ _____    ______ ____
ROOT
ATOM      1  S   UNL     1       0.636  -1.629  -0.485  0.00  0.00    +0.074 S 
ATOM      2  O   UNL     1       1.835  -1.599   0.276  0.00  0.00    -0.150 OA
ATOM      3  O   UNL     1      -0.577  -2.168   0.023  0.00  0.00    -0.150 OA
ENDROOT
BRANCH   1   9
ATOM      4  C   UNL     1       1.891   3.445  -0.645  0.00  0.00    +0.045 C 
ATOM      5  C   UNL     1       0.917   2.349  -0.994  0.00  0.00    -0.029 A 
ATOM      6  C   UNL     1      -0.247   2.650  -1.676  0.00  0.00    +0.025 A 
ATOM      7  C   UNL     1      -1.142   1.645  -1.994  0.00  0.00    +0.046 A 
ATOM      8  C   UNL     1      -0.872   0.337  -1.630  0.00  0.00    -0.004 A 
ATOM      9  C   UNL     1       0.292   0.036  -0.949  0.00  0.00    +0.131 A 
ATOM     10  C   UNL     1       1.187   1.042  -0.630  0.00  0.00    +0.071 A 
ATOM     11 CL   UNL     1       2.648   0.664   0.227  0.00  0.00    -0.081 Cl
ATOM     12  C   UNL     1      -1.847  -0.758  -1.978  0.00  0.00    +0.047 C 
ATOM     13 CL   UNL     1      -2.601   2.022  -2.857  0.00  0.00    -0.083 Cl
ENDBRANCH   1   9
BRANCH   1  14
ATOM     14  N   UNL     1       0.978  -2.463  -1.875  0.00  0.00    -0.215 N 
ATOM     15  H   UNL     1       0.383  -3.166  -2.178  0.00  0.00    +0.174 HD
BRANCH  14  16
ATOM     16  C   UNL     1       2.122  -2.155  -2.608  0.00  0.00    +0.061 A 
ATOM     17  C   UNL     1       2.264  -0.893  -3.174  0.00  0.00    +0.026 A 
ATOM     18  C   UNL     1       3.393  -0.584  -3.900  0.00  0.00    +0.017 A 
ATOM     19  C   UNL     1       4.401  -1.538  -4.069  0.00  0.00    +0.064 A 
ATOM     20  C   UNL     1       4.260  -2.808  -3.500  0.00  0.00    +0.031 A 
ATOM     21  C   UNL     1       3.127  -3.113  -2.768  0.00  0.00    +0.031 A 
BRANCH  19  22
ATOM     22  C   UNL     1       5.609  -1.207  -4.845  0.00  0.00    +0.387 C 
ATOM     23  O   UNL     1       6.484  -2.037  -4.991  0.00  0.00    -0.241 OA
ATOM     24  O   UNL     1       5.743   0.017  -5.393  0.00  0.00    -0.241 OA
ENDBRANCH  19  22
BRANCH  21  25
ATOM     25  S   UNL     1       2.949  -4.709  -2.043  0.00  0.00    -0.127 S 
ATOM     26  C   UNL     1       4.469  -5.578  -2.515  0.00  0.00    +0.090 C 
ENDBRANCH  21  25
ENDBRANCH  14  16
ENDBRANCH   1  14
TORSDOF 5
