REMARK  Name = ZINC39666937
REMARK  7 active torsions:
REMARK  status: ('A' for Active; 'I' for Inactive)
REMARK    1  A    between atoms: C_1  and  C_2
REMARK    2  A    between atoms: C_5  and  C_9
REMARK    3  A    between atoms: C_6  and  C_8
REMARK    4  A    between atoms: C_9  and  C_10
REMARK    5  A    between atoms: C_10  and  N_11
REMARK    6  A    between atoms: C_12  and  C_14
REMARK    7  A    between atoms: C_25  and  C_27
REMARK                            x       y       z     vdW  Elec       q    Type
REMARK                         _______ _______ _______ _____ _____    ______ ____
ROOT
ATOM      1  C   UNL     1      -2.682  -8.117  -0.378  0.00  0.00    +0.100 C 
ATOM      2  C   UNL     1      -2.083  -8.894  -1.571  0.00  0.00    +0.121 C 
ATOM      3  N   UNL     1      -2.923 -10.110  -1.687  0.00  0.00    -0.296 N 
ATOM      4  C   UNL     1      -4.301  -9.633  -1.417  0.00  0.00    +0.115 C 
ATOM      5  C   UNL     1      -4.138  -8.604  -0.280  0.00  0.00    -0.004 C 
ATOM      6  C   UNL     1      -5.100  -7.437  -0.483  0.00  0.00    -0.010 C 
ATOM      7  C   UNL     1      -6.539  -7.935  -0.324  0.00  0.00    -0.082 C 
ATOM      8  N   UNL     1      -6.715  -8.512   1.014  0.00  0.00    +0.379 N 
ATOM      9  C   UNL     1      -5.853  -9.691   1.167  0.00  0.00    -0.082 C 
ATOM     10  C   UNL     1      -4.384  -9.267   1.071  0.00  0.00    -0.010 C 
ATOM     11  C   UNL     1      -2.525 -11.365  -1.972  0.00  0.00    +0.247 C 
ATOM     12  O   UNL     1      -1.339 -11.626  -2.041  0.00  0.00    -0.270 OA
ATOM     13  H   UNL     1      -6.469  -7.824   1.710  0.00  0.00    -0.086 HD
ATOM     14  H   UNL     1      -7.678  -8.783   1.138  0.00  0.00    -0.086 HD
ENDROOT
BRANCH  11  15
ATOM     15  C   UNL     1      -3.529 -12.425  -2.199  0.00  0.00    +0.038 A 
ATOM     16  C   UNL     1      -4.838 -12.088  -2.548  0.00  0.00    +0.014 A 
ATOM     17  C   UNL     1      -5.771 -13.081  -2.759  0.00  0.00    +0.022 A 
ATOM     18  C   UNL     1      -5.413 -14.412  -2.625  0.00  0.00    +0.059 A 
ATOM     19  C   UNL     1      -4.115 -14.754  -2.278  0.00  0.00    +0.060 A 
ATOM     20  C   UNL     1      -3.171 -13.769  -2.071  0.00  0.00    +0.034 A 
ATOM     21 CL   UNL     1      -3.675 -16.425  -2.112  0.00  0.00    -0.082 Cl
ATOM     22 CL   UNL     1      -6.593 -15.656  -2.891  0.00  0.00    -0.082 Cl
ENDBRANCH  11  15
BRANCH   1  24
ATOM     23  N   UNL     1      -2.523  -5.769   0.384  0.00  0.00    -0.315 N 
ATOM     24  C   UNL     1      -2.641  -6.635  -0.643  0.00  0.00    +0.218 C 
ATOM     25  O   UNL     1      -2.715  -6.220  -1.780  0.00  0.00    -0.275 OA
ATOM     26  H   UNL     1      -2.464  -6.101   1.293  0.00  0.00    +0.149 HD
BRANCH  23  27
ATOM     27  C   UNL     1      -2.483  -4.328   0.126  0.00  0.00    +0.109 C 
BRANCH  27  28
ATOM     28  C   UNL     1      -2.345  -3.576   1.451  0.00  0.00    +0.054 C 
BRANCH  28  33
ATOM     29  C   UNL     1      -2.188   2.110   0.430  0.00  0.00    +0.044 C 
ATOM     30  C   UNL     1      -2.229   0.627   0.697  0.00  0.00    -0.050 A 
ATOM     31  C   UNL     1      -1.051  -0.085   0.827  0.00  0.00    +0.003 A 
ATOM     32  C   UNL     1      -1.089  -1.445   1.071  0.00  0.00    +0.004 A 
ATOM     33  C   UNL     1      -2.304  -2.093   1.186  0.00  0.00    -0.043 A 
ATOM     34  C   UNL     1      -3.482  -1.381   1.056  0.00  0.00    -0.047 A 
ATOM     35  C   UNL     1      -3.444  -0.021   0.816  0.00  0.00    +0.007 A 
ATOM     36  C   UNL     1      -4.807  -2.088   1.181  0.00  0.00    +0.044 C 
ENDBRANCH  28  33
ENDBRANCH  27  28
ENDBRANCH  23  27
ENDBRANCH   1  24
TORSDOF 5
