REMARK  Name = ZINC05163484
REMARK  10 active torsions:
REMARK  status: ('A' for Active; 'I' for Inactive)
REMARK    1  A    between atoms: C_1  and  C_2
REMARK    2  A    between atoms: C_2  and  O_3
REMARK    3  A    between atoms: O_3  and  C_4
REMARK    4  A    between atoms: C_7  and  C_10
REMARK    5  A    between atoms: C_17  and  N_33
REMARK    6  A    between atoms: C_18  and  C_31
REMARK    7  A    between atoms: C_19  and  C_21
REMARK    8  A    between atoms: C_24  and  C_27
REMARK    9  A    between atoms: C_27  and  O_29
REMARK   10  A    between atoms: O_29  and  C_30
REMARK                            x       y       z     vdW  Elec       q    Type
REMARK                         _______ _______ _______ _____ _____    ______ ____
ROOT
ATOM      1  C   UNL     1       1.104  -5.970   1.762  0.00  0.00    +0.074 A 
ATOM      2  C   UNL     1       0.998  -6.695   2.901  0.00  0.00    +0.054 A 
ATOM      3  C   UNL     1       1.193  -8.052   2.576  0.00  0.00    +0.245 A 
ATOM      4  N   UNL     1       1.409  -8.138   1.294  0.00  0.00    -0.135 NA
ATOM      5  N   UNL     1       1.354  -6.848   0.746  0.00  0.00    -0.273 N 
ATOM      6  H   UNL     1       1.475  -6.619  -0.190  0.00  0.00    +0.189 HD
ATOM      7  O   UNL     1       1.143  -9.033   3.517  0.00  0.00    -0.421 OA
ATOM      8  C   UNL     1       0.635  -8.711   4.723  0.00  0.00    +0.201 C 
ATOM      9  C   UNL     1       0.416  -7.450   5.149  0.00  0.00    +0.098 C 
ATOM     10  C   UNL     1       0.724  -6.235   4.311  0.00  0.00    +0.102 C 
ENDROOT
BRANCH   1  14
ATOM     11  C   UNL     1       0.712  -1.752   1.411  0.00  0.00    +0.121 A 
ATOM     12  C   UNL     1       1.774  -2.402   0.798  0.00  0.00    +0.046 A 
ATOM     13  C   UNL     1       1.905  -3.770   0.909  0.00  0.00    +0.013 A 
ATOM     14  C   UNL     1       0.968  -4.501   1.640  0.00  0.00    +0.000 A 
ATOM     15  C   UNL     1      -0.099  -3.844   2.256  0.00  0.00    +0.013 A 
ATOM     16  C   UNL     1      -0.220  -2.475   2.144  0.00  0.00    +0.046 A 
BRANCH  11  17
ATOM     17  O   UNL     1       0.587  -0.404   1.299  0.00  0.00    -0.492 OA
BRANCH  17  19
ATOM     18  C   UNL     1       1.274   1.778   0.518  0.00  0.00    +0.048 C 
ATOM     19  C   UNL     1       1.580   0.278   0.531  0.00  0.00    +0.225 C 
ENDBRANCH  17  19
ENDBRANCH  11  17
ENDBRANCH   1  14
BRANCH  10  20
ATOM     20  C   UNL     1       1.938  -5.532   4.861  0.00  0.00    -0.035 A 
ATOM     21  C   UNL     1       3.158  -6.185   4.891  0.00  0.00    +0.005 A 
ATOM     22  C   UNL     1       4.273  -5.547   5.394  0.00  0.00    +0.015 A 
ATOM     23  C   UNL     1       4.169  -4.239   5.872  0.00  0.00    +0.059 A 
ATOM     24  C   UNL     1       2.935  -3.586   5.838  0.00  0.00    +0.015 A 
ATOM     25  C   UNL     1       1.829  -4.234   5.328  0.00  0.00    +0.005 A 
BRANCH  23  26
ATOM     26  C   UNL     1       5.359  -3.550   6.412  0.00  0.00    +0.339 C 
ATOM     27  O   UNL     1       6.431  -4.121   6.441  0.00  0.00    -0.245 OA
BRANCH  26  28
ATOM     28  O   UNL     1       5.255  -2.288   6.872  0.00  0.00    -0.464 OA
ATOM     29  C   UNL     1       6.446  -1.683   7.380  0.00  0.00    +0.280 C 
ENDBRANCH  26  28
ENDBRANCH  23  26
ENDBRANCH  10  20
BRANCH   8  30
ATOM     30  N   UNL     1       0.318  -9.738   5.577  0.00  0.00    -0.328 N 
ATOM     31  H   UNL     1       0.463 -10.658   5.305  0.00  0.00    +0.145 HD
ATOM     32  H   UNL     1      -0.050  -9.544   6.454  0.00  0.00    +0.145 HD
ENDBRANCH   8  30
BRANCH   9  33
ATOM     33  C   UNL     1      -0.135  -7.256   6.457  0.00  0.00    +0.101 C 
ATOM     34  N   UNL     1      -0.571  -7.102   7.494  0.00  0.00    -0.191 NA
ENDBRANCH   9  33
TORSDOF 8
