REMARK  Name = ZINC12161350
REMARK  7 active torsions:
REMARK  status: ('A' for Active; 'I' for Inactive)
REMARK    1  A    between atoms: C_4  and  C_7
REMARK    2  A    between atoms: C_7  and  C_13
REMARK    3  A    between atoms: C_13  and  N_73
REMARK    4  A    between atoms: C_14  and  N_73
REMARK    5  A    between atoms: N_17  and  C_20
REMARK    6  A    between atoms: C_23  and  C_26
REMARK    7  A    between atoms: C_32  and  O_35
REMARK                            x       y       z     vdW  Elec       q    Type
REMARK                         _______ _______ _______ _____ _____    ______ ____
ROOT
ATOM      1  C   UNL     1       1.684   6.109   0.882  0.00  0.00    -0.069 C 
ATOM      2  C   UNL     1       2.180   5.511  -0.437  0.00  0.00    +0.003 C 
ATOM      3  C   UNL     1       2.216   3.985  -0.317  0.00  0.00    +0.103 C 
ATOM      4  N   UNL     1       0.870   3.486  -0.008  0.00  0.00    -0.330 N 
ATOM      5  C   UNL     1       0.392   4.010   1.278  0.00  0.00    +0.103 C 
ATOM      6  C   UNL     1       0.301   5.536   1.206  0.00  0.00    +0.003 C 
ENDROOT
BRANCH   4   7
ATOM      7  C   UNL     1       0.839   2.095  -0.021  0.00  0.00    +0.030 A 
ATOM      8  C   UNL     1      -0.350   1.424   0.249  0.00  0.00    +0.024 A 
ATOM      9  C   UNL     1      -0.384   0.049   0.236  0.00  0.00    +0.015 A 
ATOM     10  C   UNL     1       0.778  -0.675  -0.048  0.00  0.00    +0.037 A 
ATOM     11  C   UNL     1       1.971   0.002  -0.319  0.00  0.00    +0.015 A 
ATOM     12  C   UNL     1       1.998   1.378  -0.305  0.00  0.00    +0.024 A 
BRANCH  10  13
ATOM     13  C   UNL     1       0.745  -2.150  -0.062  0.00  0.00    +0.247 C 
ATOM     14  O   UNL     1      -0.257  -2.732  -0.430  0.00  0.00    -0.270 OA
ATOM     15  N   UNL     1       1.826  -2.851   0.333  0.00  0.00    -0.295 N 
ATOM     16  C   UNL     1       3.003  -2.166   0.884  0.00  0.00    +0.108 C 
ATOM     17  C   UNL     1       3.337  -2.789   2.248  0.00  0.00    +0.021 C 
ATOM     18  C   UNL     1       3.510  -4.301   2.083  0.00  0.00    +0.034 C 
ATOM     19  C   UNL     1       2.201  -4.915   1.581  0.00  0.00    +0.132 C 
ATOM     20  C   UNL     1       1.852  -4.316   0.214  0.00  0.00    +0.139 C 
BRANCH  19  21
ATOM     21  O   UNL     1       2.354  -6.330   1.456  0.00  0.00    -0.390 OA
ATOM     22  H   UNL     1       1.561  -6.785   1.139  0.00  0.00    +0.210 HD
ENDBRANCH  19  21
ENDBRANCH  10  13
ENDBRANCH   4   7
BRANCH   1  23
ATOM     23  N   UNL     1       1.591   7.575   0.745  0.00  0.00    +0.382 N 
ATOM     24  H   UNL     1       2.349   7.907   0.138  0.00  0.00    -0.085 HD
ATOM     25  H   UNL     1       0.685   7.819   0.327  0.00  0.00    -0.085 HD
BRANCH  23  26
ATOM     26  C   UNL     1       1.706   8.222   2.066  0.00  0.00    -0.071 C 
BRANCH  26  27
ATOM     27  C   UNL     1       1.494   9.728   1.907  0.00  0.00    -0.015 C 
ATOM     28  C   UNL     1       1.651  10.414   3.268  0.00  0.00    +0.038 C 
ATOM     29  C   UNL     1       0.566   9.901   4.217  0.00  0.00    +0.160 C 
ATOM     30  O   UNL     1      -0.721  10.152   3.648  0.00  0.00    -0.380 OA
ATOM     31  C   UNL     1      -0.942   9.497   2.397  0.00  0.00    +0.160 C 
ATOM     32  C   UNL     1       0.083   9.993   1.374  0.00  0.00    +0.038 C 
BRANCH  27  36
ATOM     33  C   UNL     1       4.374  11.297  -0.830  0.00  0.00    +0.000 A 
ATOM     34  C   UNL     1       3.351  12.103  -0.366  0.00  0.00    +0.000 A 
ATOM     35  C   UNL     1       2.419  11.595   0.520  0.00  0.00    +0.004 A 
ATOM     36  C   UNL     1       2.510  10.282   0.941  0.00  0.00    -0.043 A 
ATOM     37  C   UNL     1       3.536   9.477   0.481  0.00  0.00    +0.004 A 
ATOM     38  C   UNL     1       4.465   9.984  -0.409  0.00  0.00    +0.000 A 
ENDBRANCH  27  36
ENDBRANCH  26  27
ENDBRANCH  23  26
ENDBRANCH   1  23
TORSDOF 7
