REMARK  Name = ZINC38676186
REMARK  7 active torsions:
REMARK  status: ('A' for Active; 'I' for Inactive)
REMARK    1  A    between atoms: C_1  and  C_2
REMARK    2  A    between atoms: C_4  and  C_12
REMARK    3  A    between atoms: C_13  and  C_14
REMARK    4  A    between atoms: N_25  and  C_26
REMARK    5  A    between atoms: C_26  and  C_27
REMARK    6  A    between atoms: C_27  and  C_28
REMARK    7  A    between atoms: C_28  and  O_29
REMARK                            x       y       z     vdW  Elec       q    Type
REMARK                         _______ _______ _______ _____ _____    ______ ____
ROOT
ATOM      1  C   UNL     1      -4.649  -0.827  -1.872  0.00  0.00    +0.185 C 
ATOM      2  N   UNL     1      -5.862  -0.233  -1.299  0.00  0.00    -0.322 N 
ATOM      3  C   UNL     1      -6.687  -1.032  -0.515  0.00  0.00    +0.041 A 
ATOM      4  C   UNL     1      -7.453  -0.510   0.513  0.00  0.00    +0.025 A 
ATOM      5  C   UNL     1      -8.254  -1.349   1.263  0.00  0.00    +0.016 A 
ATOM      6  C   UNL     1      -8.296  -2.709   0.995  0.00  0.00    +0.014 A 
ATOM      7  C   UNL     1      -7.540  -3.245  -0.027  0.00  0.00    +0.029 A 
ATOM      8  C   UNL     1      -6.730  -2.410  -0.792  0.00  0.00    +0.059 A 
ATOM      9  C   UNL     1      -5.909  -2.929  -1.901  0.00  0.00    +0.250 C 
ATOM     10  O   UNL     1      -6.098  -4.049  -2.335  0.00  0.00    -0.270 OA
ATOM     11  N   UNL     1      -4.948  -2.147  -2.427  0.00  0.00    -0.275 N 
ATOM     12  I   UNL     1      -9.516  -3.959   2.152  0.00  0.00    -0.044 I 
ATOM     13  H   UNL     1      -6.083   0.698  -1.462  0.00  0.00    +0.148 HD
ENDROOT
BRANCH   1  15
ATOM     14  C   UNL     1      -2.427  -0.333  -0.917  0.00  0.00    +0.005 C 
ATOM     15  C   UNL     1      -3.604  -0.965  -0.795  0.00  0.00    +0.015 C 
BRANCH  14  18
ATOM     16  C   UNL     1      -1.560  -2.956   0.658  0.00  0.00    +0.035 C 
ATOM     17  C   UNL     1      -1.427  -1.527   1.187  0.00  0.00    +0.107 C 
ATOM     18  C   UNL     1      -1.410  -0.545   0.036  0.00  0.00    -0.017 C 
ATOM     19  C   UNL     1      -0.185   0.104   0.115  0.00  0.00    +0.003 A 
ATOM     20  C   UNL     1       0.413   1.117  -0.671  0.00  0.00    +0.010 A 
ATOM     21  C   UNL     1       1.650   1.571  -0.355  0.00  0.00    +0.001 A 
ATOM     22  C   UNL     1       2.361   1.063   0.737  0.00  0.00    +0.002 A 
ATOM     23  C   UNL     1       1.853   0.094   1.534  0.00  0.00    +0.026 A 
ATOM     24  C   UNL     1       0.561  -0.434   1.267  0.00  0.00    +0.043 A 
ATOM     25  N   UNL     1      -0.145  -1.362   1.879  0.00  0.00    -0.378 N 
ATOM     26  H   UNL     1       0.138  -1.859   2.663  0.00  0.00    +0.160 HD
ENDBRANCH  14  18
ENDBRANCH   1  15
BRANCH  11  27
ATOM     27  C   UNL     1      -4.186  -2.631  -3.581  0.00  0.00    +0.112 C 
BRANCH  27  28
ATOM     28  C   UNL     1      -2.952  -3.393  -3.094  0.00  0.00    +0.047 C 
BRANCH  28  29
ATOM     29  C   UNL     1      -2.157  -3.899  -4.299  0.00  0.00    +0.157 C 
BRANCH  29  30
ATOM     30  O   UNL     1      -1.004  -4.611  -3.844  0.00  0.00    -0.395 OA
ATOM     31  H   UNL     1      -0.452  -4.961  -4.557  0.00  0.00    +0.209 HD
ENDBRANCH  29  30
ENDBRANCH  28  29
ENDBRANCH  27  28
ENDBRANCH  11  27
TORSDOF 6
