REMARK  Name = ZINC39482744
REMARK  8 active torsions:
REMARK  status: ('A' for Active; 'I' for Inactive)
REMARK    1  A    between atoms: C_4  and  O_7
REMARK    2  A    between atoms: O_7  and  S_8
REMARK    3  A    between atoms: S_8  and  C_11
REMARK    4  A    between atoms: C_14  and  N_25
REMARK    5  A    between atoms: C_15  and  N_17
REMARK    6  A    between atoms: N_25  and  S_26
REMARK    7  A    between atoms: S_26  and  C_29
REMARK    8  A    between atoms: C_34  and  O_35
REMARK                            x       y       z     vdW  Elec       q    Type
REMARK                         _______ _______ _______ _____ _____    ______ ____
ROOT
ATOM      1  C   UNL     1       2.511  -2.717   1.015  0.00  0.00    +0.130 A 
ATOM      2  C   UNL     1       1.552  -2.320   1.929  0.00  0.00    +0.032 A 
ATOM      3  C   UNL     1       0.936  -3.255   2.740  0.00  0.00    +0.028 A 
ATOM      4  C   UNL     1       1.279  -4.595   2.639  0.00  0.00    +0.069 A 
ATOM      5  C   UNL     1       2.247  -4.995   1.718  0.00  0.00    +0.054 A 
ATOM      6  C   UNL     1       2.856  -4.051   0.904  0.00  0.00    +0.055 A 
ENDROOT
BRANCH   5   7
ATOM      7  N   UNL     1       2.598  -6.346   1.611  0.00  0.00    -0.330 N 
ATOM      8  C   UNL     1       1.894  -7.240   0.679  0.00  0.00    +0.086 C 
ATOM      9  C   UNL     1       2.937  -7.983  -0.162  0.00  0.00    -0.060 C 
ATOM     10  N   UNL     1       3.888  -8.662   0.727  0.00  0.00    +0.400 N 
ATOM     11  C   UNL     1       4.641  -7.671   1.505  0.00  0.00    +0.119 C 
ATOM     12  C   UNL     1       3.687  -6.910   2.424  0.00  0.00    +0.120 C 
ATOM     13  O   UNL     1       5.634  -8.335   2.290  0.00  0.00    -0.250 OA
ATOM     14  H   UNL     1       3.383  -9.269   1.357  0.00  0.00    -0.082 HD
ATOM     15  H   UNL     1       4.529  -9.213   0.175  0.00  0.00    -0.082 HD
ENDBRANCH   5   7
BRANCH   1  16
ATOM     16  S   UNL     1       3.290  -1.520  -0.016  0.00  0.00    +0.151 S 
ATOM     17  O   UNL     1       4.539  -2.073  -0.408  0.00  0.00    -0.131 OA
ATOM     18  O   UNL     1       3.188  -0.274   0.660  0.00  0.00    -0.131 OA
BRANCH  16  19
ATOM     19  O   UNL     1       2.451  -1.399  -1.280  0.00  0.00    -0.342 OA
BRANCH  19  23
ATOM     20  C   UNL     1      -1.067   0.694  -0.766  0.00  0.00    +0.000 A 
ATOM     21  C   UNL     1       0.087   1.363  -1.130  0.00  0.00    +0.004 A 
ATOM     22  C   UNL     1       1.267   0.664  -1.302  0.00  0.00    +0.048 A 
ATOM     23  C   UNL     1       1.292  -0.710  -1.110  0.00  0.00    +0.157 A 
ATOM     24  C   UNL     1       0.133  -1.378  -0.745  0.00  0.00    +0.048 A 
ATOM     25  C   UNL     1      -1.044  -0.675  -0.574  0.00  0.00    +0.004 A 
ENDBRANCH  19  23
ENDBRANCH  16  19
ENDBRANCH   1  16
BRANCH   4  26
ATOM     26  N   UNL     1       0.657  -5.543   3.461  0.00  0.00    -0.214 N 
ATOM     27  H   UNL     1       1.160  -6.305   3.789  0.00  0.00    +0.174 HD
BRANCH  26  28
ATOM     28  S   UNL     1      -0.937  -5.363   3.873  0.00  0.00    +0.076 S 
ATOM     29  O   UNL     1      -1.631  -5.038   2.676  0.00  0.00    -0.150 OA
ATOM     30  O   UNL     1      -1.279  -6.488   4.671  0.00  0.00    -0.150 OA
BRANCH  28  31
ATOM     31  C   UNL     1      -1.048  -3.950   4.920  0.00  0.00    +0.150 A 
ATOM     32  C   UNL     1      -1.772  -2.845   4.515  0.00  0.00    +0.032 A 
ATOM     33  C   UNL     1      -1.860  -1.736   5.335  0.00  0.00    +0.002 A 
ATOM     34  C   UNL     1      -1.224  -1.730   6.563  0.00  0.00    +0.004 A 
ATOM     35  C   UNL     1      -0.500  -2.832   6.973  0.00  0.00    +0.047 A 
ATOM     36  C   UNL     1      -0.414  -3.949   6.153  0.00  0.00    +0.143 A 
BRANCH  36  37
ATOM     37  O   UNL     1       0.293  -5.037   6.556  0.00  0.00    -0.505 OA
ATOM     38  H   UNL     1       1.229  -5.010   6.314  0.00  0.00    +0.292 HD
ENDBRANCH  36  37
ENDBRANCH  28  31
ENDBRANCH  26  28
ENDBRANCH   4  26
TORSDOF 8
