REMARK  Name = ZINC31648818
REMARK  8 active torsions:
REMARK  status: ('A' for Active; 'I' for Inactive)
REMARK    1  A    between atoms: C_4  and  C_7
REMARK    2  A    between atoms: C_7  and  C_8
REMARK    3  A    between atoms: C_10  and  C_13
REMARK    4  A    between atoms: C_13  and  S_14
REMARK    5  A    between atoms: S_14  and  C_15
REMARK    6  A    between atoms: C_18  and  C_27
REMARK    7  A    between atoms: N_19  and  C_20
REMARK    8  A    between atoms: C_20  and  C_21
REMARK                            x       y       z     vdW  Elec       q    Type
REMARK                         _______ _______ _______ _____ _____    ______ ____
ROOT
ATOM      1  C   UNL     1      -6.980   1.461   5.925  0.00  0.00    +0.192 A 
ATOM      2  N   UNL     1      -6.303   2.150   6.814  0.00  0.00    -0.122 NA
ATOM      3  N   UNL     1      -7.062   2.465   7.802  0.00  0.00    -0.128 NA
ATOM      4  C   UNL     1      -8.273   1.997   7.604  0.00  0.00    +0.167 A 
ATOM      5  N   UNL     1      -8.260   1.344   6.393  0.00  0.00    -0.300 N 
ENDROOT
BRANCH   4   6
ATOM      6  C   UNL     1      -9.431   2.148   8.507  0.00  0.00    +0.044 A 
ATOM      7  C   UNL     1     -10.689   2.523   8.158  0.00  0.00    +0.095 A 
ATOM      8  N   UNL     1     -11.486   2.547   9.266  0.00  0.00    -0.360 N 
ATOM      9  H   UNL     1     -12.547   2.825   9.174  0.00  0.00    +0.165 HD
ATOM     10  C   UNL     1     -10.761   2.193  10.383  0.00  0.00    +0.047 A 
ATOM     11  C   UNL     1      -9.446   1.927   9.963  0.00  0.00    +0.010 A 
ATOM     12  C   UNL     1      -8.482   1.542  10.893  0.00  0.00    +0.011 A 
ATOM     13  C   UNL     1      -8.824   1.422  12.221  0.00  0.00    +0.001 A 
ATOM     14  C   UNL     1     -10.122   1.685  12.636  0.00  0.00    +0.002 A 
ATOM     15  C   UNL     1     -11.086   2.067  11.729  0.00  0.00    +0.026 A 
ENDBRANCH   4   6
BRANCH   1  16
ATOM     16  S   UNL     1      -6.357   0.815   4.409  0.00  0.00    -0.076 S 
BRANCH  16  17
ATOM     17  C   UNL     1      -4.640   1.379   4.508  0.00  0.00    +0.176 C 
BRANCH  17  20
ATOM     18  C   UNL     1      -3.025   0.804   1.354  0.00  0.00    +0.176 A 
ATOM     19  N   UNL     1      -3.769   1.588   2.154  0.00  0.00    -0.195 NA
ATOM     20  C   UNL     1      -3.892   0.928   3.280  0.00  0.00    +0.238 A 
ATOM     21  O   UNL     1      -3.227  -0.222   3.131  0.00  0.00    -0.337 OA
ATOM     22  N   UNL     1      -2.743  -0.275   2.020  0.00  0.00    -0.061 NA
BRANCH  18  23
ATOM     23  C   UNL     1      -2.602   1.117  -0.059  0.00  0.00    +0.114 C 
BRANCH  23  27
ATOM     24  C   UNL     1       1.144   3.170  -0.006  0.00  0.00    +0.000 A 
ATOM     25  C   UNL     1       1.113   1.790  -0.075  0.00  0.00    +0.000 A 
ATOM     26  C   UNL     1      -0.099   1.125  -0.089  0.00  0.00    +0.004 A 
ATOM     27  C   UNL     1      -1.280   1.841  -0.038  0.00  0.00    -0.040 A 
ATOM     28  C   UNL     1      -1.249   3.221   0.036  0.00  0.00    +0.004 A 
ATOM     29  C   UNL     1      -0.037   3.886   0.050  0.00  0.00    +0.000 A 
ENDBRANCH  23  27
ENDBRANCH  18  23
ENDBRANCH  17  20
ENDBRANCH  16  17
ENDBRANCH   1  16
BRANCH   5  30
ATOM     30  C   UNL     1      -9.382   0.663   5.742  0.00  0.00    +0.157 C 
BRANCH  30  31
ATOM     31  C   UNL     1      -9.495  -0.764   6.283  0.00  0.00    +0.138 C 
ATOM     32  C   UNL     1     -10.731  -1.473   5.674  0.00  0.00    +0.035 C 
ATOM     33  C   UNL     1     -10.307  -2.963   5.800  0.00  0.00    +0.031 C 
ATOM     34  C   UNL     1      -8.780  -2.889   5.583  0.00  0.00    +0.160 C 
ATOM     35  O   UNL     1      -8.367  -1.547   5.864  0.00  0.00    -0.375 OA
ENDBRANCH  30  31
ENDBRANCH   5  30
TORSDOF 8
