REMARK  Name = ZINC14156467
REMARK  6 active torsions:
REMARK  status: ('A' for Active; 'I' for Inactive)
REMARK    1  A    between atoms: C_1  and  C_2
REMARK    2  A    between atoms: C_4  and  C_29
REMARK    3  A    between atoms: N_10  and  C_11
REMARK    4  A    between atoms: C_11  and  N_13
REMARK    5  A    between atoms: N_13  and  C_14
REMARK    6  A    between atoms: N_22  and  C_23
REMARK                            x       y       z     vdW  Elec       q    Type
REMARK                         _______ _______ _______ _____ _____    ______ ____
ROOT
ATOM      1  C   UNL     1      -4.482  -0.701   3.365  0.00  0.00    +0.066 C 
ATOM      2  C   UNL     1      -4.174  -2.104   2.909  0.00  0.00    +0.044 A 
ATOM      3  C   UNL     1      -5.182  -2.920   2.420  0.00  0.00    +0.046 A 
ATOM      4  C   UNL     1      -4.856  -4.204   2.011  0.00  0.00    +0.044 A 
ATOM      5  N   UNL     1      -3.600  -4.609   2.100  0.00  0.00    -0.217 NA
ATOM      6  C   UNL     1      -2.660  -3.804   2.572  0.00  0.00    +0.231 A 
ATOM      7  N   UNL     1      -2.937  -2.570   2.965  0.00  0.00    -0.217 NA
ATOM      8  N   UNL     1      -1.352  -4.262   2.651  0.00  0.00    -0.297 N 
ATOM      9  C   UNL     1      -0.360  -3.429   3.095  0.00  0.00    +0.196 C 
ATOM     10  N   UNL     1       0.880  -3.875   3.198  0.00  0.00    -0.159 NA
ATOM     11  N   UNL     1      -0.652  -2.139   3.432  0.00  0.00    -0.355 N 
ATOM     12  C   UNL     1      -5.919  -5.126   1.474  0.00  0.00    +0.066 C 
ATOM     13  H   UNL     1      -1.141  -5.173   2.392  0.00  0.00    +0.171 HD
ATOM     14  H   UNL     1      -1.351  -1.661   2.959  0.00  0.00    +0.163 HD
ENDROOT
BRANCH  11  15
ATOM     15  C   UNL     1       0.089  -1.477   4.508  0.00  0.00    +0.082 C 
ATOM     16  C   UNL     1      -0.875  -1.093   5.631  0.00  0.00    +0.024 C 
ATOM     17  C   UNL     1      -0.100  -0.401   6.755  0.00  0.00    +0.002 C 
ATOM     18  C   UNL     1       0.575   0.858   6.209  0.00  0.00    +0.000 C 
ATOM     19  C   UNL     1       1.540   0.474   5.085  0.00  0.00    +0.002 C 
ATOM     20  C   UNL     1       0.765  -0.218   3.962  0.00  0.00    +0.024 C 
ENDBRANCH  11  15
BRANCH  10  21
ATOM     21  C   UNL     1       1.443  -4.019   4.406  0.00  0.00    +0.161 C 
ATOM     22  S   UNL     1       0.466  -4.016   5.811  0.00  0.00    -0.016 S 
BRANCH  21  23
ATOM     23  N   UNL     1       2.778  -4.165   4.514  0.00  0.00    -0.295 N 
ATOM     24  H   UNL     1       3.340  -4.093   3.726  0.00  0.00    +0.154 HD
BRANCH  23  25
ATOM     25  C   UNL     1       3.355  -4.422   5.763  0.00  0.00    +0.034 A 
ATOM     26  C   UNL     1       2.960  -3.690   6.875  0.00  0.00    +0.026 A 
ATOM     27  C   UNL     1       3.530  -3.944   8.107  0.00  0.00    +0.041 A 
ATOM     28  C   UNL     1       4.496  -4.928   8.235  0.00  0.00    +0.142 A 
ATOM     29  C   UNL     1       4.893  -5.659   7.127  0.00  0.00    +0.078 A 
ATOM     30  C   UNL     1       4.320  -5.412   5.893  0.00  0.00    +0.046 A 
ATOM     31 CL   UNL     1       6.104  -6.892   7.289  0.00  0.00    -0.081 Cl
ATOM     32  F   UNL     1       5.052  -5.175   9.441  0.00  0.00    -0.204 F 
ENDBRANCH  23  25
ENDBRANCH  21  23
ENDBRANCH  10  21
TORSDOF 4
