REMARK  Name = ZINC39301996
REMARK  9 active torsions:
REMARK  status: ('A' for Active; 'I' for Inactive)
REMARK    1  A    between atoms: C_1  and  C_2
REMARK    2  A    between atoms: C_4  and  C_17
REMARK    3  A    between atoms: C_6  and  C_16
REMARK    4  A    between atoms: N_8  and  C_9
REMARK    5  A    between atoms: C_17  and  C_18
REMARK    6  A    between atoms: C_18  and  C_19
REMARK    7  A    between atoms: N_21  and  C_22
REMARK    8  A    between atoms: C_22  and  C_23
REMARK    9  A    between atoms: C_23  and  N_24
REMARK                            x       y       z     vdW  Elec       q    Type
REMARK                         _______ _______ _______ _____ _____    ______ ____
ROOT
ATOM      1  C   UNL     1      -4.929   0.566  -0.786  0.00  0.00    +0.213 C 
ATOM      2  O   UNL     1      -4.678   1.752  -0.809  0.00  0.00    -0.276 OA
ATOM      3  N   UNL     1      -6.182   0.138  -1.037  0.00  0.00    -0.314 N 
ATOM      4  H   UNL     1      -6.384  -0.811  -1.019  0.00  0.00    +0.149 HD
ENDROOT
BRANCH   1   5
ATOM      5  C   UNL     1      -3.841  -0.429  -0.478  0.00  0.00    +0.096 C 
BRANCH   5   6
ATOM      6  C   UNL     1      -2.525   0.313  -0.234  0.00  0.00    +0.020 C 
BRANCH   6   9
ATOM      7  C   UNL     1      -0.188   1.467  -0.496  0.00  0.00    +0.031 C 
ATOM      8  C   UNL     1      -0.023  -0.022  -0.185  0.00  0.00    +0.104 C 
ATOM      9  C   UNL     1      -1.398  -0.701  -0.027  0.00  0.00    +0.057 C 
ATOM     10  C   UNL     1      -1.390  -1.206   1.398  0.00  0.00    +0.039 C 
ATOM     11  N   UNL     1      -0.288  -0.906   1.954  0.00  0.00    -0.188 NA
ATOM     12  N   UNL     1       0.605  -0.211   1.133  0.00  0.00    -0.221 N 
ATOM     13  C   UNL     1      -2.519  -1.953   2.060  0.00  0.00    +0.063 C 
BRANCH  12  14
ATOM     14  C   UNL     1       1.877   0.231   1.500  0.00  0.00    +0.055 A 
ATOM     15  C   UNL     1       2.665   0.920   0.586  0.00  0.00    +0.025 A 
ATOM     16  C   UNL     1       3.923   1.357   0.951  0.00  0.00    +0.005 A 
ATOM     17  C   UNL     1       4.401   1.109   2.224  0.00  0.00    +0.038 A 
ATOM     18  C   UNL     1       3.619   0.422   3.139  0.00  0.00    +0.125 A 
ATOM     19  C   UNL     1       2.356  -0.012   2.781  0.00  0.00    +0.063 A 
ATOM     20  F   UNL     1       4.089   0.182   4.383  0.00  0.00    -0.205 F 
ENDBRANCH  12  14
ENDBRANCH   6   9
ENDBRANCH   5   6
ENDBRANCH   1   5
BRANCH   3  21
ATOM     21  C   UNL     1      -7.241   1.106  -1.336  0.00  0.00    +0.126 C 
BRANCH  21  22
ATOM     22  C   UNL     1      -8.556   0.364  -1.580  0.00  0.00    +0.145 C 
BRANCH  22  23
ATOM     23  N   UNL     1      -9.615   1.331  -1.879  0.00  0.00    -0.291 N 
ATOM     24  C   UNL     1     -10.445   1.947  -0.945  0.00  0.00    +0.070 A 
ATOM     25  C   UNL     1     -10.547   1.867   0.435  0.00  0.00    +0.028 A 
ATOM     26  C   UNL     1     -11.496   2.620   1.099  0.00  0.00    +0.002 A 
ATOM     27  C   UNL     1     -12.345   3.453   0.392  0.00  0.00    +0.002 A 
ATOM     28  C   UNL     1     -12.251   3.539  -0.984  0.00  0.00    +0.028 A 
ATOM     29  C   UNL     1     -11.301   2.788  -1.659  0.00  0.00    +0.067 A 
ATOM     30  N   UNL     1     -10.965   2.657  -3.004  0.00  0.00    -0.306 N 
ATOM     31  H   UNL     1     -11.389   3.121  -3.743  0.00  0.00    +0.170 HD
ATOM     32  C   UNL     1      -9.947   1.782  -3.104  0.00  0.00    +0.328 A 
ATOM     33  O   UNL     1      -9.411   1.446  -4.144  0.00  0.00    -0.247 OA
ENDBRANCH  22  23
ENDBRANCH  21  22
ENDBRANCH   3  21
TORSDOF 7
