REMARK  Name = ZINC59949807
REMARK  6 active torsions:
REMARK  status: ('A' for Active; 'I' for Inactive)
REMARK    1  A    between atoms: C_6  and  N_7
REMARK    2  A    between atoms: N_7  and  C_8
REMARK    3  A    between atoms: N_11  and  C_14
REMARK    4  A    between atoms: C_17  and  S_23
REMARK    5  A    between atoms: C_19  and  N_20
REMARK    6  A    between atoms: S_23  and  N_26
REMARK                            x       y       z     vdW  Elec       q    Type
REMARK                         _______ _______ _______ _____ _____    ______ ____
ROOT
ATOM      1  C   UNL     1      -3.025  -5.670  -1.306  0.00  0.00    +0.060 A 
ATOM      2  C   UNL     1      -2.724  -7.025  -1.241  0.00  0.00    +0.027 A 
ATOM      3  C   UNL     1      -3.559  -7.946  -1.841  0.00  0.00    +0.030 A 
ATOM      4  C   UNL     1      -4.695  -7.521  -2.507  0.00  0.00    +0.108 A 
ATOM      5  C   UNL     1      -4.997  -6.173  -2.574  0.00  0.00    +0.063 A 
ATOM      6  C   UNL     1      -4.169  -5.247  -1.971  0.00  0.00    +0.149 A 
ENDROOT
BRANCH   1  10
ATOM      7  C   UNL     1      -0.004  -3.782   0.831  0.00  0.00    +0.073 C 
ATOM      8  C   UNL     1      -1.191  -4.465   1.514  0.00  0.00    +0.041 C 
ATOM      9  C   UNL     1      -2.449  -4.261   0.664  0.00  0.00    +0.107 C 
ATOM     10  N   UNL     1      -2.182  -4.736  -0.700  0.00  0.00    -0.328 N 
ATOM     11  C   UNL     1      -1.010  -4.210  -1.414  0.00  0.00    +0.107 C 
ATOM     12  C   UNL     1       0.232  -4.415  -0.542  0.00  0.00    +0.041 C 
BRANCH   7  13
ATOM     13  N   UNL     1       1.195  -3.947   1.657  0.00  0.00    -0.341 N 
ATOM     14  H   UNL     1       1.810  -4.675   1.479  0.00  0.00    +0.146 HD
BRANCH  13  20
ATOM     15  C   UNL     1       2.588  -3.211   3.486  0.00  0.00    +0.026 A 
ATOM     16  C   UNL     1       2.841  -2.328   4.518  0.00  0.00    +0.040 A 
ATOM     17  C   UNL     1       1.962  -1.288   4.772  0.00  0.00    +0.124 A 
ATOM     18  C   UNL     1       0.829  -1.131   3.992  0.00  0.00    +0.040 A 
ATOM     19  C   UNL     1       0.572  -2.012   2.959  0.00  0.00    +0.026 A 
ATOM     20  C   UNL     1       1.452  -3.055   2.703  0.00  0.00    +0.027 A 
ATOM     21  F   UNL     1       2.211  -0.426   5.782  0.00  0.00    -0.205 F 
ENDBRANCH  13  20
ENDBRANCH   7  13
ENDBRANCH   1  10
BRANCH   6  22
ATOM     22  N   UNL     1      -4.496  -3.805  -2.038  0.00  0.00    +0.058 N 
ATOM     23  O   UNL     1      -5.541  -3.445  -2.529  0.00  0.00    -0.126 OA
ATOM     24  O   UNL     1      -3.719  -2.988  -1.602  0.00  0.00    -0.126 OA
ENDBRANCH   6  22
BRANCH   4  25
ATOM     25  S   UNL     1      -5.759  -8.699  -3.271  0.00  0.00    +0.061 S 
ATOM     26  O   UNL     1      -6.462  -8.008  -4.295  0.00  0.00    -0.153 OA
ATOM     27  O   UNL     1      -4.968  -9.850  -3.534  0.00  0.00    -0.153 OA
BRANCH  25  28
ATOM     28  N   UNL     1      -6.885  -9.147  -2.143  0.00  0.00    -0.177 NA
ATOM     29  C   UNL     1      -6.593 -10.269  -1.279  0.00  0.00    +0.109 C 
ATOM     30  C   UNL     1      -7.082 -11.578  -1.945  0.00  0.00    +0.017 C 
ATOM     31  C   UNL     1      -8.552 -11.638  -1.936  0.00  0.00    +0.001 C 
ATOM     32  C   UNL     1      -9.230 -10.530  -2.737  0.00  0.00    +0.001 C 
ATOM     33  C   UNL     1      -9.368  -9.301  -1.873  0.00  0.00    +0.017 C 
ATOM     34  C   UNL     1      -8.143  -8.380  -2.056  0.00  0.00    +0.109 C 
ENDBRANCH  25  28
ENDBRANCH   4  25
TORSDOF 6
