REMARK  Name = ZINC32962067
REMARK  6 active torsions:
REMARK  status: ('A' for Active; 'I' for Inactive)
REMARK    1  A    between atoms: C_1  and  C_2
REMARK    2  A    between atoms: N_5  and  C_8
REMARK    3  A    between atoms: C_11  and  N_17
REMARK    4  A    between atoms: C_13  and  C_14
REMARK    5  A    between atoms: N_17  and  S_18
REMARK    6  A    between atoms: S_18  and  C_21
REMARK                            x       y       z     vdW  Elec       q    Type
REMARK                         _______ _______ _______ _____ _____    ______ ____
ROOT
ATOM      1  C   UNL     1      -0.708  -3.882   1.432  0.00  0.00    +0.028 A 
ATOM      2  C   UNL     1      -0.237  -4.661   0.396  0.00  0.00    +0.024 A 
ATOM      3  C   UNL     1      -0.314  -6.039   0.470  0.00  0.00    +0.028 A 
ATOM      4  C   UNL     1      -0.867  -6.650   1.590  0.00  0.00    +0.075 A 
ATOM      5  C   UNL     1      -1.343  -5.877   2.637  0.00  0.00    +0.043 A 
ATOM      6  C   UNL     1      -1.261  -4.485   2.564  0.00  0.00    +0.084 A 
ENDROOT
BRANCH   1  11
ATOM      7  C   UNL     1       0.159   1.521   0.090  0.00  0.00    +0.007 C 
ATOM      8  C   UNL     1       0.134  -0.009   0.061  0.00  0.00    -0.011 C 
ATOM      9  C   UNL     1      -1.317  -0.498   0.099  0.00  0.00    +0.020 C 
ATOM     10  C   UNL     1      -1.332  -2.027   0.149  0.00  0.00    +0.085 C 
ATOM     11  N   UNL     1      -0.628  -2.488   1.351  0.00  0.00    -0.393 NA
ATOM     12  C   UNL     1       0.782  -2.084   1.288  0.00  0.00    +0.085 C 
ATOM     13  C   UNL     1       0.879  -0.557   1.282  0.00  0.00    +0.020 C 
ATOM     14  H   UNL     1      -1.057  -2.081   2.168  0.00  0.00    +0.126 HD
ENDBRANCH   1  11
BRANCH   6  15
ATOM     15  C   UNL     1      -1.761  -3.654   3.677  0.00  0.00    +0.388 C 
ATOM     16  O   UNL     1      -1.318  -3.813   4.805  0.00  0.00    -0.241 OA
ATOM     17  O   UNL     1      -2.618  -2.807   3.470  0.00  0.00    -0.241 OA
ENDBRANCH   6  15
BRANCH   4  18
ATOM     18  N   UNL     1      -0.943  -8.044   1.660  0.00  0.00    -0.097 NA
BRANCH  18  19
ATOM     19  S   UNL     1      -0.374  -8.967   0.408  0.00  0.00    +0.098 S 
ATOM     20  O   UNL     1      -1.215  -8.703  -0.707  0.00  0.00    -0.148 OA
ATOM     21  O   UNL     1       1.032  -8.771   0.365  0.00  0.00    -0.148 OA
BRANCH  19  22
ATOM     22  C   UNL     1      -0.635 -10.654   0.846  0.00  0.00    +0.149 A 
ATOM     23  C   UNL     1      -1.709 -11.443   0.600  0.00  0.00    +0.038 A 
ATOM     24  C   UNL     1      -1.694 -12.753   1.042  0.00  0.00    +0.030 A 
ATOM     25  C   UNL     1      -0.604 -13.209   1.710  0.00  0.00    +0.080 A 
ATOM     26  S   UNL     1       0.451 -11.769   1.721  0.00  0.00    -0.057 S 
ATOM     27 CL   UNL     1      -0.309 -14.786   2.374  0.00  0.00    -0.076 Cl
ENDBRANCH  19  22
ENDBRANCH  18  19
ENDBRANCH   4  18
TORSDOF 5
