REMARK  Name = ZINC36490846
REMARK  13 active torsions:
REMARK  status: ('A' for Active; 'I' for Inactive)
REMARK    1  A    between atoms: C_1  and  C_2
REMARK    2  A    between atoms: C_2  and  C_3
REMARK    3  A    between atoms: C_2  and  C_4
REMARK    4  A    between atoms: C_2  and  C_5
REMARK    5  A    between atoms: C_5  and  C_6
REMARK    6  A    between atoms: C_6  and  C_7
REMARK    7  A    between atoms: C_6  and  C_8
REMARK    8  A    between atoms: C_6  and  N_9
REMARK    9  A    between atoms: C_10  and  C_12
REMARK   10  A    between atoms: C_12  and  C_14
REMARK   11  A    between atoms: C_12  and  N_22
REMARK   12  A    between atoms: N_22  and  C_23
REMARK   13  A    between atoms: C_29  and  C_31
REMARK                            x       y       z     vdW  Elec       q    Type
REMARK                         _______ _______ _______ _____ _____    ______ ____
ROOT
ATOM      1  C   UNL     1       5.559  -0.810  -5.253  0.00  0.00    +0.195 C 
ENDROOT
BRANCH   1   2
ATOM      2  C   UNL     1       5.185  -2.062  -6.003  0.00  0.00    +0.018 A 
ATOM      3  C   UNL     1       5.914  -2.447  -7.114  0.00  0.00    +0.048 A 
ATOM      4  C   UNL     1       5.570  -3.597  -7.802  0.00  0.00    +0.020 A 
ATOM      5  C   UNL     1       4.498  -4.361  -7.380  0.00  0.00    +0.003 A 
ATOM      6  C   UNL     1       3.769  -3.977  -6.271  0.00  0.00    +0.020 A 
ATOM      7  C   UNL     1       4.116  -2.830  -5.578  0.00  0.00    +0.048 A 
ATOM      8 CL   UNL     1       3.206  -2.353  -4.179  0.00  0.00    -0.083 Cl
ATOM      9 CL   UNL     1       7.260  -1.488  -7.644  0.00  0.00    -0.083 Cl
ENDBRANCH   1   2
BRANCH   1  11
ATOM     10  N   UNL     1       3.329  -0.302  -4.312  0.00  0.00    -0.308 N 
ATOM     11  C   UNL     1       4.619  -0.621  -4.090  0.00  0.00    +0.239 C 
ATOM     12  O   UNL     1       5.024  -0.756  -2.955  0.00  0.00    -0.273 OA
ATOM     13  H   UNL     1       2.928  -0.475  -5.178  0.00  0.00    +0.149 HD
BRANCH  10  14
ATOM     14  C   UNL     1       2.530   0.306  -3.244  0.00  0.00    +0.030 C 
ATOM     15  C   UNL     1       3.211   1.591  -2.768  0.00  0.00    +0.031 C 
ATOM     16  C   UNL     1       2.413  -0.673  -2.075  0.00  0.00    +0.031 C 
BRANCH  14  17
ATOM     17  C   UNL     1       1.134   0.635  -3.776  0.00  0.00    +0.031 C 
BRANCH  17  19
ATOM     18  C   UNL     1       1.119   0.143  -6.225  0.00  0.00    +0.010 C 
ATOM     19  C   UNL     1       1.252   1.246  -5.174  0.00  0.00    -0.036 C 
ATOM     20  C   UNL     1       2.613   1.929  -5.319  0.00  0.00    +0.010 C 
ATOM     21  C   UNL     1       0.140   2.278  -5.374  0.00  0.00    +0.010 C 
ENDBRANCH  17  19
ENDBRANCH  14  17
ENDBRANCH  10  14
ENDBRANCH   1  11
BRANCH   1  22
ATOM     22  N   UNL     1       6.932  -0.930  -4.756  0.00  0.00    -0.281 N 
ATOM     23  C   UNL     1       7.809   0.074  -4.950  0.00  0.00    +0.237 C 
ATOM     24  O   UNL     1       7.464   1.075  -5.541  0.00  0.00    -0.274 OA
BRANCH  23  25
ATOM     25  C   UNL     1       9.220  -0.046  -4.433  0.00  0.00    +0.159 C 
ATOM     26  C   UNL     1       9.293   0.427  -2.964  0.00  0.00    +0.041 C 
ATOM     27  C   UNL     1       9.692   1.911  -3.131  0.00  0.00    +0.098 C 
ATOM     28  C   UNL     1      10.390   1.960  -4.473  0.00  0.00    +0.214 C 
ATOM     29  O   UNL     1      11.097   2.868  -4.856  0.00  0.00    -0.276 OA
ATOM     30  N   UNL     1      10.113   0.848  -5.179  0.00  0.00    -0.304 N 
ATOM     31  H   UNL     1      10.458   0.661  -6.066  0.00  0.00    +0.149 HD
ENDBRANCH  23  25
BRANCH  22  32
ATOM     32  C   UNL     1       7.352  -2.143  -4.048  0.00  0.00    +0.077 C 
ATOM     33  C   UNL     1       8.204  -3.007  -4.979  0.00  0.00    +0.022 C 
ATOM     34  C   UNL     1       8.642  -4.273  -4.240  0.00  0.00    +0.002 C 
ATOM     35  C   UNL     1       7.407  -5.061  -3.801  0.00  0.00    +0.000 C 
ATOM     36  C   UNL     1       6.554  -4.197  -2.871  0.00  0.00    +0.002 C 
ATOM     37  C   UNL     1       6.116  -2.931  -3.610  0.00  0.00    +0.022 C 
ENDBRANCH  22  32
ENDBRANCH   1  22
TORSDOF 8
