REMARK  Name = ZINC06409161
REMARK  10 active torsions:
REMARK  status: ('A' for Active; 'I' for Inactive)
REMARK    1  A    between atoms: C_1  and  C_2
REMARK    2  A    between atoms: C_9  and  C_14
REMARK    3  A    between atoms: C_14  and  C_16
REMARK    4  A    between atoms: C_14  and  N_67
REMARK    5  A    between atoms: N_20  and  C_21
REMARK    6  A    between atoms: C_21  and  C_22
REMARK    7  A    between atoms: C_22  and  O_23
REMARK    8  A    between atoms: O_23  and  C_24
REMARK    9  A    between atoms: C_27  and  C_30
REMARK   10  A    between atoms: C_30  and  C_31
REMARK                            x       y       z     vdW  Elec       q    Type
REMARK                         _______ _______ _______ _____ _____    ______ ____
ROOT
ATOM      1  C   UNL     1      -2.490   0.996   0.020  0.00  0.00    +0.039 C 
ENDROOT
BRANCH   1  10
ATOM      2  C   UNL     1       1.649   6.081  -3.533  0.00  0.00    +0.044 C 
ATOM      3  C   UNL     1       1.408   5.173  -2.355  0.00  0.00    -0.050 A 
ATOM      4  C   UNL     1       2.321   5.146  -1.309  0.00  0.00    +0.005 A 
ATOM      5  C   UNL     1       2.121   4.323  -0.222  0.00  0.00    +0.026 A 
ATOM      6  C   UNL     1       0.994   3.510  -0.170  0.00  0.00    +0.049 A 
ATOM      7  C   UNL     1       0.070   3.540  -1.232  0.00  0.00    -0.001 A 
ATOM      8  C   UNL     1       0.294   4.383  -2.325  0.00  0.00    +0.013 A 
ATOM      9  C   UNL     1      -1.113   2.680  -1.168  0.00  0.00    +0.017 A 
ATOM     10  C   UNL     1      -1.280   1.888  -0.081  0.00  0.00    +0.011 A 
ATOM     11  C   UNL     1      -0.322   1.892   0.956  0.00  0.00    +0.251 A 
ATOM     12  O   UNL     1      -0.489   1.168   1.922  0.00  0.00    -0.268 OA
ATOM     13  N   UNL     1       0.768   2.677   0.905  0.00  0.00    -0.322 N 
ATOM     14  H   UNL     1       1.406   2.658   1.636  0.00  0.00    +0.169 HD
ENDBRANCH   1  10
BRANCH   1  20
ATOM     15  C   UNL     1      -3.563   2.778   1.258  0.00  0.00    -0.077 C 
ATOM     16  C   UNL     1      -4.231   3.127   2.590  0.00  0.00    -0.015 C 
ATOM     17  C   UNL     1      -5.515   2.307   2.742  0.00  0.00    -0.010 C 
ATOM     18  C   UNL     1      -5.173   0.817   2.655  0.00  0.00    -0.015 C 
ATOM     19  C   UNL     1      -4.479   0.535   1.321  0.00  0.00    -0.077 C 
ATOM     20  N   UNL     1      -3.238   1.335   1.248  0.00  0.00    +0.389 N 
ATOM     21  H   UNL     1      -2.654   1.120   2.064  0.00  0.00    -0.080 HD
BRANCH  17  22
ATOM     22  C   UNL     1      -6.155   2.607   4.099  0.00  0.00    +0.038 C 
BRANCH  22  23
ATOM     23  C   UNL     1      -6.603   4.045   4.137  0.00  0.00    -0.047 A 
ATOM     24  C   UNL     1      -5.741   5.025   4.593  0.00  0.00    +0.003 A 
ATOM     25  C   UNL     1      -6.149   6.346   4.623  0.00  0.00    +0.000 A 
ATOM     26  C   UNL     1      -7.423   6.684   4.207  0.00  0.00    +0.000 A 
ATOM     27  C   UNL     1      -8.287   5.704   3.755  0.00  0.00    +0.000 A 
ATOM     28  C   UNL     1      -7.876   4.384   3.721  0.00  0.00    +0.003 A 
ENDBRANCH  22  23
ENDBRANCH  17  22
ENDBRANCH   1  20
BRANCH   1  29
ATOM     29  C   UNL     1      -3.357   1.186  -1.198  0.00  0.00    +0.142 A 
ATOM     30  N   UNL     1      -4.137   2.209  -1.452  0.00  0.00    -0.115 NA
ATOM     31  N   UNL     1      -4.709   2.001  -2.587  0.00  0.00    -0.023 NA
ATOM     32  N   UNL     1      -4.315   0.873  -3.065  0.00  0.00    -0.044 NA
ATOM     33  N   UNL     1      -3.476   0.342  -2.240  0.00  0.00    -0.228 N 
BRANCH  33  34
ATOM     34  C   UNL     1      -2.787  -0.940  -2.405  0.00  0.00    +0.175 C 
BRANCH  34  35
ATOM     35  C   UNL     1      -3.634  -2.057  -1.793  0.00  0.00    +0.183 C 
BRANCH  35  36
ATOM     36  O   UNL     1      -2.961  -3.308  -1.954  0.00  0.00    -0.381 OA
ATOM     37  C   UNL     1      -3.672  -4.424  -1.414  0.00  0.00    +0.194 C 
ENDBRANCH  35  36
ENDBRANCH  34  35
ENDBRANCH  33  34
ENDBRANCH   1  29
TORSDOF 8
