REMARK  Name = ZINC08432705
REMARK  9 active torsions:
REMARK  status: ('A' for Active; 'I' for Inactive)
REMARK    1  A    between atoms: C_1  and  C_2
REMARK    2  A    between atoms: C_8  and  C_13
REMARK    3  A    between atoms: C_9  and  O_12
REMARK    4  A    between atoms: C_13  and  C_15
REMARK    5  A    between atoms: C_13  and  N_29
REMARK    6  A    between atoms: C_18  and  O_21
REMARK    7  A    between atoms: O_21  and  C_22
REMARK    8  A    between atoms: C_22  and  C_23
REMARK    9  A    between atoms: N_29  and  C_30
REMARK                            x       y       z     vdW  Elec       q    Type
REMARK                         _______ _______ _______ _____ _____    ______ ____
ROOT
ATOM      1  C   UNL     1       4.797   4.114  -0.022  0.00  0.00    +0.136 C 
ENDROOT
BRANCH   1   9
ATOM      2  C   UNL     1      -2.478   3.886  -0.597  0.00  0.00    +0.065 C 
ATOM      3  C   UNL     1      -1.169   3.148  -0.479  0.00  0.00    +0.039 A 
ATOM      4  C   UNL     1      -1.175   1.755  -0.459  0.00  0.00    +0.023 A 
ATOM      5  C   UNL     1       0.002   1.071  -0.348  0.00  0.00    +0.012 A 
ATOM      6  C   UNL     1       1.196   1.811  -0.267  0.00  0.00    +0.004 A 
ATOM      7  C   UNL     1       2.444   1.176  -0.157  0.00  0.00    +0.010 A 
ATOM      8  C   UNL     1       3.579   1.926  -0.081  0.00  0.00    +0.010 A 
ATOM      9  C   UNL     1       3.521   3.317  -0.109  0.00  0.00    +0.021 A 
ATOM     10  C   UNL     1       2.326   3.969  -0.215  0.00  0.00    +0.148 A 
ATOM     11  C   UNL     1       1.130   3.226  -0.297  0.00  0.00    +0.113 A 
ATOM     12  N   UNL     1      -0.054   3.834  -0.402  0.00  0.00    -0.248 NA
BRANCH  10  13
ATOM     13  O   UNL     1       2.290   5.327  -0.241  0.00  0.00    -0.504 OA
ATOM     14  H   UNL     1       2.349   5.705  -1.129  0.00  0.00    +0.292 HD
ENDBRANCH  10  13
ENDBRANCH   1   9
BRANCH   1  15
ATOM     15  C   UNL     1       5.288   4.429  -1.411  0.00  0.00    -0.023 A 
ATOM     16  C   UNL     1       5.867   3.436  -2.180  0.00  0.00    +0.009 A 
ATOM     17  C   UNL     1       6.313   3.722  -3.457  0.00  0.00    +0.046 A 
ATOM     18  C   UNL     1       6.190   5.008  -3.961  0.00  0.00    +0.121 A 
ATOM     19  C   UNL     1       5.615   6.004  -3.185  0.00  0.00    +0.046 A 
ATOM     20  C   UNL     1       5.165   5.712  -1.912  0.00  0.00    +0.009 A 
BRANCH  18  21
ATOM     21  O   UNL     1       6.633   5.292  -5.215  0.00  0.00    -0.487 OA
BRANCH  21  22
ATOM     22  C   UNL     1       7.214   4.218  -5.956  0.00  0.00    +0.264 C 
BRANCH  22  23
ATOM     23  C   UNL     1       7.644   4.718  -7.312  0.00  0.00    -0.010 A 
ATOM     24  C   UNL     1       6.765   4.666  -8.378  0.00  0.00    +0.007 A 
ATOM     25  C   UNL     1       7.157   5.129  -9.620  0.00  0.00    +0.000 A 
ATOM     26  C   UNL     1       8.431   5.636  -9.798  0.00  0.00    +0.000 A 
ATOM     27  C   UNL     1       9.312   5.683  -8.733  0.00  0.00    +0.000 A 
ATOM     28  C   UNL     1       8.918   5.224  -7.490  0.00  0.00    +0.007 A 
ENDBRANCH  22  23
ENDBRANCH  21  22
ENDBRANCH  18  21
ENDBRANCH   1  15
BRANCH   1  29
ATOM     29  N   UNL     1       5.813   3.334   0.690  0.00  0.00    -0.320 N 
ATOM     30  H   UNL     1       6.487   2.846   0.192  0.00  0.00    +0.148 HD
BRANCH  29  31
ATOM     31  C   UNL     1       5.810   3.293   2.079  0.00  0.00    +0.097 A 
ATOM     32  C   UNL     1       4.907   4.077   2.791  0.00  0.00    +0.041 A 
ATOM     33  C   UNL     1       4.916   4.027   4.173  0.00  0.00    +0.005 A 
ATOM     34  C   UNL     1       5.830   3.191   4.800  0.00  0.00    +0.018 A 
ATOM     35  C   UNL     1       6.697   2.440   4.032  0.00  0.00    +0.084 A 
ATOM     36  N   UNL     1       6.713   2.460   2.672  0.00  0.00    -0.350 N 
ATOM     37  H   UNL     1       7.364   1.884   2.126  0.00  0.00    +0.166 HD
ENDBRANCH  29  31
ENDBRANCH   1  29
TORSDOF 8
