REMARK  Name = ZINC12705948
REMARK  12 active torsions:
REMARK  status: ('A' for Active; 'I' for Inactive)
REMARK    1  A    between atoms: C_1  and  C_2
REMARK    2  A    between atoms: C_2  and  N_63
REMARK    3  A    between atoms: C_3  and  C_4
REMARK    4  A    between atoms: C_3  and  N_63
REMARK    5  A    between atoms: C_5  and  C_6
REMARK    6  A    between atoms: C_5  and  N_63
REMARK    7  A    between atoms: C_6  and  N_7
REMARK    8  A    between atoms: N_7  and  C_8
REMARK    9  A    between atoms: C_8  and  C_9
REMARK   10  A    between atoms: C_12  and  C_22
REMARK   11  A    between atoms: C_15  and  C_21
REMARK   12  A    between atoms: N_25  and  C_26
REMARK                            x       y       z     vdW  Elec       q    Type
REMARK                         _______ _______ _______ _____ _____    ______ ____
ROOT
ATOM      1  N   UNL     1      -0.024   1.328   0.076  0.00  0.00    -0.283 N 
ATOM      2  C   UNL     1       0.004  -0.020   0.081  0.00  0.00    +0.307 C 
ATOM      3  O   UNL     1      -1.036  -0.649   0.117  0.00  0.00    -0.252 OA
ATOM      4  N   UNL     1       1.184  -0.670   0.045  0.00  0.00    -0.268 N 
ATOM      5  H   UNL     1       2.010  -0.170  -0.049  0.00  0.00    +0.156 HD
ENDROOT
BRANCH   4   6
ATOM      6  C   UNL     1       1.218  -2.066   0.145  0.00  0.00    +0.053 A 
ATOM      7  C   UNL     1       0.201  -2.828  -0.414  0.00  0.00    +0.025 A 
ATOM      8  C   UNL     1       0.238  -4.205  -0.318  0.00  0.00    +0.002 A 
ATOM      9  C   UNL     1       1.283  -4.826   0.343  0.00  0.00    +0.002 A 
ATOM     10  C   UNL     1       2.295  -4.070   0.905  0.00  0.00    +0.022 A 
ATOM     11  C   UNL     1       2.266  -2.692   0.809  0.00  0.00    +0.062 A 
ATOM     12 CL   UNL     1       3.536  -1.744   1.516  0.00  0.00    -0.082 Cl
ENDBRANCH   4   6
BRANCH   1  13
ATOM     13  C   UNL     1       1.229   2.086   0.032  0.00  0.00    +0.091 C 
BRANCH  13  14
ATOM     14  C   UNL     1       1.619   2.344  -1.425  0.00  0.00    -0.060 C 
BRANCH  14  15
ATOM     15  N   UNL     1       2.872   3.127  -1.451  0.00  0.00    +0.380 N 
ATOM     16  H   UNL     1       2.763   3.951  -0.849  0.00  0.00    -0.082 HD
BRANCH  15  18
ATOM     17  C   UNL     1       4.233   1.104  -1.858  0.00  0.00    -0.017 C 
ATOM     18  C   UNL     1       3.992   2.306  -0.944  0.00  0.00    -0.082 C 
ENDBRANCH  15  18
BRANCH  15  19
ATOM     19  C   UNL     1       3.159   3.574  -2.831  0.00  0.00    -0.082 C 
ATOM     20  C   UNL     1       4.242   4.654  -2.782  0.00  0.00    -0.017 C 
ENDBRANCH  15  19
ENDBRANCH  14  15
ENDBRANCH  13  14
ENDBRANCH   1  13
BRANCH   1  21
ATOM     21  C   UNL     1      -1.306   2.034   0.108  0.00  0.00    +0.149 C 
BRANCH  21  22
ATOM     22  C   UNL     1      -1.708   2.282   1.539  0.00  0.00    +0.035 A 
ATOM     23  C   UNL     1      -1.408   3.466   2.129  0.00  0.00    +0.020 A 
ATOM     24  C   UNL     1      -1.812   3.676   3.521  0.00  0.00    +0.002 A 
ATOM     25  C   UNL     1      -1.531   4.876   4.183  0.00  0.00    -0.041 A 
ATOM     26  C   UNL     1      -1.921   5.040   5.482  0.00  0.00    +0.004 A 
ATOM     27  C   UNL     1      -2.594   4.026   6.151  0.00  0.00    +0.005 A 
ATOM     28  C   UNL     1      -2.881   2.836   5.519  0.00  0.00    -0.026 A 
ATOM     29  C   UNL     1      -2.494   2.646   4.196  0.00  0.00    +0.052 A 
ATOM     30  N   UNL     1      -2.768   1.465   3.539  0.00  0.00    -0.322 N 
ATOM     31  H   UNL     1      -3.238   0.757   4.006  0.00  0.00    +0.169 HD
ATOM     32  C   UNL     1      -2.398   1.284   2.259  0.00  0.00    +0.254 A 
ATOM     33  O   UNL     1      -2.662   0.229   1.708  0.00  0.00    -0.268 OA
ATOM     34  C   UNL     1      -3.611   1.744   6.257  0.00  0.00    +0.046 C 
ATOM     35  C   UNL     1      -0.801   5.982   3.466  0.00  0.00    +0.044 C 
ENDBRANCH  21  22
ENDBRANCH   1  21
TORSDOF 8
