REMARK  Name = ZINC25071432
REMARK  9 active torsions:
REMARK  status: ('A' for Active; 'I' for Inactive)
REMARK    1  A    between atoms: C_1  and  C_2
REMARK    2  A    between atoms: C_2  and  O_3
REMARK    3  A    between atoms: O_3  and  C_4
REMARK    4  A    between atoms: C_6  and  C_11
REMARK    5  A    between atoms: C_9  and  O_10
REMARK    6  A    between atoms: C_13  and  C_23
REMARK    7  A    between atoms: C_14  and  C_22
REMARK    8  A    between atoms: N_15  and  C_19
REMARK    9  A    between atoms: C_28  and  C_31
REMARK                            x       y       z     vdW  Elec       q    Type
REMARK                         _______ _______ _______ _____ _____    ______ ____
ROOT
ATOM      1  C   UNL     1       0.925  -4.875   0.025  0.00  0.00    +0.139 C 
ATOM      2  C   UNL     1       1.171  -5.292  -1.411  0.00  0.00    +0.056 C 
ATOM      3  C   UNL     1       1.075  -6.605  -1.710  0.00  0.00    +0.020 C 
ATOM      4  N   UNL     1       0.766  -7.525  -0.750  0.00  0.00    -0.283 N 
ATOM      5  C   UNL     1       0.540  -7.213   0.532  0.00  0.00    +0.138 C 
ATOM      6  S   UNL     1       0.162  -8.467   1.635  0.00  0.00    -0.018 S 
ATOM      7  N   UNL     1       0.600  -5.945   0.983  0.00  0.00    -0.315 N 
ATOM      8  C   UNL     1       1.311  -7.062  -3.127  0.00  0.00    +0.061 C 
ATOM      9  H   UNL     1       0.412  -5.699   2.039  0.00  0.00    +0.149 HD
ENDROOT
BRANCH   2  10
ATOM     10  C   UNL     1       1.490  -4.336  -2.406  0.00  0.00    +0.249 C 
ATOM     11  O   UNL     1       2.604  -3.847  -2.446  0.00  0.00    -0.270 OA
ATOM     12  N   UNL     1       0.560  -3.967  -3.309  0.00  0.00    -0.264 N 
ATOM     13  C   UNL     1       0.902  -3.104  -4.349  0.00  0.00    +0.168 A 
ATOM     14  C   UNL     1       2.177  -2.528  -4.595  0.00  0.00    +0.091 A 
ATOM     15  C   UNL     1       1.988  -1.779  -5.705  0.00  0.00    +0.136 A 
ATOM     16  O   UNL     1       0.701  -1.926  -6.052  0.00  0.00    -0.358 OA
ATOM     17  N   UNL     1       0.115  -2.666  -5.296  0.00  0.00    -0.063 NA
ATOM     18  C   UNL     1       3.022  -0.943  -6.413  0.00  0.00    +0.089 C 
ATOM     19  H   UNL     1      -0.469  -4.347  -3.226  0.00  0.00    +0.157 HD
ENDBRANCH   2  10
BRANCH   1  22
ATOM     20  C   UNL     1      -0.980  -1.613   0.089  0.00  0.00    +0.162 A 
ATOM     21  C   UNL     1       0.062  -2.527   0.074  0.00  0.00    +0.055 A 
ATOM     22  C   UNL     1      -0.208  -3.882   0.034  0.00  0.00    -0.019 A 
ATOM     23  C   UNL     1      -1.516  -4.329  -0.005  0.00  0.00    +0.009 A 
ATOM     24  C   UNL     1      -2.560  -3.422   0.003  0.00  0.00    +0.049 A 
ATOM     25  C   UNL     1      -2.296  -2.063   0.050  0.00  0.00    +0.158 A 
BRANCH  25  26
ATOM     26  O   UNL     1      -3.321  -1.169   0.058  0.00  0.00    -0.503 OA
ATOM     27  H   UNL     1      -4.362  -1.526   0.027  0.00  0.00    +0.292 HD
ENDBRANCH  25  26
BRANCH  20  28
ATOM     28  O   UNL     1      -0.716  -0.280   0.135  0.00  0.00    -0.489 OA
BRANCH  28  30
ATOM     29  C   UNL     1       0.757   1.634   0.222  0.00  0.00    +0.048 C 
ATOM     30  C   UNL     1       0.659   0.108   0.173  0.00  0.00    +0.226 C 
ENDBRANCH  28  30
ENDBRANCH  20  28
ENDBRANCH   1  22
BRANCH   4  31
ATOM     31  C   UNL     1       0.678  -8.933  -1.145  0.00  0.00    +0.080 C 
ATOM     32  C   UNL     1      -0.158  -9.269  -2.382  0.00  0.00    +0.025 C 
ATOM     33  C   UNL     1      -0.676  -9.628  -0.988  0.00  0.00    +0.025 C 
ENDBRANCH   4  31
TORSDOF 6
