REMARK  Name = ZINC13982818
REMARK  8 active torsions:
REMARK  status: ('A' for Active; 'I' for Inactive)
REMARK    1  A    between atoms: C_1  and  N_2
REMARK    2  A    between atoms: N_2  and  C_3
REMARK    3  A    between atoms: N_2  and  S_9
REMARK    4  A    between atoms: S_9  and  C_12
REMARK    5  A    between atoms: C_15  and  N_18
REMARK    6  A    between atoms: N_18  and  C_19
REMARK    7  A    between atoms: C_19  and  N_21
REMARK    8  A    between atoms: C_22  and  C_24
REMARK                            x       y       z     vdW  Elec       q    Type
REMARK                         _______ _______ _______ _____ _____    ______ ____
ROOT
ATOM      1  N   UNL     1      -4.640  -0.879  -0.018  0.00  0.00    -0.297 N 
ATOM      2  H   UNL     1      -3.892  -1.021  -0.618  0.00  0.00    +0.154 HD
ENDROOT
BRANCH   1   6
ATOM      3  C   UNL     1      -7.709  -3.689   0.185  0.00  0.00    +0.109 A 
ATOM      4  C   UNL     1      -8.011  -2.342   0.109  0.00  0.00    +0.030 A 
ATOM      5  C   UNL     1      -6.996  -1.408   0.042  0.00  0.00    +0.025 A 
ATOM      6  C   UNL     1      -5.671  -1.823   0.050  0.00  0.00    +0.033 A 
ATOM      7  C   UNL     1      -5.371  -3.177   0.120  0.00  0.00    +0.025 A 
ATOM      8  C   UNL     1      -6.391  -4.106   0.193  0.00  0.00    +0.030 A 
BRANCH   3   9
ATOM      9  S   UNL     1      -9.007  -4.878   0.270  0.00  0.00    +0.074 S 
ATOM     10  O   UNL     1      -8.458  -6.036   0.883  0.00  0.00    -0.150 OA
ATOM     11  O   UNL     1     -10.142  -4.203   0.796  0.00  0.00    -0.150 OA
BRANCH   9  13
ATOM     12  C   UNL     1      -8.771  -6.483  -1.894  0.00  0.00    +0.157 C 
ATOM     13  N   UNL     1      -9.386  -5.301  -1.285  0.00  0.00    -0.206 N 
BRANCH  13  14
ATOM     14  C   UNL     1     -10.293  -4.531  -2.017  0.00  0.00    +0.051 A 
ATOM     15  C   UNL     1     -11.600  -4.382  -1.571  0.00  0.00    +0.025 A 
ATOM     16  C   UNL     1     -12.492  -3.616  -2.294  0.00  0.00    +0.002 A 
ATOM     17  C   UNL     1     -12.089  -3.006  -3.468  0.00  0.00    +0.000 A 
ATOM     18  C   UNL     1     -10.790  -3.156  -3.918  0.00  0.00    +0.002 A 
ATOM     19  C   UNL     1      -9.891  -3.916  -3.197  0.00  0.00    +0.025 A 
ENDBRANCH  13  14
ENDBRANCH   9  13
ENDBRANCH   3   9
ENDBRANCH   1   6
BRANCH   1  20
ATOM     20  C   UNL     1      -4.687   0.226   0.752  0.00  0.00    +0.141 C 
ATOM     21  S   UNL     1      -6.058   0.530   1.731  0.00  0.00    -0.018 S 
BRANCH  20  22
ATOM     22  N   UNL     1      -3.655   1.093   0.750  0.00  0.00    -0.263 N 
ATOM     23  C   UNL     1      -3.702   2.198   1.520  0.00  0.00    +0.258 C 
ATOM     24  O   UNL     1      -4.676   2.414   2.215  0.00  0.00    -0.269 OA
ATOM     25  H   UNL     1      -2.878   0.921   0.196  0.00  0.00    +0.157 HD
BRANCH  23  26
ATOM     26  C   UNL     1      -2.578   3.142   1.518  0.00  0.00    +0.094 A 
ATOM     27  C   UNL     1      -2.442   4.300   2.220  0.00  0.00    +0.068 A 
ATOM     28  C   UNL     1      -1.274   5.072   2.078  0.00  0.00    +0.008 A 
ATOM     29  C   UNL     1      -0.948   6.297   2.716  0.00  0.00    +0.010 A 
ATOM     30  C   UNL     1       0.234   6.918   2.466  0.00  0.00    +0.001 A 
ATOM     31  C   UNL     1       1.164   6.384   1.582  0.00  0.00    +0.001 A 
ATOM     32  C   UNL     1       0.887   5.194   0.940  0.00  0.00    +0.016 A 
ATOM     33  C   UNL     1      -0.308   4.553   1.184  0.00  0.00    +0.021 A 
ATOM     34  S   UNL     1      -1.053   3.052   0.596  0.00  0.00    -0.082 S 
ATOM     35 CL   UNL     1      -3.707   4.825   3.287  0.00  0.00    -0.082 Cl
ENDBRANCH  23  26
ENDBRANCH  20  22
ENDBRANCH   1  20
TORSDOF 7
