REMARK  Name = ZINC39727171
REMARK  12 active torsions:
REMARK  status: ('A' for Active; 'I' for Inactive)
REMARK    1  A    between atoms: C_1  and  C_2
REMARK    2  A    between atoms: C_3  and  C_35
REMARK    3  A    between atoms: C_4  and  C_34
REMARK    4  A    between atoms: C_7  and  C_8
REMARK    5  A    between atoms: C_8  and  C_10
REMARK    6  A    between atoms: C_10  and  S_11
REMARK    7  A    between atoms: S_11  and  C_12
REMARK    8  A    between atoms: C_15  and  C_25
REMARK    9  A    between atoms: N_17  and  C_18
REMARK   10  A    between atoms: C_25  and  C_27
REMARK   11  A    between atoms: C_25  and  N_28
REMARK   12  A    between atoms: C_35  and  C_37
REMARK                            x       y       z     vdW  Elec       q    Type
REMARK                         _______ _______ _______ _____ _____    ______ ____
ROOT
ATOM      1  C   UNL     1      -0.882  -2.150   6.395  0.00  0.00    +0.180 C 
ATOM      2  N   UNL     1      -0.676  -3.372   6.039  0.00  0.00    -0.162 NA
ATOM      3  N   UNL     1      -0.478  -4.203   7.149  0.00  0.00    -0.248 N 
ATOM      4  C   UNL     1      -0.585  -3.336   8.335  0.00  0.00    +0.168 C 
ATOM      5  N   UNL     1      -0.845  -2.000   7.774  0.00  0.00    -0.260 N 
ATOM      6  H   UNL     1      -0.306  -5.158   7.139  0.00  0.00    +0.170 HD
ENDROOT
BRANCH   5   7
ATOM      7  C   UNL     1      -1.023  -0.812   8.491  0.00  0.00    +0.038 A 
ATOM      8  C   UNL     1      -2.126  -0.659   9.321  0.00  0.00    +0.026 A 
ATOM      9  C   UNL     1      -2.299   0.515  10.028  0.00  0.00    +0.040 A 
ATOM     10  C   UNL     1      -1.374   1.538   9.910  0.00  0.00    +0.124 A 
ATOM     11  C   UNL     1      -0.273   1.388   9.084  0.00  0.00    +0.040 A 
ATOM     12  C   UNL     1      -0.093   0.214   8.379  0.00  0.00    +0.026 A 
ATOM     13  F   UNL     1      -1.546   2.686  10.603  0.00  0.00    -0.205 F 
ENDBRANCH   5   7
BRANCH   4  14
ATOM     14  C   UNL     1       0.726  -3.340   9.123  0.00  0.00    -0.031 C 
ATOM     15  C   UNL     1       1.864  -2.858   8.220  0.00  0.00    -0.010 C 
BRANCH  14  16
ATOM     16  N   UNL     1       1.014  -4.703   9.589  0.00  0.00    +0.384 N 
ATOM     17  C   UNL     1      -0.083  -5.167  10.447  0.00  0.00    -0.078 C 
ATOM     18  C   UNL     1       0.172  -6.615  10.869  0.00  0.00    -0.019 C 
ATOM     19  C   UNL     1       1.493  -6.691  11.641  0.00  0.00    -0.004 C 
ATOM     20  C   UNL     1       2.618  -6.135  10.763  0.00  0.00    -0.019 C 
ATOM     21  C   UNL     1       2.272  -4.705  10.344  0.00  0.00    -0.078 C 
ATOM     22  H   UNL     1       1.099  -5.318   8.794  0.00  0.00    -0.081 HD
ENDBRANCH  14  16
ENDBRANCH   4  14
BRANCH   1  23
ATOM     23  S   UNL     1      -1.170  -0.828   5.266  0.00  0.00    -0.081 S 
BRANCH  23  24
ATOM     24  C   UNL     1      -1.104  -1.621   3.636  0.00  0.00    +0.158 C 
BRANCH  24  25
ATOM     25  C   UNL     1      -1.337  -0.588   2.564  0.00  0.00    +0.190 C 
ATOM     26  O   UNL     1      -1.529   0.572   2.870  0.00  0.00    -0.290 OA
BRANCH  25  33
ATOM     27  C   UNL     1      -1.794   1.354   0.181  0.00  0.00    +0.047 C 
ATOM     28  C   UNL     1      -1.532  -0.129   0.127  0.00  0.00    -0.012 A 
ATOM     29  C   UNL     1      -1.437  -0.926  -1.037  0.00  0.00    +0.041 A 
ATOM     30  C   UNL     1      -1.188  -2.227  -0.622  0.00  0.00    +0.024 A 
ATOM     31  N   UNL     1      -1.131  -2.245   0.716  0.00  0.00    -0.355 N 
ATOM     32  H   UNL     1      -0.969  -3.032   1.260  0.00  0.00    +0.166 HD
ATOM     33  C   UNL     1      -1.333  -0.968   1.201  0.00  0.00    +0.087 A 
ATOM     34  C   UNL     1      -1.012  -3.419  -1.526  0.00  0.00    +0.064 C 
BRANCH  29  35
ATOM     35  C   UNL     1      -1.575  -0.465  -2.422  0.00  0.00    +0.162 C 
ATOM     36  O   UNL     1      -2.673  -0.408  -2.936  0.00  0.00    -0.292 OA
ATOM     37  C   UNL     1      -0.354  -0.062  -3.208  0.00  0.00    +0.091 C 
ENDBRANCH  29  35
ENDBRANCH  25  33
ENDBRANCH  24  25
ENDBRANCH  23  24
ENDBRANCH   1  23
TORSDOF 8
