REMARK  Name = ZINC36203385
REMARK  12 active torsions:
REMARK  status: ('A' for Active; 'I' for Inactive)
REMARK    1  A    between atoms: C_1  and  O_2
REMARK    2  A    between atoms: O_2  and  C_3
REMARK    3  A    between atoms: C_7  and  C_9
REMARK    4  A    between atoms: C_9  and  N_10
REMARK    5  A    between atoms: N_10  and  C_11
REMARK    6  A    between atoms: N_10  and  C_33
REMARK    7  A    between atoms: C_11  and  C_12
REMARK    8  A    between atoms: C_15  and  C_17
REMARK    9  A    between atoms: C_17  and  C_18
REMARK   10  A    between atoms: C_17  and  C_25
REMARK   11  A    between atoms: C_17  and  O_32
REMARK   12  A    between atoms: C_33  and  C_34
REMARK                            x       y       z     vdW  Elec       q    Type
REMARK                         _______ _______ _______ _____ _____    ______ ____
ROOT
ATOM      1  C   UNL     1      -2.251  -5.059  -2.749  0.00  0.00    +0.089 A 
ATOM      2  C   UNL     1      -1.051  -5.654  -2.880  0.00  0.00    +0.043 A 
ATOM      3  C   UNL     1      -1.179  -6.611  -3.912  0.00  0.00    +0.048 A 
ATOM      4  C   UNL     1      -2.449  -6.544  -4.350  0.00  0.00    +0.146 A 
ATOM      5  O   UNL     1      -3.095  -5.607  -3.638  0.00  0.00    -0.463 OA
ENDROOT
BRANCH   1   6
ATOM      6  C   UNL     1      -2.591  -3.968  -1.767  0.00  0.00    -0.003 C 
BRANCH   6   7
ATOM      7  N   UNL     1      -2.336  -2.659  -2.382  0.00  0.00    +0.389 N 
ATOM      8  H   UNL     1      -1.376  -2.612  -2.689  0.00  0.00    -0.081 HD
BRANCH   7   9
ATOM      9  C   UNL     1      -2.587  -1.598  -1.397  0.00  0.00    -0.042 C 
BRANCH   9  14
ATOM     10  C   UNL     1      -0.511   1.402  -2.382  0.00  0.00    +0.120 A 
ATOM     11  C   UNL     1      -1.449   2.178  -3.047  0.00  0.00    +0.045 A 
ATOM     12  C   UNL     1      -2.749   1.730  -3.175  0.00  0.00    +0.004 A 
ATOM     13  C   UNL     1      -3.116   0.508  -2.641  0.00  0.00    +0.002 A 
ATOM     14  C   UNL     1      -2.183  -0.267  -1.978  0.00  0.00    -0.060 A 
ATOM     15  C   UNL     1      -0.880   0.174  -1.852  0.00  0.00    +0.047 A 
BRANCH  10  17
ATOM     16  C   UNL     1       1.078   3.114  -2.826  0.00  0.00    +0.277 C 
ATOM     17  O   UNL     1       0.769   1.841  -2.256  0.00  0.00    -0.495 OA
ENDBRANCH  10  17
ENDBRANCH   9  14
ENDBRANCH   7   9
BRANCH   7  18
ATOM     18  C   UNL     1      -3.229  -2.477  -3.534  0.00  0.00    -0.046 C 
BRANCH  18  19
ATOM     19  C   UNL     1      -4.676  -2.385  -3.049  0.00  0.00    +0.102 C 
ATOM     20  C   UNL     1      -5.627  -2.104  -4.240  0.00  0.00    +0.032 C 
ATOM     21  C   UNL     1      -6.962  -2.680  -3.695  0.00  0.00    +0.030 C 
ATOM     22  C   UNL     1      -6.480  -3.877  -2.847  0.00  0.00    +0.160 C 
ATOM     23  O   UNL     1      -5.104  -3.648  -2.514  0.00  0.00    -0.378 OA
ENDBRANCH  18  19
ENDBRANCH   7  18
ENDBRANCH   6   7
ENDBRANCH   1   6
BRANCH   4  24
ATOM     24  C   UNL     1      -3.047  -7.384  -5.450  0.00  0.00    +0.174 C 
BRANCH  24  25
ATOM     25  C   UNL     1      -4.517  -7.584  -5.186  0.00  0.00    -0.004 A 
ATOM     26  C   UNL     1      -5.396  -6.527  -5.331  0.00  0.00    +0.010 A 
ATOM     27  C   UNL     1      -6.744  -6.710  -5.090  0.00  0.00    +0.039 A 
ATOM     28  C   UNL     1      -7.215  -7.952  -4.701  0.00  0.00    +0.123 A 
ATOM     29  C   UNL     1      -6.334  -9.011  -4.556  0.00  0.00    +0.039 A 
ATOM     30  C   UNL     1      -4.987  -8.827  -4.803  0.00  0.00    +0.010 A 
ATOM     31  F   UNL     1      -8.533  -8.132  -4.465  0.00  0.00    -0.205 F 
ENDBRANCH  24  25
BRANCH  24  32
ATOM     32  C   UNL     1      -2.866  -6.683  -6.772  0.00  0.00    -0.004 A 
ATOM     33  C   UNL     1      -3.043  -5.315  -6.859  0.00  0.00    +0.010 A 
ATOM     34  C   UNL     1      -2.877  -4.671  -8.070  0.00  0.00    +0.039 A 
ATOM     35  C   UNL     1      -2.531  -5.397  -9.197  0.00  0.00    +0.123 A 
ATOM     36  C   UNL     1      -2.354  -6.768  -9.109  0.00  0.00    +0.039 A 
ATOM     37  C   UNL     1      -2.516  -7.408  -7.896  0.00  0.00    +0.010 A 
ATOM     38  F   UNL     1      -2.368  -4.769 -10.382  0.00  0.00    -0.205 F 
ENDBRANCH  24  32
BRANCH  24  39
ATOM     39  O   UNL     1      -2.393  -8.653  -5.490  0.00  0.00    -0.372 OA
ATOM     40  H   UNL     1      -1.442  -8.601  -5.656  0.00  0.00    +0.212 HD
ENDBRANCH  24  39
ENDBRANCH   4  24
TORSDOF 11
