REMARK  Name = ZINC44988978
REMARK  7 active torsions:
REMARK  status: ('A' for Active; 'I' for Inactive)
REMARK    1  A    between atoms: C_1  and  C_2
REMARK    2  A    between atoms: C_2  and  C_3
REMARK    3  A    between atoms: C_2  and  C_4
REMARK    4  A    between atoms: C_2  and  O_5
REMARK    5  A    between atoms: O_5  and  C_6
REMARK    6  A    between atoms: C_21  and  C_23
REMARK    7  A    between atoms: N_25  and  C_26
REMARK                            x       y       z     vdW  Elec       q    Type
REMARK                         _______ _______ _______ _____ _____    ______ ____
ROOT
ATOM      1  C   UNL     1       1.979   1.438  -2.840  0.00  0.00    +0.404 C 
ATOM      2  O   UNL     1       2.359   2.051  -1.861  0.00  0.00    -0.226 OA
ATOM      3  N   UNL     1       2.687   0.383  -3.290  0.00  0.00    -0.250 N 
ATOM      4  C   UNL     1       2.190  -0.439  -4.407  0.00  0.00    +0.165 C 
ATOM      5  C   UNL     1       2.394  -1.889  -4.030  0.00  0.00    +0.038 A 
ATOM      6  C   UNL     1       3.135  -2.287  -2.973  0.00  0.00    -0.015 A 
ATOM      7  C   UNL     1       3.092  -3.735  -2.948  0.00  0.00    +0.003 A 
ATOM      8  C   UNL     1       3.664  -4.686  -2.097  0.00  0.00    +0.010 A 
ATOM      9  C   UNL     1       3.405  -6.005  -2.377  0.00  0.00    +0.001 A 
ATOM     10  C   UNL     1       2.617  -6.389  -3.450  0.00  0.00    +0.002 A 
ATOM     11  C   UNL     1       2.039  -5.470  -4.308  0.00  0.00    +0.026 A 
ATOM     12  C   UNL     1       2.284  -4.123  -4.048  0.00  0.00    +0.047 A 
ATOM     13  N   UNL     1       1.880  -2.981  -4.677  0.00  0.00    -0.356 N 
ATOM     14  H   UNL     1       1.315  -2.948  -5.465  0.00  0.00    +0.166 HD
ATOM     15  C   UNL     1       3.846  -1.358  -2.023  0.00  0.00    +0.069 C 
ATOM     16  C   UNL     1       3.978   0.026  -2.683  0.00  0.00    +0.170 C 
ENDROOT
BRANCH  16  17
ATOM     17  C   UNL     1       4.347   1.052  -1.642  0.00  0.00    +0.238 C 
ATOM     18  O   UNL     1       3.781   1.058  -0.569  0.00  0.00    -0.273 OA
ATOM     19  N   UNL     1       5.305   1.963  -1.904  0.00  0.00    -0.284 N 
ATOM     20  H   UNL     1       5.704   2.007  -2.787  0.00  0.00    +0.155 HD
BRANCH  19  21
ATOM     21  C   UNL     1       5.725   2.846  -0.901  0.00  0.00    +0.034 A 
ATOM     22  C   UNL     1       5.622   2.473   0.440  0.00  0.00    +0.025 A 
ATOM     23  C   UNL     1       6.026   3.318   1.433  0.00  0.00    +0.029 A 
ATOM     24  C   UNL     1       6.548   4.570   1.115  0.00  0.00    +0.066 A 
ATOM     25  C   UNL     1       6.657   4.956  -0.235  0.00  0.00    +0.021 A 
ATOM     26  C   UNL     1       6.244   4.078  -1.244  0.00  0.00    +0.035 A 
ATOM     27  C   UNL     1       7.231   6.298  -0.233  0.00  0.00    +0.142 A 
ATOM     28  N   UNL     1       7.431   6.644   1.007  0.00  0.00    -0.181 NA
ATOM     29  N   UNL     1       7.027   5.615   1.864  0.00  0.00    -0.277 N 
ATOM     30  H   UNL     1       7.077   5.637   2.832  0.00  0.00    +0.189 HD
ENDBRANCH  19  21
ENDBRANCH  16  17
BRANCH   1  31
ATOM     31  O   UNL     1       0.853   1.813  -3.474  0.00  0.00    -0.445 OA
BRANCH  31  33
ATOM     32  C   UNL     1       1.067   4.167  -2.969  0.00  0.00    +0.055 C 
ATOM     33  C   UNL     1       0.153   2.940  -2.943  0.00  0.00    +0.107 C 
ATOM     34  C   UNL     1      -0.265   2.647  -1.500  0.00  0.00    +0.055 C 
ATOM     35  C   UNL     1      -1.091   3.214  -3.789  0.00  0.00    +0.055 C 
ENDBRANCH  31  33
ENDBRANCH   1  31
TORSDOF 4
