REMARK  Name = ZINC36637346
REMARK  9 active torsions:
REMARK  status: ('A' for Active; 'I' for Inactive)
REMARK    1  A    between atoms: C_1  and  C_2
REMARK    2  A    between atoms: N_8  and  S_9
REMARK    3  A    between atoms: S_9  and  C_12
REMARK    4  A    between atoms: C_15  and  C_18
REMARK    5  A    between atoms: N_20  and  C_21
REMARK    6  A    between atoms: C_21  and  C_22
REMARK    7  A    between atoms: C_22  and  N_23
REMARK    8  A    between atoms: N_23  and  C_24
REMARK    9  A    between atoms: N_23  and  C_25
REMARK                            x       y       z     vdW  Elec       q    Type
REMARK                         _______ _______ _______ _____ _____    ______ ____
ROOT
ATOM      1  C   UNL     1      -2.852   1.547   7.058  0.00  0.00    +0.252 C 
ATOM      2  O   UNL     1      -3.722   2.387   7.186  0.00  0.00    -0.270 OA
ATOM      3  N   UNL     1      -2.689   0.598   8.001  0.00  0.00    -0.248 N 
ATOM      4  C   UNL     1      -3.599   0.488   9.038  0.00  0.00    +0.168 A 
ATOM      5  N   UNL     1      -3.605  -0.359  10.041  0.00  0.00    -0.224 NA
ATOM      6  C   UNL     1      -4.565  -0.351  10.992  0.00  0.00    +0.080 A 
ATOM      7  C   UNL     1      -4.688  -1.201  12.115  0.00  0.00    +0.030 A 
ATOM      8  C   UNL     1      -5.733  -1.059  12.990  0.00  0.00    +0.022 A 
ATOM      9  C   UNL     1      -6.703  -0.082  12.809  0.00  0.00    +0.042 A 
ATOM     10  C   UNL     1      -6.613   0.768  11.720  0.00  0.00    +0.037 A 
ATOM     11  C   UNL     1      -5.569   0.632  10.839  0.00  0.00    +0.042 A 
ATOM     12  S   UNL     1      -5.059   1.468   9.357  0.00  0.00    -0.052 S 
ATOM     13 CL   UNL     1      -8.015   0.072  13.936  0.00  0.00    -0.084 Cl
ENDROOT
BRANCH   1  17
ATOM     14  C   UNL     1      -0.329   1.608   3.643  0.00  0.00    +0.106 A 
ATOM     15  C   UNL     1      -1.636   2.052   3.541  0.00  0.00    +0.029 A 
ATOM     16  C   UNL     1      -2.461   2.034   4.647  0.00  0.00    +0.015 A 
ATOM     17  C   UNL     1      -1.974   1.568   5.870  0.00  0.00    +0.037 A 
ATOM     18  C   UNL     1      -0.655   1.122   5.965  0.00  0.00    +0.015 A 
ATOM     19  C   UNL     1       0.158   1.140   4.850  0.00  0.00    +0.029 A 
BRANCH  14  20
ATOM     20  S   UNL     1       0.718   1.634   2.226  0.00  0.00    +0.061 S 
ATOM     21  O   UNL     1       2.050   1.504   2.703  0.00  0.00    -0.153 OA
ATOM     22  O   UNL     1       0.298   2.733   1.430  0.00  0.00    -0.153 OA
BRANCH  20  29
ATOM     23  C   UNL     1       2.014  -0.805   2.845  0.00  0.00    +0.026 C 
ATOM     24  C   UNL     1       0.998  -1.021   1.722  0.00  0.00    +0.077 C 
ATOM     25  C   UNL     1       1.704  -1.609   0.496  0.00  0.00    +0.020 C 
ATOM     26  C   UNL     1       0.712  -1.693  -0.666  0.00  0.00    +0.003 C 
ATOM     27  C   UNL     1       0.219  -0.288  -1.020  0.00  0.00    +0.017 C 
ATOM     28  C   UNL     1      -0.504   0.315   0.188  0.00  0.00    +0.110 C 
ATOM     29  N   UNL     1       0.393   0.265   1.352  0.00  0.00    -0.174 NA
ENDBRANCH  20  29
ENDBRANCH  14  20
ENDBRANCH   1  17
BRANCH   3  30
ATOM     30  C   UNL     1      -1.548  -0.318   7.927  0.00  0.00    +0.097 C 
BRANCH  30  31
ATOM     31  C   UNL     1      -0.452   0.154   8.884  0.00  0.00    -0.060 C 
BRANCH  31  32
ATOM     32  N   UNL     1       0.631  -0.838   8.916  0.00  0.00    +0.377 N 
ATOM     33  C   UNL     1       1.282  -0.895   7.600  0.00  0.00    -0.097 C 
ATOM     34  C   UNL     1       1.618  -0.453   9.934  0.00  0.00    -0.097 C 
ATOM     35  H   UNL     1       0.251  -1.744   9.143  0.00  0.00    -0.083 HD
ENDBRANCH  31  32
ENDBRANCH  30  31
ENDBRANCH   3  30
TORSDOF 6
