REMARK  Name = ZINC12887369
REMARK  6 active torsions:
REMARK  status: ('A' for Active; 'I' for Inactive)
REMARK    1  A    between atoms: C_1  and  C_2
REMARK    2  A    between atoms: C_2  and  C_3
REMARK    3  A    between atoms: C_3  and  C_5
REMARK    4  A    between atoms: C_3  and  N_6
REMARK    5  A    between atoms: C_11  and  C_27
REMARK    6  A    between atoms: C_27  and  C_28
REMARK                            x       y       z     vdW  Elec       q    Type
REMARK                         _______ _______ _______ _____ _____    ______ ____
ROOT
ATOM      1  N   UNL     1      -2.062   0.977   1.338  0.00  0.00    -0.239 N 
ATOM      2  C   UNL     1      -2.256  -0.346   1.395  0.00  0.00    +0.224 C 
ATOM      3  O   UNL     1      -1.380  -1.183   1.391  0.00  0.00    -0.275 OA
ATOM      4  C   UNL     1      -3.739  -0.634   1.466  0.00  0.00    +0.073 C 
ATOM      5  C   UNL     1      -4.191  -1.312   0.156  0.00  0.00    -0.053 C 
ATOM      6  C   UNL     1      -5.156   0.815   0.102  0.00  0.00    +0.050 C 
ATOM      7  C   UNL     1      -4.381   0.781   1.425  0.00  0.00    +0.088 C 
ATOM      8  C   UNL     1      -3.185   1.704   1.357  0.00  0.00    +0.225 C 
ATOM      9  O   UNL     1      -3.236   2.915   1.324  0.00  0.00    -0.275 OA
ATOM     10  C   UNL     1      -6.617   0.532   0.311  0.00  0.00    -0.028 A 
ATOM     11  C   UNL     1      -7.310  -0.536   0.836  0.00  0.00    +0.004 A 
ATOM     12  C   UNL     1      -8.692  -0.501   0.897  0.00  0.00    +0.000 A 
ATOM     13  C   UNL     1      -9.374   0.608   0.430  0.00  0.00    +0.002 A 
ATOM     14  C   UNL     1      -8.683   1.679  -0.097  0.00  0.00    +0.023 A 
ATOM     15  C   UNL     1      -7.292   1.652  -0.163  0.00  0.00    +0.036 A 
ATOM     16  N   UNL     1      -6.383   2.596  -0.646  0.00  0.00    -0.286 N 
ATOM     17  C   UNL     1      -5.108   2.180  -0.527  0.00  0.00    +0.211 C 
ATOM     18  O   UNL     1      -4.113   2.788  -0.863  0.00  0.00    -0.277 OA
ATOM     19  H   UNL     1      -6.640   3.453  -1.022  0.00  0.00    +0.155 HD
ATOM     20  N   UNL     1      -4.531  -0.202  -0.729  0.00  0.00    +0.394 N 
ATOM     21  H   UNL     1      -5.184  -0.516  -1.456  0.00  0.00    -0.083 HD
ATOM     22  H   UNL     1      -3.683   0.173  -1.169  0.00  0.00    -0.083 HD
ENDROOT
BRANCH   1  23
ATOM     23  C   UNL     1      -0.729   1.579   1.267  0.00  0.00    +0.081 C 
ATOM     24  C   UNL     1       0.079   1.179   2.503  0.00  0.00    +0.028 C 
BRANCH  23  26
ATOM     25  C   UNL     1      -0.753   1.593  -1.232  0.00  0.00    +0.006 C 
ATOM     26  C   UNL     1      -0.013   1.086   0.008  0.00  0.00    +0.019 C 
ENDBRANCH  23  26
ENDBRANCH   1  23
BRANCH   5  27
ATOM     27  C   UNL     1      -3.061  -2.173  -0.415  0.00  0.00    +0.022 C 
BRANCH  27  28
ATOM     28  C   UNL     1      -3.562  -2.921  -1.623  0.00  0.00    -0.024 A 
ATOM     29  C   UNL     1      -4.045  -4.173  -1.643  0.00  0.00    +0.087 A 
ATOM     30  N   UNL     1      -4.402  -4.515  -2.919  0.00  0.00    -0.360 N 
ATOM     31  H   UNL     1      -4.777  -5.370  -3.183  0.00  0.00    +0.165 HD
ATOM     32  C   UNL     1      -4.150  -3.465  -3.773  0.00  0.00    +0.047 A 
ATOM     33  C   UNL     1      -3.618  -2.418  -2.998  0.00  0.00    +0.003 A 
ATOM     34  C   UNL     1      -3.258  -1.215  -3.607  0.00  0.00    +0.010 A 
ATOM     35  C   UNL     1      -3.436  -1.055  -4.952  0.00  0.00    +0.001 A 
ATOM     36  C   UNL     1      -3.966  -2.082  -5.720  0.00  0.00    +0.002 A 
ATOM     37  C   UNL     1      -4.322  -3.281  -5.141  0.00  0.00    +0.026 A 
ENDBRANCH  27  28
ENDBRANCH   5  27
TORSDOF 4
