REMARK  Name = ZINC67197117
REMARK  9 active torsions:
REMARK  status: ('A' for Active; 'I' for Inactive)
REMARK    1  A    between atoms: C_1  and  C_2
REMARK    2  A    between atoms: C_2  and  C_3
REMARK    3  A    between atoms: C_2  and  C_4
REMARK    4  A    between atoms: C_2  and  C_5
REMARK    5  A    between atoms: C_8  and  C_11
REMARK    6  A    between atoms: C_14  and  C_16
REMARK    7  A    between atoms: N_18  and  N_19
REMARK    8  A    between atoms: C_20  and  C_21
REMARK    9  A    between atoms: C_23  and  O_29
REMARK                            x       y       z     vdW  Elec       q    Type
REMARK                         _______ _______ _______ _____ _____    ______ ____
ROOT
ATOM      1  C   UNL     1       3.652  -4.506  -2.969  0.00  0.00    +0.236 C 
ATOM      2  O   UNL     1       3.133  -3.735  -2.190  0.00  0.00    -0.274 OA
ATOM      3  N   UNL     1       4.903  -4.954  -2.740  0.00  0.00    -0.207 N 
ATOM      4  H   UNL     1       5.346  -5.513  -3.398  0.00  0.00    +0.177 HD
ENDROOT
BRANCH   1   7
ATOM      5  C   UNL     1       1.859  -4.009  -4.779  0.00  0.00    +0.032 C 
ATOM      6  C   UNL     1       3.183  -4.239  -5.509  0.00  0.00    +0.022 C 
ATOM      7  C   UNL     1       2.900  -4.964  -4.191  0.00  0.00    +0.085 C 
BRANCH   5  11
ATOM      8  C   UNL     1       1.309  -0.250  -2.826  0.00  0.00    -0.042 A 
ATOM      9  C   UNL     1       0.250  -1.131  -2.940  0.00  0.00    +0.004 A 
ATOM     10  C   UNL     1       0.428  -2.347  -3.572  0.00  0.00    +0.004 A 
ATOM     11  C   UNL     1       1.665  -2.682  -4.090  0.00  0.00    -0.044 A 
ATOM     12  C   UNL     1       2.723  -1.801  -3.977  0.00  0.00    +0.004 A 
ATOM     13  C   UNL     1       2.544  -0.583  -3.349  0.00  0.00    +0.004 A 
BRANCH   8  15
ATOM     14  C   UNL     1       1.419   2.210  -3.118  0.00  0.00    +0.015 C 
ATOM     15  C   UNL     1       1.115   1.076  -2.136  0.00  0.00    -0.013 C 
ATOM     16  C   UNL     1       2.062   1.171  -0.938  0.00  0.00    +0.015 C 
ATOM     17  C   UNL     1      -0.332   1.193  -1.653  0.00  0.00    +0.015 C 
ENDBRANCH   8  15
ENDBRANCH   5  11
ENDBRANCH   1   7
BRANCH   3  18
ATOM     18  N   UNL     1       5.563  -4.613  -1.553  0.00  0.00    -0.188 NA
ATOM     19  C   UNL     1       6.805  -4.949  -1.381  0.00  0.00    +0.139 C 
BRANCH  19  20
ATOM     20  C   UNL     1       7.585  -5.488  -2.510  0.00  0.00    +0.012 A 
ATOM     21  C   UNL     1       7.258  -5.135  -3.821  0.00  0.00    +0.057 A 
ATOM     22  C   UNL     1       7.996  -5.644  -4.875  0.00  0.00    +0.131 A 
ATOM     23  C   UNL     1       9.059  -6.505  -4.629  0.00  0.00    +0.060 A 
ATOM     24  C   UNL     1       9.384  -6.857  -3.332  0.00  0.00    +0.034 A 
ATOM     25  C   UNL     1       8.659  -6.351  -2.272  0.00  0.00    +0.028 A 
ATOM     26 BR   UNL     1       9.114  -6.829  -0.499  0.00  0.00    -0.050 Br
ATOM     27 BR   UNL     1      10.063  -7.198  -6.074  0.00  0.00    -0.046 Br
BRANCH  22  28
ATOM     28  O   UNL     1       7.680  -5.302  -6.152  0.00  0.00    -0.506 OA
ATOM     29  H   UNL     1       8.137  -4.513  -6.472  0.00  0.00    +0.292 HD
ENDBRANCH  22  28
ENDBRANCH  19  20
ENDBRANCH   3  18
TORSDOF 6
