REMARK  Name = ZINC39699213
REMARK  10 active torsions:
REMARK  status: ('A' for Active; 'I' for Inactive)
REMARK    1  A    between atoms: C_1  and  C_2
REMARK    2  A    between atoms: C_2  and  C_3
REMARK    3  A    between atoms: C_10  and  C_15
REMARK    4  A    between atoms: C_15  and  C_17
REMARK    5  A    between atoms: C_15  and  N_27
REMARK    6  A    between atoms: N_22  and  C_23
REMARK    7  A    between atoms: C_23  and  C_24
REMARK    8  A    between atoms: C_23  and  C_25
REMARK    9  A    between atoms: C_23  and  C_26
REMARK   10  A    between atoms: N_30  and  C_33
REMARK                            x       y       z     vdW  Elec       q    Type
REMARK                         _______ _______ _______ _____ _____    ______ ____
ROOT
ATOM      1  C   UNL     1       5.620  -0.763  -4.261  0.00  0.00    +0.115 C 
ENDROOT
BRANCH   1   9
ATOM      2  C   UNL     1       1.560  -2.297  -8.161  0.00  0.00    -0.047 A 
ATOM      3  C   UNL     1       1.632  -3.637  -7.781  0.00  0.00    +0.005 A 
ATOM      4  C   UNL     1       2.277  -4.046  -6.657  0.00  0.00    +0.024 A 
ATOM      5  C   UNL     1       2.911  -3.113  -5.817  0.00  0.00    +0.040 A 
ATOM      6  N   UNL     1       3.541  -3.526  -4.718  0.00  0.00    -0.284 N 
ATOM      7  C   UNL     1       4.156  -2.703  -3.885  0.00  0.00    +0.226 C 
ATOM      8  O   UNL     1       4.715  -3.139  -2.897  0.00  0.00    -0.275 OA
ATOM      9  C   UNL     1       4.162  -1.217  -4.168  0.00  0.00    +0.119 C 
ATOM     10  C   UNL     1       3.447  -0.742  -5.417  0.00  0.00    -0.003 C 
ATOM     11  C   UNL     1       2.851  -1.690  -6.195  0.00  0.00    -0.007 A 
ATOM     12  C   UNL     1       2.143  -1.319  -7.421  0.00  0.00    +0.013 A 
ATOM     13  H   UNL     1       3.549  -4.475  -4.519  0.00  0.00    +0.155 HD
BRANCH   2  15
ATOM     14  C   UNL     1       1.795  -1.957 -10.606  0.00  0.00    +0.009 C 
ATOM     15  C   UNL     1       0.825  -1.927  -9.424  0.00  0.00    +0.032 C 
ENDBRANCH   2  15
ENDBRANCH   1   9
BRANCH   1  16
ATOM     16  N   UNL     1       6.341  -1.623  -5.209  0.00  0.00    -0.299 NA
ATOM     17  C   UNL     1       5.526  -1.889  -6.403  0.00  0.00    +0.066 C 
ATOM     18  C   UNL     1       6.333  -2.736  -7.389  0.00  0.00    -0.063 C 
ATOM     19  N   UNL     1       6.721  -3.999  -6.747  0.00  0.00    +0.383 N 
ATOM     20  C   UNL     1       7.554  -3.718  -5.571  0.00  0.00    -0.063 C 
ATOM     21  C   UNL     1       6.757  -2.879  -4.570  0.00  0.00    +0.066 C 
ATOM     22  H   UNL     1       5.892  -4.499  -6.460  0.00  0.00    -0.081 HD
BRANCH  19  23
ATOM     23  C   UNL     1       7.480  -4.820  -7.700  0.00  0.00    -0.068 C 
ATOM     24  C   UNL     1       6.611  -5.115  -8.924  0.00  0.00    -0.015 C 
ATOM     25  C   UNL     1       7.402  -5.970  -9.917  0.00  0.00    -0.002 C 
ATOM     26  C   UNL     1       7.806  -7.285  -9.249  0.00  0.00    -0.000 C 
ATOM     27  C   UNL     1       8.675  -6.990  -8.024  0.00  0.00    -0.002 C 
ATOM     28  C   UNL     1       7.884  -6.136  -7.032  0.00  0.00    -0.015 C 
ENDBRANCH  19  23
ENDBRANCH   1  16
BRANCH   1  29
ATOM     29  C   UNL     1       5.673   0.687  -4.745  0.00  0.00    +0.236 C 
ATOM     30  N   UNL     1       5.213   0.780  -6.138  0.00  0.00    -0.148 NA
ATOM     31  N   UNL     1       6.132   1.215  -6.833  0.00  0.00    -0.069 NA
ATOM     32  N   UNL     1       7.290   1.477  -6.101  0.00  0.00    -0.179 N 
ATOM     33  N   UNL     1       7.070   1.169  -4.781  0.00  0.00    -0.179 NA
ATOM     34  H   UNL     1       8.119   1.823  -6.466  0.00  0.00    +0.191 HD
BRANCH  33  35
ATOM     35  C   UNL     1       7.241   2.351  -3.926  0.00  0.00    +0.035 C 
ATOM     36  C   UNL     1       6.989   1.966  -2.467  0.00  0.00    +0.029 C 
ATOM     37  C   UNL     1       8.667   2.885  -4.074  0.00  0.00    +0.029 C 
ATOM     38  C   UNL     1       6.245   3.433  -4.347  0.00  0.00    +0.029 C 
ENDBRANCH  33  35
ENDBRANCH   1  29
TORSDOF 6
