REMARK  Name = ZINC03219620
REMARK  9 active torsions:
REMARK  status: ('A' for Active; 'I' for Inactive)
REMARK    1  A    between atoms: C_1  and  C_2
REMARK    2  A    between atoms: C_2  and  C_3
REMARK    3  A    between atoms: C_2  and  C_4
REMARK    4  A    between atoms: C_4  and  C_5
REMARK    5  A    between atoms: C_5  and  C_7
REMARK    6  A    between atoms: C_5  and  N_17
REMARK    7  A    between atoms: N_9  and  C_10
REMARK    8  A    between atoms: N_17  and  S_18
REMARK    9  A    between atoms: S_18  and  C_21
REMARK                            x       y       z     vdW  Elec       q    Type
REMARK                         _______ _______ _______ _____ _____    ______ ____
ROOT
ATOM      1  C   UNL     1      -0.490   1.447   1.083  0.00  0.00    +0.163 C 
ENDROOT
BRANCH   1   2
ATOM      2  C   UNL     1       0.290   0.913   2.257  0.00  0.00    +0.236 C 
ATOM      3  O   UNL     1       0.343   1.548   3.289  0.00  0.00    -0.274 OA
ATOM      4  N   UNL     1       0.930  -0.269   2.159  0.00  0.00    -0.284 N 
ATOM      5  H   UNL     1       0.943  -0.745   1.314  0.00  0.00    +0.155 HD
BRANCH   4   6
ATOM      6  C   UNL     1       1.575  -0.809   3.277  0.00  0.00    +0.036 A 
ATOM      7  C   UNL     1       1.572  -2.183   3.486  0.00  0.00    +0.023 A 
ATOM      8  C   UNL     1       2.210  -2.715   4.589  0.00  0.00    +0.005 A 
ATOM      9  C   UNL     1       2.852  -1.882   5.487  0.00  0.00    +0.038 A 
ATOM     10  C   UNL     1       2.858  -0.512   5.283  0.00  0.00    +0.125 A 
ATOM     11  C   UNL     1       2.225   0.025   4.176  0.00  0.00    +0.061 A 
ATOM     12  F   UNL     1       3.486   0.299   6.162  0.00  0.00    -0.205 F 
ENDBRANCH   4   6
ENDBRANCH   1   2
BRANCH   1  13
ATOM     13  N   UNL     1      -1.087   2.737   1.440  0.00  0.00    -0.178 NA
ATOM     14  H   UNL     1      -0.559   3.549   1.379  0.00  0.00    +0.149 HD
BRANCH  13  15
ATOM     15  S   UNL     1      -2.662   2.809   1.947  0.00  0.00    +0.061 S 
ATOM     16  O   UNL     1      -2.935   4.174   2.230  0.00  0.00    -0.153 OA
ATOM     17  O   UNL     1      -3.424   2.057   1.012  0.00  0.00    -0.153 OA
BRANCH  15  18
ATOM     18  C   UNL     1      -2.755   1.947   3.481  0.00  0.00    +0.133 A 
ATOM     19  C   UNL     1      -3.029   2.624   4.622  0.00  0.00    +0.031 A 
ATOM     20  C   UNL     1      -3.110   1.975   5.854  0.00  0.00    +0.004 A 
ATOM     21  C   UNL     1      -2.920   0.638   5.964  0.00  0.00    +0.031 A 
ATOM     22  C   UNL     1      -2.630  -0.135   4.810  0.00  0.00    +0.102 A 
ATOM     23  C   UNL     1      -2.549   0.543   3.520  0.00  0.00    +0.126 A 
ATOM     24  N   UNL     1      -2.267  -0.299   2.528  0.00  0.00    -0.189 NA
ATOM     25  S   UNL     1      -2.144  -1.718   3.181  0.00  0.00    +0.117 S 
ATOM     26  N   UNL     1      -2.411  -1.444   4.701  0.00  0.00    -0.191 NA
ENDBRANCH  15  18
ENDBRANCH  13  15
ENDBRANCH   1  13
BRANCH   1  27
ATOM     27  C   UNL     1       0.447   1.631  -0.111  0.00  0.00    +0.032 C 
BRANCH  27  29
ATOM     28  C   UNL     1      -0.969   3.424  -1.123  0.00  0.00    +0.007 C 
ATOM     29  C   UNL     1      -0.368   2.034  -1.342  0.00  0.00    -0.015 C 
ATOM     30  C   UNL     1       0.543   2.061  -2.571  0.00  0.00    +0.007 C 
ENDBRANCH  27  29
ENDBRANCH   1  27
TORSDOF 7
