REMARK  Name = ZINC17309338
REMARK  5 active torsions:
REMARK  status: ('A' for Active; 'I' for Inactive)
REMARK    1  A    between atoms: C_9  and  C_11
REMARK    2  A    between atoms: C_11  and  C_12
REMARK    3  A    between atoms: C_12  and  N_13
REMARK    4  A    between atoms: C_14  and  C_15
REMARK    5  A    between atoms: C_19  and  N_22
REMARK                            x       y       z     vdW  Elec       q    Type
REMARK                         _______ _______ _______ _____ _____    ______ ____
ROOT
ATOM      1  N   UNL     1       5.365  -4.641  -1.160  0.00  0.00    -0.389 N 
ATOM      2  C   UNL     1       5.379  -5.399  -2.266  0.00  0.00    +0.090 C 
ATOM      3  H   UNL     1       5.889  -4.902  -0.387  0.00  0.00    +0.159 HD
ENDROOT
BRANCH   2   4
ATOM      4  C   UNL     1       6.210  -6.520  -2.335  0.00  0.00    +0.041 A 
ATOM      5  C   UNL     1       6.155  -7.393  -3.444  0.00  0.00    +0.033 A 
ATOM      6  C   UNL     1       6.972  -8.479  -3.492  0.00  0.00    +0.044 A 
ATOM      7  C   UNL     1       7.873  -8.757  -2.467  0.00  0.00    +0.056 A 
ATOM      8  C   UNL     1       7.975  -7.955  -1.371  0.00  0.00    +0.175 A 
ATOM      9  C   UNL     1       7.165  -6.813  -1.259  0.00  0.00    +0.217 A 
ATOM     10  O   UNL     1       7.250  -6.080  -0.282  0.00  0.00    -0.285 OA
ATOM     11 CL   UNL     1       6.891  -9.542  -4.862  0.00  0.00    -0.083 Cl
BRANCH   8  12
ATOM     12  N   UNL     1       8.944  -8.284  -0.302  0.00  0.00    +0.060 N 
ATOM     13  O   UNL     1       9.645  -9.264  -0.401  0.00  0.00    -0.126 OA
ATOM     14  O   UNL     1       9.035  -7.572   0.671  0.00  0.00    -0.126 OA
ENDBRANCH   8  12
ENDBRANCH   2   4
BRANCH   1  15
ATOM     15  C   UNL     1       4.560  -3.418  -1.120  0.00  0.00    +0.120 C 
BRANCH  15  16
ATOM     16  C   UNL     1       3.450  -3.572  -0.078  0.00  0.00    +0.095 C 
BRANCH  16  25
ATOM     17  C   UNL     1      -0.359   1.096  -0.016  0.00  0.00    +0.002 A 
ATOM     18  C   UNL     1       0.808   1.810   0.213  0.00  0.00    +0.002 A 
ATOM     19  C   UNL     1       2.013   1.170   0.290  0.00  0.00    +0.030 A 
ATOM     20  C   UNL     1       2.075  -0.218   0.137  0.00  0.00    +0.089 A 
ATOM     21  C   UNL     1       0.893  -0.941  -0.095  0.00  0.00    +0.066 A 
ATOM     22  C   UNL     1      -0.322  -0.274  -0.170  0.00  0.00    +0.028 A 
ATOM     23  N   UNL     1       1.271  -2.265  -0.200  0.00  0.00    -0.342 N 
ATOM     24  H   UNL     1       0.684  -3.019  -0.361  0.00  0.00    +0.167 HD
ATOM     25  C   UNL     1       2.621  -2.314  -0.037  0.00  0.00    +0.110 A 
ATOM     26  N   UNL     1       3.092  -1.118   0.160  0.00  0.00    -0.232 NA
ENDBRANCH  16  25
ENDBRANCH  15  16
ENDBRANCH   1  15
TORSDOF 5
