REMARK  Name = ZINC39658945
REMARK  10 active torsions:
REMARK  status: ('A' for Active; 'I' for Inactive)
REMARK    1  A    between atoms: C_1  and  C_2
REMARK    2  A    between atoms: C_2  and  C_35
REMARK    3  A    between atoms: C_5  and  C_8
REMARK    4  A    between atoms: C_8  and  N_9
REMARK    5  A    between atoms: C_10  and  C_12
REMARK    6  A    between atoms: C_23  and  C_25
REMARK    7  A    between atoms: C_27  and  O_33
REMARK    8  A    between atoms: C_29  and  O_31
REMARK    9  A    between atoms: O_31  and  C_32
REMARK   10  A    between atoms: O_33  and  C_34
REMARK                            x       y       z     vdW  Elec       q    Type
REMARK                         _______ _______ _______ _____ _____    ______ ____
ROOT
ATOM      1  C   UNL     1       3.355  -2.246   5.749  0.00  0.00    +0.100 C 
ATOM      2  C   UNL     1       2.283  -1.679   6.707  0.00  0.00    +0.121 C 
ATOM      3  N   UNL     1       1.970  -2.801   7.624  0.00  0.00    -0.296 N 
ATOM      4  C   UNL     1       3.281  -3.441   7.885  0.00  0.00    +0.115 C 
ATOM      5  C   UNL     1       4.010  -3.399   6.527  0.00  0.00    -0.004 C 
ATOM      6  C   UNL     1       5.496  -3.121   6.734  0.00  0.00    -0.010 C 
ATOM      7  C   UNL     1       6.137  -4.308   7.458  0.00  0.00    -0.082 C 
ATOM      8  N   UNL     1       5.954  -5.527   6.661  0.00  0.00    +0.379 N 
ATOM      9  C   UNL     1       4.524  -5.839   6.547  0.00  0.00    -0.082 C 
ATOM     10  C   UNL     1       3.814  -4.717   5.784  0.00  0.00    -0.010 C 
ATOM     11  C   UNL     1       0.764  -3.158   8.111  0.00  0.00    +0.247 C 
ATOM     12  O   UNL     1      -0.242  -2.611   7.704  0.00  0.00    -0.270 OA
ATOM     13  H   UNL     1       6.341  -5.387   5.740  0.00  0.00    -0.086 HD
ATOM     14  H   UNL     1       6.429  -6.295   7.110  0.00  0.00    -0.086 HD
ENDROOT
BRANCH  11  15
ATOM     15  C   UNL     1       0.666  -4.216   9.139  0.00  0.00    +0.044 A 
ATOM     16  C   UNL     1       1.778  -4.540   9.918  0.00  0.00    +0.059 A 
ATOM     17  C   UNL     1       1.681  -5.532  10.880  0.00  0.00    +0.124 A 
ATOM     18  C   UNL     1       0.482  -6.203  11.070  0.00  0.00    +0.091 A 
ATOM     19  C   UNL     1      -0.625  -5.884  10.297  0.00  0.00    +0.124 A 
ATOM     20  C   UNL     1      -0.539  -4.890   9.336  0.00  0.00    +0.059 A 
BRANCH  19  21
ATOM     21  O   UNL     1      -1.798  -6.545  10.487  0.00  0.00    -0.495 OA
ATOM     22  C   UNL     1      -1.817  -7.554  11.498  0.00  0.00    +0.277 C 
ENDBRANCH  19  21
BRANCH  17  23
ATOM     23  O   UNL     1       2.763  -5.848  11.639  0.00  0.00    -0.495 OA
ATOM     24  C   UNL     1       2.593  -6.880  12.613  0.00  0.00    +0.277 C 
ENDBRANCH  17  23
ENDBRANCH  11  15
BRANCH   1  26
ATOM     25  N   UNL     1       3.430  -2.853   3.353  0.00  0.00    -0.312 N 
ATOM     26  C   UNL     1       2.711  -2.763   4.489  0.00  0.00    +0.218 C 
ATOM     27  O   UNL     1       1.545  -3.097   4.496  0.00  0.00    -0.275 OA
ATOM     28  H   UNL     1       4.363  -2.586   3.347  0.00  0.00    +0.149 HD
BRANCH  25  29
ATOM     29  C   UNL     1       2.804  -3.356   2.127  0.00  0.00    +0.138 C 
BRANCH  29  34
ATOM     30  C   UNL     1       6.573  -4.814  -0.420  0.00  0.00    +0.074 C 
ATOM     31  C   UNL     1       5.089  -4.976  -0.083  0.00  0.00    +0.165 C 
ATOM     32  O   UNL     1       4.293  -4.309  -1.077  0.00  0.00    -0.347 OA
ATOM     33  C   UNL     1       3.169  -3.764  -0.346  0.00  0.00    +0.196 C 
ATOM     34  C   UNL     1       3.832  -3.357   0.993  0.00  0.00    +0.164 C 
ATOM     35  O   UNL     1       4.819  -4.388   1.196  0.00  0.00    -0.342 OA
ATOM     36  C   UNL     1       4.729  -6.463  -0.053  0.00  0.00    +0.074 C 
ENDBRANCH  29  34
ENDBRANCH  25  29
ENDBRANCH   1  26
TORSDOF 6
