REMARK  Name = ZINC32692133
REMARK  7 active torsions:
REMARK  status: ('A' for Active; 'I' for Inactive)
REMARK    1  A    between atoms: C_1  and  C_2
REMARK    2  A    between atoms: N_4  and  C_5
REMARK    3  A    between atoms: C_8  and  N_11
REMARK    4  A    between atoms: C_12  and  C_14
REMARK    5  A    between atoms: C_14  and  S_15
REMARK    6  A    between atoms: S_15  and  C_16
REMARK    7  A    between atoms: C_19  and  C_21
REMARK                            x       y       z     vdW  Elec       q    Type
REMARK                         _______ _______ _______ _____ _____    ______ ____
ROOT
ATOM      1  C   UNL     1       1.291  12.222   0.033  0.00  0.00    +0.175 C 
ENDROOT
BRANCH   1   3
ATOM      2  N   UNL     1       1.117  14.689   0.054  0.00  0.00    -0.285 N 
ATOM      3  C   UNL     1       1.907  13.597   0.045  0.00  0.00    +0.228 C 
ATOM      4  O   UNL     1       3.113  13.721   0.048  0.00  0.00    -0.275 OA
ATOM      5  H   UNL     1       0.025  14.579  -0.026  0.00  0.00    +0.155 HD
BRANCH   2   9
ATOM      6  C   UNL     1       2.811  18.485   0.380  0.00  0.00    +0.033 A 
ATOM      7  C   UNL     1       3.472  17.488  -0.326  0.00  0.00    +0.025 A 
ATOM      8  C   UNL     1       2.911  16.232  -0.434  0.00  0.00    +0.025 A 
ATOM      9  C   UNL     1       1.686  15.964   0.163  0.00  0.00    +0.034 A 
ATOM     10  C   UNL     1       1.022  16.963   0.864  0.00  0.00    +0.025 A 
ATOM     11  C   UNL     1       1.586  18.218   0.977  0.00  0.00    +0.025 A 
BRANCH   6  15
ATOM     12  C   UNL     1       3.918  21.801   1.781  0.00  0.00    +0.109 C 
ATOM     13  C   UNL     1       3.220  20.475   1.621  0.00  0.00    +0.214 C 
ATOM     14  O   UNL     1       2.514  20.050   2.512  0.00  0.00    -0.276 OA
ATOM     15  N   UNL     1       3.380  19.761   0.490  0.00  0.00    -0.286 N 
ATOM     16  H   UNL     1       3.958  20.179  -0.347  0.00  0.00    +0.155 HD
ENDBRANCH   6  15
ENDBRANCH   2   9
ENDBRANCH   1   3
BRANCH   1  17
ATOM     17  S   UNL     1       2.602  10.974   0.024  0.00  0.00    -0.056 S 
BRANCH  17  18
ATOM     18  C   UNL     1       1.627   9.506   0.010  0.00  0.00    +0.278 A 
ATOM     19  N   UNL     1       0.315   9.444   0.007  0.00  0.00    -0.101 NA
ATOM     20  N   UNL     1      -0.056   8.213  -0.004  0.00  0.00    -0.106 NA
ATOM     21  C   UNL     1       1.003   7.439  -0.009  0.00  0.00    +0.249 A 
ATOM     22  O   UNL     1       2.090   8.242   0.006  0.00  0.00    -0.411 OA
BRANCH  21  23
ATOM     23  C   UNL     1       1.006   5.962  -0.021  0.00  0.00    +0.039 A 
ATOM     24  C   UNL     1       2.229   5.267  -0.024  0.00  0.00    +0.014 A 
ATOM     25  C   UNL     1       2.259   3.910  -0.035  0.00  0.00    +0.009 A 
ATOM     26  C   UNL     1       1.056   3.180  -0.043  0.00  0.00    -0.018 A 
ATOM     27  C   UNL     1       1.061   1.776  -0.055  0.00  0.00    +0.008 A 
ATOM     28  C   UNL     1      -0.119   1.096  -0.064  0.00  0.00    +0.001 A 
ATOM     29  C   UNL     1      -1.337   1.773  -0.067  0.00  0.00    +0.001 A 
ATOM     30  C   UNL     1      -1.382   3.133  -0.050  0.00  0.00    +0.008 A 
ATOM     31  C   UNL     1      -0.184   3.869  -0.041  0.00  0.00    -0.017 A 
ATOM     32  C   UNL     1      -0.195   5.272  -0.030  0.00  0.00    +0.021 A 
ENDBRANCH  21  23
ENDBRANCH  17  18
ENDBRANCH   1  17
TORSDOF 6
