REMARK  Name = ZINC16653004
REMARK  12 active torsions:
REMARK  status: ('A' for Active; 'I' for Inactive)
REMARK    1  A    between atoms: C_1  and  C_2
REMARK    2  A    between atoms: C_2  and  C_3
REMARK    3  A    between atoms: C_2  and  C_4
REMARK    4  A    between atoms: C_7  and  N_10
REMARK    5  A    between atoms: N_13  and  C_14
REMARK    6  A    between atoms: N_13  and  C_21
REMARK    7  A    between atoms: C_14  and  C_15
REMARK    8  A    between atoms: C_21  and  C_22
REMARK    9  A    between atoms: N_24  and  C_25
REMARK   10  A    between atoms: N_24  and  C_35
REMARK   11  A    between atoms: C_25  and  C_26
REMARK   12  A    between atoms: C_35  and  C_36
REMARK                            x       y       z     vdW  Elec       q    Type
REMARK                         _______ _______ _______ _____ _____    ______ ____
ROOT
ATOM      1  N   UNL     1       7.009   1.490  -4.202  0.00  0.00    -0.269 N 
ATOM      2  C   UNL     1       6.236   2.428  -3.620  0.00  0.00    +0.307 C 
ATOM      3  O   UNL     1       6.745   3.304  -2.947  0.00  0.00    -0.252 OA
ATOM      4  N   UNL     1       4.899   2.395  -3.782  0.00  0.00    -0.274 N 
ATOM      5  H   UNL     1       6.600   0.748  -4.674  0.00  0.00    +0.156 HD
ENDROOT
BRANCH   1   9
ATOM      6  C   UNL     1      11.160   1.778  -3.978  0.00  0.00    -0.045 A 
ATOM      7  C   UNL     1      10.554   0.535  -3.993  0.00  0.00    +0.006 A 
ATOM      8  C   UNL     1       9.178   0.436  -4.066  0.00  0.00    +0.023 A 
ATOM      9  C   UNL     1       8.403   1.587  -4.127  0.00  0.00    +0.035 A 
ATOM     10  C   UNL     1       9.015   2.834  -4.117  0.00  0.00    +0.023 A 
ATOM     11  C   UNL     1      10.391   2.926  -4.038  0.00  0.00    +0.006 A 
BRANCH   6  13
ATOM     12  C   UNL     1      13.189   2.618  -5.130  0.00  0.00    +0.012 C 
ATOM     13  C   UNL     1      12.661   1.882  -3.897  0.00  0.00    +0.013 C 
ATOM     14  C   UNL     1      13.051   2.656  -2.636  0.00  0.00    +0.012 C 
ENDBRANCH   6  13
ENDBRANCH   1   9
BRANCH   4  15
ATOM     15  C   UNL     1       4.285   1.339  -4.592  0.00  0.00    +0.141 C 
BRANCH  15  16
ATOM     16  C   UNL     1       4.194   1.802  -6.048  0.00  0.00    +0.136 C 
ATOM     17  C   UNL     1       3.437   0.757  -6.898  0.00  0.00    +0.035 C 
ATOM     18  C   UNL     1       4.177   0.769  -8.254  0.00  0.00    +0.031 C 
ATOM     19  C   UNL     1       5.293   1.820  -8.063  0.00  0.00    +0.160 C 
ATOM     20  O   UNL     1       5.511   1.873  -6.637  0.00  0.00    -0.375 OA
ENDBRANCH  15  16
ENDBRANCH   4  15
BRANCH   4  21
ATOM     21  C   UNL     1       4.058   3.414  -3.149  0.00  0.00    +0.205 C 
BRANCH  21  22
ATOM     22  C   UNL     1       3.650   2.946  -1.776  0.00  0.00    +0.234 C 
ATOM     23  O   UNL     1       4.024   1.867  -1.367  0.00  0.00    -0.274 OA
ATOM     24  N   UNL     1       2.869   3.726  -1.003  0.00  0.00    -0.289 N 
BRANCH  24  25
ATOM     25  C   UNL     1       2.472   3.272   0.332  0.00  0.00    +0.143 C 
BRANCH  25  26
ATOM     26  C   UNL     1       1.178   2.505   0.237  0.00  0.00    -0.026 A 
ATOM     27  C   UNL     1       1.200   1.138   0.030  0.00  0.00    +0.009 A 
ATOM     28  C   UNL     1       0.016   0.430  -0.058  0.00  0.00    +0.050 A 
ATOM     29  C   UNL     1      -1.196   1.090   0.056  0.00  0.00    +0.166 A 
ATOM     30  C   UNL     1      -1.219   2.466   0.271  0.00  0.00    +0.167 A 
ATOM     31  C   UNL     1      -0.028   3.169   0.358  0.00  0.00    +0.054 A 
ATOM     32  O   UNL     1      -2.519   2.874   0.355  0.00  0.00    -0.453 OA
ATOM     33  C   UNL     1      -3.281   1.678   0.604  0.00  0.00    +0.466 C 
ATOM     34  O   UNL     1      -2.482   0.634   0.015  0.00  0.00    -0.453 OA
ENDBRANCH  25  26
ENDBRANCH  24  25
BRANCH  24  35
ATOM     35  C   UNL     1       2.417   5.029  -1.497  0.00  0.00    +0.182 C 
BRANCH  35  36
ATOM     36  C   UNL     1       3.420   6.087  -1.114  0.00  0.00    +0.122 A 
ATOM     37  C   UNL     1       4.479   6.470  -1.850  0.00  0.00    +0.046 A 
ATOM     38  C   UNL     1       5.143   7.480  -1.116  0.00  0.00    +0.041 A 
ATOM     39  C   UNL     1       4.450   7.654   0.024  0.00  0.00    +0.195 A 
ATOM     40  O   UNL     1       3.404   6.811   0.017  0.00  0.00    -0.466 OA
ENDBRANCH  35  36
ENDBRANCH  24  35
ENDBRANCH  21  22
ENDBRANCH   4  21
TORSDOF 10
