REMARK  Name = ZINC16546088
REMARK  0 active torsions:
REMARK  status: ('A' for Active; 'I' for Inactive)
REMARK                            x       y       z     vdW  Elec       q    Type
REMARK                         _______ _______ _______ _____ _____    ______ ____
ROOT
ATOM      1  C   UNL     1      -3.595   2.480   0.032  0.00  0.00    +0.131 A 
ATOM      2  C   UNL     1      -3.572   3.870   0.039  0.00  0.00    +0.131 A 
ATOM      3  N   UNL     1      -2.424   4.522   0.051  0.00  0.00    -0.249 NA
ATOM      4  C   UNL     1      -1.286   3.843   0.035  0.00  0.00    +0.124 A 
ATOM      5  C   UNL     1      -1.308   2.435   0.021  0.00  0.00    +0.124 A 
ATOM      6  N   UNL     1      -2.468   1.792   0.023  0.00  0.00    -0.249 NA
ATOM      7  C   UNL     1      -0.021   1.708   0.011  0.00  0.00    +0.127 A 
ATOM      8  S   UNL     1       0.002  -0.004   0.002  0.00  0.00    -0.029 S 
ATOM      9  N   UNL     1       1.133   2.402   0.004  0.00  0.00    -0.290 N 
ATOM     10  H   UNL     1       1.974   1.918  -0.006  0.00  0.00    +0.187 HD
ATOM     11  N   UNL     1       1.156   3.797   0.012  0.00  0.00    -0.290 N 
ATOM     12  H   UNL     1       2.011   4.255   0.006  0.00  0.00    +0.187 HD
ATOM     13  C   UNL     1       0.024   4.528   0.027  0.00  0.00    +0.127 A 
ATOM     14  S   UNL     1       0.102   6.238   0.036  0.00  0.00    -0.029 S 
ENDROOT
TORSDOF 0
