REMARK  Name = ZINC31045337
REMARK  6 active torsions:
REMARK  status: ('A' for Active; 'I' for Inactive)
REMARK    1  A    between atoms: C_6  and  C_7
REMARK    2  A    between atoms: C_9  and  C_12
REMARK    3  A    between atoms: C_12  and  N_13
REMARK    4  A    between atoms: C_17  and  C_20
REMARK    5  A    between atoms: N_22  and  C_23
REMARK    6  A    between atoms: C_25  and  C_30
REMARK                            x       y       z     vdW  Elec       q    Type
REMARK                         _______ _______ _______ _____ _____    ______ ____
ROOT
ATOM      1  N   UNL     1       2.640  -4.117  -0.494  0.00  0.00    +0.386 N 
ATOM      2  C   UNL     1       1.938  -4.539  -1.712  0.00  0.00    -0.078 C 
ATOM      3  C   UNL     1       0.473  -4.104  -1.635  0.00  0.00    -0.018 C 
ATOM      4  C   UNL     1       0.405  -2.581  -1.486  0.00  0.00    +0.009 C 
ATOM      5  C   UNL     1       1.185  -2.163  -0.236  0.00  0.00    +0.059 C 
ATOM      6  C   UNL     1       2.629  -2.655  -0.354  0.00  0.00    -0.065 C 
ATOM      7  H   UNL     1       2.102  -4.540   0.367  0.00  0.00    -0.081 HD
ENDROOT
BRANCH   5   8
ATOM      8  C   UNL     1       1.173  -0.661  -0.114  0.00  0.00    +0.219 C 
ATOM      9  O   UNL     1       2.217  -0.044  -0.121  0.00  0.00    -0.275 OA
ATOM     10  N   UNL     1       0.002  -0.004   0.002  0.00  0.00    -0.284 N 
ATOM     11  H   UNL     1      -0.939  -0.567   0.082  0.00  0.00    +0.155 HD
BRANCH  10  12
ATOM     12  C   UNL     1      -0.016   1.395   0.021  0.00  0.00    +0.052 A 
ATOM     13  C   UNL     1       1.022   2.097   0.620  0.00  0.00    +0.037 A 
ATOM     14  C   UNL     1       1.002   3.478   0.636  0.00  0.00    +0.057 A 
ATOM     15  C   UNL     1      -0.051   4.163   0.058  0.00  0.00    +0.014 A 
ATOM     16  C   UNL     1      -1.087   3.468  -0.539  0.00  0.00    +0.022 A 
ATOM     17  C   UNL     1      -1.070   2.086  -0.565  0.00  0.00    +0.062 A 
ATOM     18 CL   UNL     1      -2.366   1.215  -1.322  0.00  0.00    -0.082 Cl
BRANCH  14  19
ATOM     19  C   UNL     1       2.128   4.239   1.286  0.00  0.00    +0.417 C 
ATOM     20  F   UNL     1       3.124   4.498   0.338  0.00  0.00    -0.166 F 
ATOM     21  F   UNL     1       1.641   5.449   1.794  0.00  0.00    -0.166 F 
ATOM     22  F   UNL     1       2.665   3.477   2.330  0.00  0.00    -0.166 F 
ENDBRANCH  14  19
ENDBRANCH  10  12
ENDBRANCH   5   8
BRANCH   1  23
ATOM     23  C   UNL     1       4.013  -4.638  -0.471  0.00  0.00    +0.022 C 
BRANCH  23  26
ATOM     24  C   UNL     1       4.058  -7.920  -1.935  0.00  0.00    +0.202 A 
ATOM     25  N   UNL     1       4.115  -6.576  -2.072  0.00  0.00    -0.193 NA
ATOM     26  C   UNL     1       4.005  -6.094  -0.859  0.00  0.00    +0.211 A 
ATOM     27  O   UNL     1       3.879  -7.136  -0.031  0.00  0.00    -0.340 OA
ATOM     28  N   UNL     1       3.911  -8.172  -0.660  0.00  0.00    -0.056 NA
BRANCH  24  34
ATOM     29  C   UNL     1       4.294  -8.504  -4.348  0.00  0.00    +0.013 A 
ATOM     30  C   UNL     1       4.377  -9.439  -5.359  0.00  0.00    +0.021 A 
ATOM     31  C   UNL     1       4.297 -10.789  -5.065  0.00  0.00    +0.041 A 
ATOM     32  C   UNL     1       4.139 -11.209  -3.755  0.00  0.00    +0.021 A 
ATOM     33  C   UNL     1       4.061 -10.282  -2.736  0.00  0.00    +0.013 A 
ATOM     34  C   UNL     1       4.141  -8.921  -3.027  0.00  0.00    +0.023 A 
ATOM     35 CL   UNL     1       4.395 -11.960  -6.343  0.00  0.00    -0.084 Cl
ENDBRANCH  24  34
ENDBRANCH  23  26
ENDBRANCH   1  23
TORSDOF 6
