REMARK  Name = ZINC13803161
REMARK  9 active torsions:
REMARK  status: ('A' for Active; 'I' for Inactive)
REMARK    1  A    between atoms: C_5  and  C_6
REMARK    2  A    between atoms: C_8  and  C_12
REMARK    3  A    between atoms: C_12  and  C_14
REMARK    4  A    between atoms: C_12  and  N_17
REMARK    5  A    between atoms: C_14  and  C_15
REMARK    6  A    between atoms: C_18  and  C_20
REMARK    7  A    between atoms: C_27  and  C_29
REMARK    8  A    between atoms: C_29  and  C_30
REMARK    9  A    between atoms: C_30  and  C_31
REMARK                            x       y       z     vdW  Elec       q    Type
REMARK                         _______ _______ _______ _____ _____    ______ ____
ROOT
ATOM      1  N   UNL     1       3.942   8.694  -0.590  0.00  0.00    -0.308 N 
ATOM      2  C   UNL     1       3.675   9.907  -1.114  0.00  0.00    +0.218 C 
ATOM      3  O   UNL     1       2.588  10.416  -0.941  0.00  0.00    -0.275 OA
ATOM      4  H   UNL     1       4.833   8.319  -0.666  0.00  0.00    +0.149 HD
ENDROOT
BRANCH   2   5
ATOM      5  C   UNL     1       4.726  10.629  -1.917  0.00  0.00    +0.092 C 
ATOM      6  C   UNL     1       5.114   9.782  -3.131  0.00  0.00    +0.016 C 
ATOM      7  C   UNL     1       6.206  10.499  -3.928  0.00  0.00    +0.020 C 
ATOM      8  C   UNL     1       5.667  11.843  -4.428  0.00  0.00    +0.108 C 
ATOM      9  N   UNL     1       5.158  12.606  -3.280  0.00  0.00    -0.301 N 
ATOM     10  C   UNL     1       4.171  11.974  -2.394  0.00  0.00    +0.120 C 
ATOM     11  C   UNL     1       5.589  13.861  -3.044  0.00  0.00    +0.216 C 
ATOM     12  O   UNL     1       5.161  14.480  -2.093  0.00  0.00    -0.276 OA
BRANCH  11  13
ATOM     13  C   UNL     1       6.602  14.495  -3.962  0.00  0.00    +0.096 C 
BRANCH  13  14
ATOM     14  C   UNL     1       6.917  15.910  -3.474  0.00  0.00    +0.012 C 
BRANCH  14  15
ATOM     15  C   UNL     1       7.946  16.554  -4.406  0.00  0.00    -0.014 C 
ATOM     16  C   UNL     1       9.272  15.795  -4.307  0.00  0.00    -0.016 C 
ATOM     17  C   UNL     1      10.313  16.480  -5.195  0.00  0.00    -0.082 C 
ATOM     18  C   UNL     1       9.243  18.632  -4.890  0.00  0.00    -0.082 C 
ATOM     19  C   UNL     1       8.169  18.012  -3.993  0.00  0.00    -0.016 C 
ATOM     20  N   UNL     1      10.502  17.875  -4.755  0.00  0.00    +0.379 N 
ATOM     21  H   UNL     1      11.226  18.317  -5.333  0.00  0.00    -0.086 HD
ATOM     22  H   UNL     1      10.797  17.883  -3.772  0.00  0.00    -0.086 HD
ENDBRANCH  14  15
ENDBRANCH  13  14
ENDBRANCH  11  13
ENDBRANCH   2   5
BRANCH   1  23
ATOM     23  C   UNL     1       2.886   7.944   0.095  0.00  0.00    +0.115 C 
BRANCH  23  26
ATOM     24  C   UNL     1       0.037   6.294  -1.766  0.00  0.00    +0.007 A 
ATOM     25  C   UNL     1       0.724   7.049  -0.807  0.00  0.00    +0.017 A 
ATOM     26  C   UNL     1       2.100   7.148  -0.914  0.00  0.00    -0.008 A 
ATOM     27  C   UNL     1       2.745   6.513  -1.960  0.00  0.00    +0.116 A 
ATOM     28  N   UNL     1       2.071   5.813  -2.852  0.00  0.00    -0.262 NA
ATOM     29  C   UNL     1       0.762   5.685  -2.790  0.00  0.00    +0.119 A 
BRANCH  24  34
ATOM     30  C   UNL     1      -2.273   5.466  -2.533  0.00  0.00    +0.017 A 
ATOM     31  C   UNL     1      -3.624   5.472  -2.266  0.00  0.00    +0.028 A 
ATOM     32  C   UNL     1      -4.082   6.160  -1.187  0.00  0.00    +0.079 A 
ATOM     33  S   UNL     1      -2.574   6.823  -0.499  0.00  0.00    -0.077 S 
ATOM     34  C   UNL     1      -1.433   6.150  -1.696  0.00  0.00    +0.022 A 
ATOM     35 CL   UNL     1      -5.713   6.344  -0.621  0.00  0.00    -0.076 Cl
ENDBRANCH  24  34
ENDBRANCH  23  26
BRANCH  23  36
ATOM     36  C   UNL     1       3.516   6.994   1.115  0.00  0.00    +0.152 C 
BRANCH  36  37
ATOM     37  C   UNL     1       4.186   7.795   2.202  0.00  0.00    +0.358 C 
ATOM     38  O   UNL     1       4.226   9.000   2.126  0.00  0.00    -0.246 OA
ATOM     39  O   UNL     1       4.739   7.170   3.253  0.00  0.00    -0.246 OA
ENDBRANCH  36  37
ENDBRANCH  23  36
ENDBRANCH   1  23
TORSDOF 9
