REMARK  Name = ZINC36378584
REMARK  17 active torsions:
REMARK  status: ('A' for Active; 'I' for Inactive)
REMARK    1  A    between atoms: C_1  and  C_2
REMARK    2  A    between atoms: C_4  and  O_23
REMARK    3  A    between atoms: C_5  and  C_22
REMARK    4  A    between atoms: C_6  and  O_21
REMARK    5  A    between atoms: C_7  and  C_8
REMARK    6  A    between atoms: N_10  and  C_11
REMARK    7  A    between atoms: C_11  and  C_12
REMARK    8  A    between atoms: C_12  and  C_13
REMARK    9  A    between atoms: C_16  and  O_20
REMARK   10  A    between atoms: C_17  and  O_19
REMARK   11  A    between atoms: O_23  and  C_24
REMARK   12  A    between atoms: C_25  and  C_38
REMARK   13  A    between atoms: C_28  and  O_37
REMARK   14  A    between atoms: C_30  and  C_34
REMARK   15  A    between atoms: C_30  and  O_35
REMARK   16  A    between atoms: C_31  and  O_33
REMARK   17  A    between atoms: O_35  and  C_36
REMARK                            x       y       z     vdW  Elec       q    Type
REMARK                         _______ _______ _______ _____ _____    ______ ____
ROOT
ATOM      1  C   UNL     1       0.376   1.569  -0.023  0.00  0.00    +0.045 C 
ATOM      2  C   UNL     1       0.356   0.062  -0.002  0.00  0.00    -0.031 A 
ATOM      3  C   UNL     1       0.156  -0.640  -1.168  0.00  0.00    +0.050 A 
ATOM      4  C   UNL     1       0.137  -2.031  -1.153  0.00  0.00    +0.135 A 
ATOM      5  C   UNL     1       0.320  -2.721   0.036  0.00  0.00    +0.034 A 
ATOM      6  C   UNL     1       0.523  -2.026   1.216  0.00  0.00    +0.136 A 
ATOM      7  C   UNL     1       0.547  -0.623   1.202  0.00  0.00    +0.081 A 
ATOM      8  C   UNL     1       0.299  -4.228   0.044  0.00  0.00    +0.051 C 
ENDROOT
BRANCH   7   9
ATOM      9  C   UNL     1       0.768   0.125   2.452  0.00  0.00    +0.248 C 
ATOM     10  O   UNL     1      -0.180   0.450   3.142  0.00  0.00    -0.270 OA
ATOM     11  N   UNL     1       2.019   0.451   2.831  0.00  0.00    -0.311 N 
ATOM     12  H   UNL     1       2.775   0.192   2.281  0.00  0.00    +0.149 HD
BRANCH  11  13
ATOM     13  C   UNL     1       2.239   1.194   4.074  0.00  0.00    +0.109 C 
BRANCH  13  14
ATOM     14  C   UNL     1       3.737   1.432   4.268  0.00  0.00    +0.054 C 
BRANCH  14  15
ATOM     15  C   UNL     1       3.963   2.198   5.547  0.00  0.00    -0.042 A 
ATOM     16  C   UNL     1       3.975   3.580   5.530  0.00  0.00    +0.007 A 
ATOM     17  C   UNL     1       4.181   4.287   6.700  0.00  0.00    +0.049 A 
ATOM     18  C   UNL     1       4.376   3.609   7.894  0.00  0.00    +0.158 A 
ATOM     19  C   UNL     1       4.364   2.218   7.910  0.00  0.00    +0.158 A 
ATOM     20  C   UNL     1       4.152   1.516   6.735  0.00  0.00    +0.052 A 
BRANCH  19  21
ATOM     21  O   UNL     1       4.555   1.549   9.079  0.00  0.00    -0.503 OA
ATOM     22  H   UNL     1       3.739   1.365   9.564  0.00  0.00    +0.292 HD
ENDBRANCH  19  21
BRANCH  18  23
ATOM     23  O   UNL     1       4.580   4.303   9.045  0.00  0.00    -0.503 OA
ATOM     24  H   UNL     1       3.768   4.513   9.527  0.00  0.00    +0.292 HD
ENDBRANCH  18  23
ENDBRANCH  14  15
ENDBRANCH  13  14
ENDBRANCH  11  13
ENDBRANCH   7   9
BRANCH   6  25
ATOM     25  O   UNL     1       0.702  -2.698   2.380  0.00  0.00    -0.506 OA
ATOM     26  H   UNL     1       1.625  -2.907   2.576  0.00  0.00    +0.292 HD
ENDBRANCH   6  25
BRANCH   4  27
ATOM     27  O   UNL     1      -0.062  -2.716  -2.308  0.00  0.00    -0.457 OA
BRANCH  27  28
ATOM     28  C   UNL     1      -0.117  -2.016  -3.457  0.00  0.00    +0.143 C 
ATOM     29  C   UNL     1      -1.271  -1.970  -4.147  0.00  0.00    +0.035 C 
ATOM     30  C   UNL     1      -1.384  -1.251  -5.347  0.00  0.00    +0.193 C 
ATOM     31  O   UNL     1      -2.443  -1.237  -5.943  0.00  0.00    -0.289 OA
ATOM     32  C   UNL     1      -0.204  -0.497  -5.902  0.00  0.00    +0.219 C 
ATOM     33  C   UNL     1       0.700  -0.060  -4.744  0.00  0.00    +0.132 C 
ATOM     34  C   UNL     1       1.111  -1.295  -3.942  0.00  0.00    +0.215 C 
ATOM     35  C   UNL     1      -0.062   0.905  -3.834  0.00  0.00    +0.048 C 
ATOM     36  C   UNL     1      -2.473  -2.710  -3.619  0.00  0.00    +0.051 C 
BRANCH  34  37
ATOM     37  O   UNL     1       1.877  -2.166  -4.778  0.00  0.00    -0.381 OA
ATOM     38  H   UNL     1       2.175  -2.973  -4.336  0.00  0.00    +0.210 HD
ENDBRANCH  34  37
BRANCH  33  39
ATOM     39  O   UNL     1       1.864   0.585  -5.263  0.00  0.00    -0.371 OA
ATOM     40  C   UNL     1       1.585   1.751  -6.040  0.00  0.00    +0.195 C 
ENDBRANCH  33  39
BRANCH  32  41
ATOM     41  O   UNL     1       0.529  -1.342  -6.790  0.00  0.00    -0.381 OA
ATOM     42  H   UNL     1       0.015  -1.660  -7.545  0.00  0.00    +0.210 HD
ENDBRANCH  32  41
ENDBRANCH  27  28
ENDBRANCH   4  27
TORSDOF 12
