REMARK  Name = ZINC39545184
REMARK  7 active torsions:
REMARK  status: ('A' for Active; 'I' for Inactive)
REMARK    1  A    between atoms: C_1  and  C_2
REMARK    2  A    between atoms: C_2  and  O_3
REMARK    3  A    between atoms: O_3  and  C_4
REMARK    4  A    between atoms: C_6  and  C_18
REMARK    5  A    between atoms: N_20  and  C_21
REMARK    6  A    between atoms: N_20  and  S_27
REMARK    7  A    between atoms: S_27  and  C_28
REMARK                            x       y       z     vdW  Elec       q    Type
REMARK                         _______ _______ _______ _____ _____    ______ ____
ROOT
ATOM      1  C   UNL     1       0.717  -2.418  -0.431  0.00  0.00    +0.134 C 
ATOM      2  C   UNL     1       1.615  -2.591  -1.634  0.00  0.00    +0.107 C 
ATOM      3  C   UNL     1       1.583  -4.106  -1.914  0.00  0.00    +0.153 C 
ATOM      4  N   UNL     1       0.719  -4.648  -0.853  0.00  0.00    -0.367 NA
ATOM      5  C   UNL     1       0.257  -3.589  -0.059  0.00  0.00    +0.113 C 
ATOM      6  N   UNL     1      -0.642  -3.832   1.008  0.00  0.00    -0.301 N 
ATOM      7  C   UNL     1      -1.571  -4.859   0.773  0.00  0.00    +0.037 A 
ATOM      8  C   UNL     1      -2.568  -5.113   1.704  0.00  0.00    +0.023 A 
ATOM      9  C   UNL     1      -3.477  -6.128   1.478  0.00  0.00    +0.002 A 
ATOM     10  C   UNL     1      -3.388  -6.887   0.325  0.00  0.00    +0.000 A 
ATOM     11  C   UNL     1      -2.397  -6.632  -0.604  0.00  0.00    +0.007 A 
ATOM     12  C   UNL     1      -1.484  -5.612  -0.389  0.00  0.00    -0.010 A 
ATOM     13  C   UNL     1      -0.433  -5.341  -1.440  0.00  0.00    +0.124 C 
ATOM     14  H   UNL     1      -0.617  -3.329   1.837  0.00  0.00    +0.153 HD
ATOM     15  H   UNL     1       1.246  -5.289  -0.280  0.00  0.00    +0.129 HD
ENDROOT
BRANCH   3  16
ATOM     16  C   UNL     1       2.969  -4.690  -1.820  0.00  0.00    +0.249 C 
ATOM     17  O   UNL     1       3.279  -5.363  -0.860  0.00  0.00    -0.272 OA
ATOM     18  N   UNL     1       3.863  -4.464  -2.803  0.00  0.00    -0.212 N 
BRANCH  18  19
ATOM     19  C   UNL     1       5.187  -4.894  -2.656  0.00  0.00    +0.048 A 
ATOM     20  C   UNL     1       5.734  -5.042  -1.389  0.00  0.00    +0.024 A 
ATOM     21  C   UNL     1       7.041  -5.466  -1.248  0.00  0.00    +0.002 A 
ATOM     22  C   UNL     1       7.804  -5.743  -2.367  0.00  0.00    +0.000 A 
ATOM     23  C   UNL     1       7.262  -5.596  -3.631  0.00  0.00    +0.002 A 
ATOM     24  C   UNL     1       5.954  -5.179  -3.778  0.00  0.00    +0.024 A 
ENDBRANCH  18  19
BRANCH  18  25
ATOM     25  S   UNL     1       3.396  -3.679  -4.184  0.00  0.00    -0.055 S 
ATOM     26  C   UNL     1       3.779  -1.937  -3.849  0.00  0.00    +0.107 C 
ENDBRANCH  18  25
ENDBRANCH   3  16
BRANCH   1  27
ATOM     27  O   UNL     1       0.434  -1.234   0.176  0.00  0.00    -0.493 OA
BRANCH  27  29
ATOM     28  C   UNL     1      -0.523   0.127   1.929  0.00  0.00    +0.048 C 
ATOM     29  C   UNL     1      -0.325  -1.290   1.385  0.00  0.00    +0.225 C 
ENDBRANCH  27  29
ENDBRANCH   1  27
TORSDOF 5
