REMARK  Name = ZINC09071097
REMARK  10 active torsions:
REMARK  status: ('A' for Active; 'I' for Inactive)
REMARK    1  A    between atoms: C_1  and  C_2
REMARK    2  A    between atoms: C_2  and  C_3
REMARK    3  A    between atoms: C_3  and  N_4
REMARK    4  A    between atoms: C_6  and  C_13
REMARK    5  A    between atoms: C_7  and  O_9
REMARK    6  A    between atoms: O_9  and  C_10
REMARK    7  A    between atoms: C_10  and  C_11
REMARK    8  A    between atoms: C_11  and  C_12
REMARK    9  A    between atoms: N_15  and  C_16
REMARK   10  A    between atoms: C_19  and  C_23
REMARK                            x       y       z     vdW  Elec       q    Type
REMARK                         _______ _______ _______ _____ _____    ______ ____
ROOT
ATOM      1  N   UNL     1      -4.588  -3.289  -0.313  0.00  0.00    -0.267 N 
ATOM      2  C   UNL     1      -3.720  -2.273  -0.196  0.00  0.00    +0.125 A 
ATOM      3  C   UNL     1      -2.447  -2.810  -0.203  0.00  0.00    +0.117 A 
ATOM      4  C   UNL     1      -2.589  -4.215  -0.323  0.00  0.00    +0.246 A 
ATOM      5  N   UNL     1      -3.867  -4.486  -0.387  0.00  0.00    -0.133 NA
ENDROOT
BRANCH   3   6
ATOM      6  C   UNL     1      -1.182  -2.064  -0.100  0.00  0.00    +0.255 C 
ATOM      7  O   UNL     1      -0.122  -2.660  -0.113  0.00  0.00    -0.270 OA
ATOM      8  N   UNL     1      -1.199  -0.721   0.009  0.00  0.00    -0.281 N 
ATOM      9  H   UNL     1      -2.044  -0.251   0.087  0.00  0.00    +0.155 HD
BRANCH   8  10
ATOM     10  C   UNL     1       0.003  -0.005   0.010  0.00  0.00    +0.035 A 
ATOM     11  C   UNL     1       0.066   1.249  -0.586  0.00  0.00    +0.023 A 
ATOM     12  C   UNL     1       1.253   1.954  -0.583  0.00  0.00    +0.006 A 
ATOM     13  C   UNL     1       2.378   1.415   0.012  0.00  0.00    -0.032 A 
ATOM     14  C   UNL     1       2.320   0.166   0.606  0.00  0.00    +0.046 A 
ATOM     15  C   UNL     1       1.134  -0.545   0.606  0.00  0.00    +0.043 A 
ATOM     16 CL   UNL     1       3.735  -0.507   1.351  0.00  0.00    -0.083 Cl
ATOM     17  C   UNL     1       3.672   2.188   0.013  0.00  0.00    +0.045 C 
ENDBRANCH   8  10
ENDBRANCH   3   6
BRANCH   1  18
ATOM     18  C   UNL     1      -6.047  -3.167  -0.350  0.00  0.00    +0.143 C 
BRANCH  18  20
ATOM     19  C   UNL     1      -8.109  -3.721  -1.649  0.00  0.00    +0.005 C 
ATOM     20  C   UNL     1      -6.585  -3.849  -1.610  0.00  0.00    +0.020 C 
ENDBRANCH  18  20
ENDBRANCH   1  18
BRANCH   4  21
ATOM     21  O   UNL     1      -1.577  -5.120  -0.363  0.00  0.00    -0.475 OA
BRANCH  21  22
ATOM     22  C   UNL     1      -1.942  -6.497  -0.487  0.00  0.00    +0.230 C 
BRANCH  22  23
ATOM     23  C   UNL     1      -0.678  -7.359  -0.516  0.00  0.00    +0.038 C 
ATOM     24  C   UNL     1      -1.069  -8.832  -0.649  0.00  0.00    +0.007 C 
ENDBRANCH  22  23
ENDBRANCH  21  22
ENDBRANCH   4  21
TORSDOF 7
