REMARK  Name = ZINC39711044
REMARK  10 active torsions:
REMARK  status: ('A' for Active; 'I' for Inactive)
REMARK    1  A    between atoms: C_1  and  C_2
REMARK    2  A    between atoms: C_4  and  C_39
REMARK    3  A    between atoms: C_9  and  C_14
REMARK    4  A    between atoms: C_14  and  C_16
REMARK    5  A    between atoms: C_14  and  N_26
REMARK    6  A    between atoms: N_21  and  C_22
REMARK    7  A    between atoms: C_22  and  C_23
REMARK    8  A    between atoms: C_22  and  C_24
REMARK    9  A    between atoms: C_22  and  C_25
REMARK   10  A    between atoms: N_29  and  C_32
REMARK                            x       y       z     vdW  Elec       q    Type
REMARK                         _______ _______ _______ _____ _____    ______ ____
ROOT
ATOM      1  C   UNL     1       1.639  -4.443   2.803  0.00  0.00    -0.011 C 
ENDROOT
BRANCH   1  10
ATOM      2  C   UNL     1       3.513   1.762  -0.196  0.00  0.00    +0.044 C 
ATOM      3  C   UNL     1       2.786   0.442  -0.176  0.00  0.00    -0.050 A 
ATOM      4  C   UNL     1       2.406  -0.147  -1.382  0.00  0.00    +0.008 A 
ATOM      5  C   UNL     1       1.749  -1.334  -1.443  0.00  0.00    -0.028 A 
ATOM      6  C   UNL     1       1.419  -2.029  -0.265  0.00  0.00    +0.043 A 
ATOM      7  N   UNL     1       0.774  -3.194  -0.337  0.00  0.00    -0.284 N 
ATOM      8  C   UNL     1       0.434  -3.898   0.730  0.00  0.00    +0.223 C 
ATOM      9  O   UNL     1      -0.154  -4.955   0.602  0.00  0.00    -0.275 OA
ATOM     10  C   UNL     1       0.780  -3.384   2.109  0.00  0.00    +0.088 C 
ATOM     11  C   UNL     1       1.514  -2.060   2.196  0.00  0.00    -0.006 C 
ATOM     12  C   UNL     1       1.808  -1.431   1.024  0.00  0.00    -0.007 A 
ATOM     13  C   UNL     1       2.519  -0.151   1.016  0.00  0.00    +0.012 A 
ATOM     14  C   UNL     1       1.369  -1.911  -2.783  0.00  0.00    +0.046 C 
ATOM     15  H   UNL     1       0.544  -3.541  -1.213  0.00  0.00    +0.155 HD
ENDBRANCH   1  10
BRANCH   1  16
ATOM     16  N   UNL     1       0.888  -5.702   2.893  0.00  0.00    +0.387 N 
ATOM     17  C   UNL     1      -0.424  -5.444   3.501  0.00  0.00    -0.059 C 
ATOM     18  C   UNL     1      -1.253  -6.733   3.491  0.00  0.00    +0.086 C 
ATOM     19  N   UNL     1      -0.475  -7.792   4.152  0.00  0.00    -0.333 N 
ATOM     20  C   UNL     1       0.912  -8.010   3.713  0.00  0.00    +0.086 C 
ATOM     21  C   UNL     1       1.639  -6.661   3.713  0.00  0.00    -0.059 C 
ATOM     22  H   UNL     1       0.757  -6.082   1.968  0.00  0.00    -0.081 HD
BRANCH  19  23
ATOM     23  C   UNL     1      -1.038  -8.571   5.168  0.00  0.00    +0.030 A 
ATOM     24  C   UNL     1      -2.385  -8.440   5.478  0.00  0.00    +0.026 A 
ATOM     25  C   UNL     1      -2.940  -9.210   6.482  0.00  0.00    +0.040 A 
ATOM     26  C   UNL     1      -2.154 -10.113   7.178  0.00  0.00    +0.124 A 
ATOM     27  C   UNL     1      -0.810 -10.245   6.869  0.00  0.00    +0.040 A 
ATOM     28  C   UNL     1      -0.253  -9.481   5.863  0.00  0.00    +0.026 A 
ATOM     29  F   UNL     1      -2.698 -10.865   8.159  0.00  0.00    -0.205 F 
ENDBRANCH  19  23
ENDBRANCH   1  16
BRANCH   1  30
ATOM     30  C   UNL     1       2.919  -4.670   1.996  0.00  0.00    +0.183 C 
ATOM     31  N   UNL     1       2.656  -5.538   0.833  0.00  0.00    -0.229 N 
ATOM     32  N   UNL     1       3.448  -6.678   1.018  0.00  0.00    -0.064 NA
ATOM     33  N   UNL     1       4.108  -6.632   2.053  0.00  0.00    -0.061 NA
ATOM     34  N   UNL     1       3.899  -5.448   2.778  0.00  0.00    -0.211 N 
ATOM     35  H   UNL     1       2.056  -5.358   0.092  0.00  0.00    +0.172 HD
BRANCH  34  36
ATOM     36  C   UNL     1       4.521  -5.063   4.047  0.00  0.00    +0.047 C 
ATOM     37  C   UNL     1       3.493  -5.177   5.174  0.00  0.00    +0.033 C 
ATOM     38  C   UNL     1       5.702  -5.991   4.338  0.00  0.00    +0.033 C 
ATOM     39  C   UNL     1       5.018  -3.619   3.954  0.00  0.00    +0.033 C 
ENDBRANCH  34  36
ENDBRANCH   1  30
TORSDOF 5
