REMARK  Name = ZINC25148125
REMARK  10 active torsions:
REMARK  status: ('A' for Active; 'I' for Inactive)
REMARK    1  A    between atoms: C_1  and  C_2
REMARK    2  A    between atoms: C_2  and  C_30
REMARK    3  A    between atoms: C_3  and  C_4
REMARK    4  A    between atoms: C_6  and  C_11
REMARK    5  A    between atoms: C_8  and  C_9
REMARK    6  A    between atoms: C_8  and  C_10
REMARK    7  A    between atoms: C_16  and  C_19
REMARK    8  A    between atoms: C_22  and  N_25
REMARK    9  A    between atoms: N_25  and  S_26
REMARK   10  A    between atoms: S_26  and  C_29
REMARK                            x       y       z     vdW  Elec       q    Type
REMARK                         _______ _______ _______ _____ _____    ______ ____
ROOT
ATOM      1  C   UNL     1       8.009   0.909   0.670  0.00  0.00    +0.223 C 
ATOM      2  O   UNL     1       8.010   2.085   0.372  0.00  0.00    -0.275 OA
ATOM      3  N   UNL     1       6.901   0.347   1.191  0.00  0.00    -0.264 N 
ATOM      4  C   UNL     1       5.760   1.114   1.388  0.00  0.00    +0.165 A 
ATOM      5  N   UNL     1       4.587   0.757   1.879  0.00  0.00    -0.225 NA
ATOM      6  C   UNL     1       3.597   1.628   1.997  0.00  0.00    +0.080 A 
ATOM      7  C   UNL     1       3.789   2.921   1.597  0.00  0.00    +0.076 A 
ATOM      8  S   UNL     1       5.487   2.846   1.041  0.00  0.00    -0.060 S 
ATOM      9  H   UNL     1       6.901  -0.719   1.461  0.00  0.00    +0.157 HD
ENDROOT
BRANCH   6  10
ATOM     10  C   UNL     1       2.288   1.204   2.552  0.00  0.00    +0.001 A 
ATOM     11  C   UNL     1       1.249   2.125   2.672  0.00  0.00    +0.012 A 
ATOM     12  C   UNL     1       0.034   1.728   3.188  0.00  0.00    +0.025 A 
ATOM     13  C   UNL     1      -0.156   0.410   3.588  0.00  0.00    +0.048 A 
ATOM     14  C   UNL     1       0.879  -0.510   3.469  0.00  0.00    +0.025 A 
ATOM     15  C   UNL     1       2.096  -0.117   2.954  0.00  0.00    +0.012 A 
BRANCH  13  16
ATOM     16  N   UNL     1      -1.388   0.010   4.111  0.00  0.00    -0.221 N 
ATOM     17  H   UNL     1      -2.256  -0.107   3.446  0.00  0.00    +0.173 HD
BRANCH  16  18
ATOM     18  S   UNL     1      -1.542  -0.288   5.733  0.00  0.00    +0.040 S 
ATOM     19  O   UNL     1      -2.877  -0.748   5.892  0.00  0.00    -0.155 OA
ATOM     20  O   UNL     1      -0.443  -1.129   6.053  0.00  0.00    -0.155 OA
ATOM     21  C   UNL     1      -1.340   1.332   6.525  0.00  0.00    +0.218 C 
ENDBRANCH  16  18
ENDBRANCH  13  16
ENDBRANCH   6  10
BRANCH   1  23
ATOM     22  C   UNL     1      10.316   0.107   1.552  0.00  0.00    +0.030 C 
ATOM     23  C   UNL     1       9.248   0.077   0.457  0.00  0.00    +0.089 C 
ATOM     24  C   UNL     1      10.565   0.819   0.221  0.00  0.00    -0.016 C 
ATOM     25  C   UNL     1      11.570   0.184  -0.743  0.00  0.00    +0.012 C 
ATOM     26  C   UNL     1      10.524   2.348   0.219  0.00  0.00    +0.012 C 
BRANCH  22  29
ATOM     27  C   UNL     1      12.041  -0.069   3.772  0.00  0.00    +0.038 C 
ATOM     28  C   UNL     1      11.881  -1.248   2.847  0.00  0.00    -0.079 C 
ATOM     29  C   UNL     1      11.079  -1.166   1.814  0.00  0.00    -0.023 C 
ATOM     30  C   UNL     1      12.644  -2.520   3.109  0.00  0.00    +0.038 C 
ENDBRANCH  22  29
ENDBRANCH   1  23
TORSDOF 5
