REMARK  Name = ZINC45939615
REMARK  7 active torsions:
REMARK  status: ('A' for Active; 'I' for Inactive)
REMARK    1  A    between atoms: C_1  and  C_2
REMARK    2  A    between atoms: C_5  and  C_9
REMARK    3  A    between atoms: C_7  and  C_8
REMARK    4  A    between atoms: C_9  and  N_11
REMARK    5  A    between atoms: N_13  and  C_14
REMARK    6  A    between atoms: N_24  and  C_25
REMARK    7  A    between atoms: C_25  and  C_26
REMARK                            x       y       z     vdW  Elec       q    Type
REMARK                         _______ _______ _______ _____ _____    ______ ____
ROOT
ATOM      1  N   UNL     1      -1.437  -5.083  -1.318  0.00  0.00    -0.143 NA
ATOM      2  C   UNL     1      -0.670  -6.157  -1.200  0.00  0.00    +0.194 C 
ATOM      3  N   UNL     1       0.021  -6.625  -2.280  0.00  0.00    -0.328 N 
ATOM      4  N   UNL     1      -0.572  -6.797   0.001  0.00  0.00    -0.353 N 
ATOM      5  H   UNL     1      -1.002  -6.423   0.786  0.00  0.00    +0.163 HD
ATOM      6  H   UNL     1       0.501  -7.465  -2.222  0.00  0.00    +0.169 HD
ENDROOT
BRANCH   3   7
ATOM      7  C   UNL     1       0.037  -5.890  -3.472  0.00  0.00    +0.045 A 
ATOM      8  C   UNL     1       0.097  -4.503  -3.433  0.00  0.00    +0.029 A 
ATOM      9  C   UNL     1       0.111  -3.778  -4.609  0.00  0.00    +0.051 A 
ATOM     10  C   UNL     1       0.068  -4.432  -5.831  0.00  0.00    +0.162 A 
ATOM     11  C   UNL     1       0.011  -5.820  -5.874  0.00  0.00    +0.164 A 
ATOM     12  C   UNL     1      -0.001  -6.548  -4.694  0.00  0.00    +0.075 A 
ATOM     13  O   UNL     1      -0.024  -6.479  -7.064  0.00  0.00    -0.485 OA
ATOM     14  C   UNL     1      -0.381  -5.709  -8.217  0.00  0.00    +0.270 C 
ATOM     15  C   UNL     1       0.415  -4.397  -8.184  0.00  0.00    +0.270 C 
ATOM     16  O   UNL     1       0.080  -3.700  -6.980  0.00  0.00    -0.485 OA
ENDBRANCH   3   7
BRANCH   1  17
ATOM     17  C   UNL     1      -2.271  -4.744  -0.327  0.00  0.00    +0.270 C 
ATOM     18  O   UNL     1      -2.385  -5.466   0.647  0.00  0.00    -0.268 OA
BRANCH  17  23
ATOM     19  C   UNL     1      -5.316   0.130  -0.670  0.00  0.00    +0.044 C 
ATOM     20  C   UNL     1      -4.519  -1.146  -0.580  0.00  0.00    -0.047 A 
ATOM     21  C   UNL     1      -3.658  -1.494  -1.606  0.00  0.00    +0.004 A 
ATOM     22  C   UNL     1      -2.925  -2.660  -1.529  0.00  0.00    +0.013 A 
ATOM     23  C   UNL     1      -3.054  -3.490  -0.415  0.00  0.00    +0.039 A 
ATOM     24  C   UNL     1      -3.924  -3.134   0.616  0.00  0.00    +0.016 A 
ATOM     25  C   UNL     1      -4.647  -1.961   0.530  0.00  0.00    -0.047 A 
ATOM     26  C   UNL     1      -5.583  -1.572   1.645  0.00  0.00    +0.044 C 
ENDBRANCH  17  23
ENDBRANCH   1  17
BRANCH   4  27
ATOM     27  C   UNL     1       0.183  -8.048   0.105  0.00  0.00    +0.151 C 
BRANCH  27  28
ATOM     28  C   UNL     1       0.032  -8.611   1.495  0.00  0.00    -0.025 A 
ATOM     29  C   UNL     1       0.919  -8.262   2.502  0.00  0.00    +0.025 A 
ATOM     30  C   UNL     1       0.749  -8.799   3.764  0.00  0.00    +0.111 A 
ATOM     31  N   UNL     1      -0.241  -9.633   4.015  0.00  0.00    -0.263 NA
ATOM     32  C   UNL     1      -1.103  -9.987   3.082  0.00  0.00    +0.111 A 
ATOM     33  C   UNL     1      -1.000  -9.486   1.798  0.00  0.00    +0.025 A 
ENDBRANCH  27  28
ENDBRANCH   4  27
TORSDOF 5
