REMARK  Name = ZINC05396463
REMARK  5 active torsions:
REMARK  status: ('A' for Active; 'I' for Inactive)
REMARK    1  A    between atoms: C_7  and  C_11
REMARK    2  A    between atoms: C_11  and  N_51
REMARK    3  A    between atoms: C_12  and  N_51
REMARK    4  A    between atoms: C_22  and  N_24
REMARK    5  A    between atoms: C_26  and  C_29
REMARK                            x       y       z     vdW  Elec       q    Type
REMARK                         _______ _______ _______ _____ _____    ______ ____
ROOT
ATOM      1  C   UNL     1       2.070   0.849   0.965  0.00  0.00    -0.013 C 
ATOM      2  C   UNL     1       1.372   1.831  -0.001  0.00  0.00    +0.147 C 
ATOM      3  O   UNL     1      -0.018   1.437   0.010  0.00  0.00    -0.373 OA
ATOM      4  C   UNL     1       0.002  -0.004   0.002  0.00  0.00    +0.172 C 
ATOM      5  C   UNL     1       1.139  -0.386   0.990  0.00  0.00    +0.137 C 
ATOM      6  O   UNL     1       0.517  -0.455   2.281  0.00  0.00    -0.373 OA
ATOM      7  C   UNL     1      -0.852  -0.838   2.130  0.00  0.00    +0.189 C 
ATOM      8  C   UNL     1      -1.270  -0.544   0.680  0.00  0.00    +0.165 C 
ENDROOT
BRANCH   8   9
ATOM      9  N   UNL     1      -1.717  -1.772   0.020  0.00  0.00    -0.243 N 
ATOM     10  C   UNL     1      -1.269  -3.019   0.286  0.00  0.00    +0.140 A 
ATOM     11  C   UNL     1      -1.951  -3.852  -0.554  0.00  0.00    +0.131 A 
ATOM     12  N   UNL     1      -2.768  -3.067  -1.279  0.00  0.00    -0.128 NA
ATOM     13  N   UNL     1      -2.606  -1.846  -0.907  0.00  0.00    -0.065 NA
BRANCH  11  14
ATOM     14  C   UNL     1      -1.816  -5.326  -0.650  0.00  0.00    +0.092 A 
ATOM     15  C   UNL     1      -2.591  -6.033  -1.568  0.00  0.00    +0.030 A 
ATOM     16  C   UNL     1      -2.454  -7.408  -1.646  0.00  0.00    +0.004 A 
ATOM     17  C   UNL     1      -1.544  -8.032  -0.803  0.00  0.00    +0.020 A 
ATOM     18  C   UNL     1      -0.808  -7.269   0.084  0.00  0.00    +0.111 A 
ATOM     19  N   UNL     1      -0.954  -5.960   0.135  0.00  0.00    -0.253 NA
ENDBRANCH  11  14
ENDBRANCH   8   9
BRANCH   1  20
ATOM     20  N   UNL     1       3.400   0.474   0.449  0.00  0.00    +0.387 N 
ATOM     21  H   UNL     1       3.626  -0.479   0.757  0.00  0.00    -0.085 HD
ATOM     22  H   UNL     1       3.386   0.507  -0.577  0.00  0.00    -0.085 HD
BRANCH  20  23
ATOM     23  C   UNL     1       4.426   1.406   0.952  0.00  0.00    -0.044 C 
BRANCH  23  30
ATOM     24  C   UNL     1       6.553   2.066  -3.172  0.00  0.00    +0.001 A 
ATOM     25  C   UNL     1       7.820   1.500  -3.224  0.00  0.00    +0.002 A 
ATOM     26  C   UNL     1       8.334   0.828  -2.138  0.00  0.00    +0.026 A 
ATOM     27  C   UNL     1       7.579   0.714  -0.975  0.00  0.00    +0.047 A 
ATOM     28  C   UNL     1       6.296   1.289  -0.927  0.00  0.00    +0.001 A 
ATOM     29  C   UNL     1       5.795   1.966  -2.041  0.00  0.00    +0.010 A 
ATOM     30  C   UNL     1       5.772   0.999   0.409  0.00  0.00    -0.039 A 
ATOM     31  C   UNL     1       6.719   0.306   1.061  0.00  0.00    +0.085 A 
ATOM     32  N   UNL     1       7.804   0.121   0.247  0.00  0.00    -0.360 N 
ATOM     33  H   UNL     1       8.613  -0.353   0.497  0.00  0.00    +0.165 HD
ENDBRANCH  23  30
ENDBRANCH  20  23
ENDBRANCH   1  20
TORSDOF 5
