REMARK  Name = ZINC35860855
REMARK  11 active torsions:
REMARK  status: ('A' for Active; 'I' for Inactive)
REMARK    1  A    between atoms: C_1  and  C_2
REMARK    2  A    between atoms: C_2  and  C_3
REMARK    3  A    between atoms: C_3  and  C_5
REMARK    4  A    between atoms: C_3  and  O_15
REMARK    5  A    between atoms: C_11  and  C_14
REMARK    6  A    between atoms: O_15  and  C_16
REMARK    7  A    between atoms: C_22  and  C_33
REMARK    8  A    between atoms: C_27  and  C_29
REMARK    9  A    between atoms: C_29  and  C_30
REMARK   10  A    between atoms: C_29  and  C_31
REMARK   11  A    between atoms: C_29  and  C_32
REMARK                            x       y       z     vdW  Elec       q    Type
REMARK                         _______ _______ _______ _____ _____    ______ ____
ROOT
ATOM      1  C   UNL     1       0.610   1.562  -2.519  0.00  0.00    +0.122 A 
ATOM      2  C   UNL     1       1.596   2.455  -2.123  0.00  0.00    +0.046 A 
ATOM      3  C   UNL     1       1.712   3.672  -2.758  0.00  0.00    +0.007 A 
ATOM      4  C   UNL     1       0.853   4.016  -3.796  0.00  0.00    -0.040 A 
ATOM      5  C   UNL     1      -0.120   3.127  -4.195  0.00  0.00    -0.016 A 
ATOM      6  C   UNL     1      -0.242   1.901  -3.557  0.00  0.00    +0.051 A 
ATOM      7  C   UNL     1      -1.066   3.424  -5.332  0.00  0.00    +0.137 C 
ATOM      8  N   UNL     1      -0.963   4.839  -5.703  0.00  0.00    -0.290 N 
ATOM      9  C   UNL     1       0.388   5.412  -5.815  0.00  0.00    +0.113 C 
ATOM     10  C   UNL     1       1.032   5.370  -4.430  0.00  0.00    +0.054 C 
ATOM     11  C   UNL     1      -2.062   5.585  -5.933  0.00  0.00    +0.222 C 
ATOM     12  O   UNL     1      -3.159   5.067  -5.926  0.00  0.00    -0.275 OA
ENDROOT
BRANCH   7  13
ATOM     13  C   UNL     1      -0.709   2.567  -6.519  0.00  0.00    -0.022 A 
ATOM     14  C   UNL     1      -1.669   1.764  -7.106  0.00  0.00    +0.008 A 
ATOM     15  C   UNL     1      -1.343   0.979  -8.195  0.00  0.00    +0.038 A 
ATOM     16  C   UNL     1      -0.053   0.995  -8.698  0.00  0.00    +0.123 A 
ATOM     17  C   UNL     1       0.908   1.800  -8.109  0.00  0.00    +0.038 A 
ATOM     18  C   UNL     1       0.578   2.588  -7.024  0.00  0.00    +0.008 A 
ATOM     19  F   UNL     1       0.268   0.227  -9.762  0.00  0.00    -0.205 F 
ENDBRANCH   7  13
BRANCH  11  20
ATOM     20  C   UNL     1      -1.928   7.062  -6.199  0.00  0.00    +0.039 C 
ATOM     21  C   UNL     1      -3.319   7.690  -6.307  0.00  0.00    +0.020 C 
ATOM     22  C   UNL     1      -1.159   7.719  -5.051  0.00  0.00    +0.020 C 
ATOM     23  C   UNL     1      -1.168   7.277  -7.510  0.00  0.00    +0.020 C 
ENDBRANCH  11  20
BRANCH   1  24
ATOM     24  O   UNL     1       0.484   0.362  -1.895  0.00  0.00    -0.480 OA
BRANCH  24  25
ATOM     25  C   UNL     1       1.337   0.120  -0.774  0.00  0.00    +0.258 C 
BRANCH  25  26
ATOM     26  C   UNL     1       1.701  -1.341  -0.725  0.00  0.00    +0.256 C 
ATOM     27  O   UNL     1       1.201  -2.117  -1.512  0.00  0.00    -0.272 OA
ATOM     28  N   UNL     1       2.581  -1.786   0.193  0.00  0.00    -0.302 N 
ATOM     29  C   UNL     1       3.195  -0.864   1.161  0.00  0.00    +0.089 C 
ATOM     30  C   UNL     1       4.713  -1.074   1.137  0.00  0.00    -0.063 C 
ATOM     31  N   UNL     1       5.014  -2.491   1.375  0.00  0.00    +0.383 N 
ATOM     32  C   UNL     1       4.485  -3.306   0.274  0.00  0.00    -0.057 C 
ATOM     33  C   UNL     1       2.952  -3.208   0.259  0.00  0.00    +0.092 C 
ATOM     34  C   UNL     1       4.899  -4.765   0.475  0.00  0.00    -0.012 C 
ATOM     35  H   UNL     1       6.014  -2.616   1.433  0.00  0.00    -0.085 HD
ATOM     36  H   UNL     1       4.589  -2.783   2.242  0.00  0.00    -0.085 HD
ENDBRANCH  25  26
BRANCH  25  38
ATOM     37  C   UNL     1       0.348   2.016   0.520  0.00  0.00    +0.008 C 
ATOM     38  C   UNL     1       0.607   0.508   0.514  0.00  0.00    +0.051 C 
ENDBRANCH  25  38
ENDBRANCH  24  25
ENDBRANCH   1  24
TORSDOF 6
