REMARK  Name = ZINC44940175
REMARK  6 active torsions:
REMARK  status: ('A' for Active; 'I' for Inactive)
REMARK    1  A    between atoms: C_4  and  C_7
REMARK    2  A    between atoms: C_7  and  O_8
REMARK    3  A    between atoms: O_8  and  C_9
REMARK    4  A    between atoms: C_15  and  N_17
REMARK    5  A    between atoms: C_18  and  C_20
REMARK    6  A    between atoms: C_26  and  C_28
REMARK                            x       y       z     vdW  Elec       q    Type
REMARK                         _______ _______ _______ _____ _____    ______ ____
ROOT
ATOM      1  C   UNL     1       2.667  -4.924   3.769  0.00  0.00    +0.087 C 
ATOM      2  C   UNL     1       1.459  -4.300   3.066  0.00  0.00    +0.013 C 
ATOM      3  C   UNL     1       0.311  -5.311   3.033  0.00  0.00    +0.001 C 
ATOM      4  C   UNL     1      -0.073  -5.694   4.464  0.00  0.00    +0.001 C 
ATOM      5  C   UNL     1       1.135  -6.317   5.166  0.00  0.00    +0.013 C 
ATOM      6  C   UNL     1       2.283  -5.306   5.200  0.00  0.00    +0.087 C 
ENDROOT
BRANCH   6   7
ATOM      7  C   UNL     1       3.473  -5.920   5.892  0.00  0.00    +0.220 C 
ATOM      8  O   UNL     1       4.524  -6.040   5.299  0.00  0.00    -0.275 OA
ATOM      9  N   UNL     1       3.368  -6.337   7.170  0.00  0.00    -0.295 N 
ATOM     10  C   UNL     1       4.519  -6.933   7.865  0.00  0.00    +0.113 C 
ATOM     11  C   UNL     1       4.921  -6.022   9.031  0.00  0.00    +0.056 C 
ATOM     12  C   UNL     1       3.680  -5.601   9.776  0.00  0.00    -0.016 A 
ATOM     13  C   UNL     1       3.578  -5.053  11.113  0.00  0.00    +0.003 A 
ATOM     14  C   UNL     1       4.533  -4.755  12.090  0.00  0.00    +0.010 A 
ATOM     15  C   UNL     1       4.069  -4.232  13.272  0.00  0.00    +0.001 A 
ATOM     16  C   UNL     1       2.720  -4.007  13.498  0.00  0.00    +0.002 A 
ATOM     17  C   UNL     1       1.754  -4.293  12.549  0.00  0.00    +0.026 A 
ATOM     18  C   UNL     1       2.197  -4.823  11.339  0.00  0.00    +0.047 A 
ATOM     19  N   UNL     1       1.531  -5.210  10.211  0.00  0.00    -0.356 N 
ATOM     20  H   UNL     1       0.571  -5.161  10.086  0.00  0.00    +0.166 HD
ATOM     21  C   UNL     1       2.425  -5.675   9.283  0.00  0.00    +0.038 A 
ATOM     22  C   UNL     1       2.100  -6.201   7.907  0.00  0.00    +0.161 C 
ENDBRANCH   6   7
BRANCH   1  24
ATOM     23  N   UNL     1       4.305  -3.446   2.650  0.00  0.00    -0.310 N 
ATOM     24  C   UNL     1       3.798  -3.928   3.802  0.00  0.00    +0.217 C 
ATOM     25  O   UNL     1       4.252  -3.561   4.865  0.00  0.00    -0.275 OA
ATOM     26  H   UNL     1       3.942  -3.739   1.800  0.00  0.00    +0.149 HD
BRANCH  23  32
ATOM     27  C   UNL     1       5.385  -1.642   1.400  0.00  0.00    +0.139 C 
ATOM     28  C   UNL     1       6.534  -0.632   1.434  0.00  0.00    +0.033 C 
ATOM     29  C   UNL     1       7.866  -1.377   1.537  0.00  0.00    +0.003 C 
ATOM     30  C   UNL     1       7.885  -2.213   2.818  0.00  0.00    +0.002 C 
ATOM     31  C   UNL     1       6.737  -3.223   2.785  0.00  0.00    +0.025 C 
ATOM     32  C   UNL     1       5.404  -2.478   2.682  0.00  0.00    +0.102 C 
BRANCH  27  33
ATOM     33  O   UNL     1       4.141  -0.946   1.304  0.00  0.00    -0.370 OA
BRANCH  33  34
ATOM     34  C   UNL     1       3.711  -0.707  -0.038  0.00  0.00    +0.195 C 
BRANCH  34  38
ATOM     35  C   UNL     1      -0.017   1.378   0.010  0.00  0.00    +0.000 A 
ATOM     36  C   UNL     1       1.171   2.086   0.002  0.00  0.00    +0.000 A 
ATOM     37  C   UNL     1       2.377   1.411  -0.013  0.00  0.00    +0.006 A 
ATOM     38  C   UNL     1       2.396   0.029  -0.020  0.00  0.00    -0.022 A 
ATOM     39  C   UNL     1       1.208  -0.679  -0.012  0.00  0.00    +0.006 A 
ATOM     40  C   UNL     1       0.002  -0.004   0.002  0.00  0.00    +0.000 A 
ENDBRANCH  34  38
ENDBRANCH  33  34
ENDBRANCH  27  33
ENDBRANCH  23  32
ENDBRANCH   1  24
TORSDOF 6
