REMARK  Name = ZINC64833539
REMARK  6 active torsions:
REMARK  status: ('A' for Active; 'I' for Inactive)
REMARK    1  A    between atoms: C_1  and  O_2
REMARK    2  A    between atoms: O_2  and  C_3
REMARK    3  A    between atoms: N_5  and  C_6
REMARK    4  A    between atoms: C_11  and  O_12
REMARK    5  A    between atoms: O_12  and  C_13
REMARK    6  A    between atoms: C_13  and  C_15
REMARK                            x       y       z     vdW  Elec       q    Type
REMARK                         _______ _______ _______ _____ _____    ______ ____
ROOT
ATOM      1  C   UNL     1      -2.451  -2.676   0.173  0.00  0.00    +0.079 A 
ATOM      2  C   UNL     1      -3.655  -1.988   0.177  0.00  0.00    +0.027 A 
ATOM      3  C   UNL     1      -4.849  -2.684   0.203  0.00  0.00    +0.002 A 
ATOM      4  C   UNL     1      -4.846  -4.067   0.226  0.00  0.00    +0.004 A 
ATOM      5  C   UNL     1      -3.651  -4.760   0.223  0.00  0.00    +0.048 A 
ATOM      6  C   UNL     1      -2.449  -4.069   0.191  0.00  0.00    +0.153 A 
ENDROOT
BRANCH   1   9
ATOM      7  C   UNL     1      -1.134  -0.790   0.783  0.00  0.00    +0.404 C 
ATOM      8  O   UNL     1      -2.107  -0.299   1.321  0.00  0.00    -0.226 OA
ATOM      9  N   UNL     1      -1.240  -1.973   0.147  0.00  0.00    -0.248 N 
ATOM     10  H   UNL     1      -0.477  -2.337  -0.329  0.00  0.00    +0.158 HD
BRANCH   7  12
ATOM     11  C   UNL     1       0.091   1.099   1.516  0.00  0.00    +0.282 C 
ATOM     12  O   UNL     1       0.051  -0.151   0.824  0.00  0.00    -0.453 OA
ENDBRANCH   7  12
ENDBRANCH   1   9
BRANCH   6  13
ATOM     13  O   UNL     1      -1.272  -4.750   0.182  0.00  0.00    -0.418 OA
BRANCH  13  14
ATOM     14  C   UNL     1      -0.668  -4.986   1.365  0.00  0.00    +0.380 C 
ATOM     15  O   UNL     1      -1.129  -4.515   2.387  0.00  0.00    -0.241 OA
BRANCH  14  16
ATOM     16  C   UNL     1       0.541  -5.809   1.417  0.00  0.00    +0.213 A 
ATOM     17  C   UNL     1       1.246  -6.129   2.544  0.00  0.00    +0.058 A 
ATOM     18  C   UNL     1       2.322  -6.928   2.133  0.00  0.00    +0.058 A 
ATOM     19  C   UNL     1       2.230  -7.061   0.789  0.00  0.00    +0.171 A 
ATOM     20  O   UNL     1       1.153  -6.388   0.363  0.00  0.00    -0.442 OA
ATOM     21 BR   UNL     1       3.422  -8.038  -0.306  0.00  0.00    -0.008 Br
ENDBRANCH  14  16
ENDBRANCH  13  14
ENDBRANCH   6  13
TORSDOF 5
