REMARK  Name = ZINC35926695
REMARK  4 active torsions:
REMARK  status: ('A' for Active; 'I' for Inactive)
REMARK    1  A    between atoms: C_4  and  C_7
REMARK    2  A    between atoms: C_22  and  C_24
REMARK    3  A    between atoms: C_24  and  N_25
REMARK    4  A    between atoms: N_28  and  C_31
REMARK                            x       y       z     vdW  Elec       q    Type
REMARK                         _______ _______ _______ _____ _____    ______ ____
ROOT
ATOM      1  C   UNL     1       3.696  -0.685  -0.037  0.00  0.00    +0.247 C 
ATOM      2  O   UNL     1       2.636  -0.097   0.062  0.00  0.00    -0.270 OA
ATOM      3  N   UNL     1       3.714  -2.028  -0.146  0.00  0.00    -0.296 N 
ATOM      4  C   UNL     1       5.017  -2.693  -0.152  0.00  0.00    +0.109 C 
ATOM      5  C   UNL     1       5.295  -3.191   1.252  0.00  0.00    +0.038 C 
ATOM      6  C   UNL     1       4.681  -4.578   1.456  0.00  0.00    +0.109 C 
ATOM      7  N   UNL     1       3.344  -4.698   0.856  0.00  0.00    -0.300 N 
ATOM      8  C   UNL     1       2.328  -3.666   0.963  0.00  0.00    +0.127 C 
ATOM      9  C   UNL     1       2.466  -2.701  -0.242  0.00  0.00    +0.127 C 
ATOM     10  C   UNL     1       3.042  -5.839   0.163  0.00  0.00    +0.199 A 
ATOM     11  N   UNL     1       1.812  -5.970  -0.406  0.00  0.00    -0.295 N 
ATOM     12  H   UNL     1       1.158  -5.260  -0.319  0.00  0.00    +0.172 HD
ATOM     13  C   UNL     1       1.507  -7.093  -1.091  0.00  0.00    +0.253 A 
ATOM     14  O   UNL     1       0.410  -7.226  -1.608  0.00  0.00    -0.268 OA
ATOM     15  C   UNL     1       2.478  -8.104  -1.199  0.00  0.00    +0.094 A 
ATOM     16  C   UNL     1       3.694  -7.917  -0.608  0.00  0.00    +0.064 A 
ATOM     17  N   UNL     1       3.948  -6.790   0.053  0.00  0.00    -0.219 NA
ENDROOT
BRANCH   1  21
ATOM     18  C   UNL     1       7.340   1.497  -0.039  0.00  0.00    +0.000 A 
ATOM     19  C   UNL     1       6.332   1.839  -0.923  0.00  0.00    +0.001 A 
ATOM     20  C   UNL     1       5.146   1.134  -0.928  0.00  0.00    +0.013 A 
ATOM     21  C   UNL     1       4.964   0.074  -0.038  0.00  0.00    +0.037 A 
ATOM     22  C   UNL     1       5.985  -0.265   0.852  0.00  0.00    +0.013 A 
ATOM     23  C   UNL     1       7.166   0.448   0.846  0.00  0.00    +0.001 A 
ENDBRANCH   1  21
BRANCH  16  24
ATOM     24  C   UNL     1       4.752  -8.985  -0.709  0.00  0.00    +0.140 C 
BRANCH  24  25
ATOM     25  N   UNL     1       5.892  -8.473  -1.480  0.00  0.00    -0.300 NA
ATOM     26  C   UNL     1       5.514  -8.230  -2.880  0.00  0.00    +0.066 C 
ATOM     27  C   UNL     1       6.710  -7.643  -3.633  0.00  0.00    -0.063 C 
ATOM     28  N   UNL     1       7.838  -8.582  -3.569  0.00  0.00    +0.383 N 
ATOM     29  C   UNL     1       8.220  -8.796  -2.167  0.00  0.00    -0.063 C 
ATOM     30  C   UNL     1       7.037  -9.392  -1.401  0.00  0.00    +0.066 C 
ATOM     31  H   UNL     1       7.567  -9.462  -3.982  0.00  0.00    -0.081 HD
BRANCH  28  32
ATOM     32  C   UNL     1       8.980  -8.027  -4.308  0.00  0.00    -0.068 C 
ATOM     33  C   UNL     1       8.583  -7.805  -5.769  0.00  0.00    -0.015 C 
ATOM     34  C   UNL     1       9.772  -7.227  -6.538  0.00  0.00    -0.002 C 
ATOM     35  C   UNL     1      10.947  -8.204  -6.471  0.00  0.00    -0.000 C 
ATOM     36  C   UNL     1      11.344  -8.425  -5.010  0.00  0.00    -0.002 C 
ATOM     37  C   UNL     1      10.155  -9.004  -4.241  0.00  0.00    -0.015 C 
ENDBRANCH  28  32
ENDBRANCH  24  25
ENDBRANCH  16  24
TORSDOF 4
