REMARK  Name = ZINC57388791
REMARK  7 active torsions:
REMARK  status: ('A' for Active; 'I' for Inactive)
REMARK    1  A    between atoms: C_1  and  C_2
REMARK    2  A    between atoms: C_2  and  N_3
REMARK    3  A    between atoms: C_4  and  C_6
REMARK    4  A    between atoms: C_9  and  C_26
REMARK    5  A    between atoms: C_10  and  N_12
REMARK    6  A    between atoms: C_13  and  C_15
REMARK    7  A    between atoms: C_18  and  C_20
REMARK                            x       y       z     vdW  Elec       q    Type
REMARK                         _______ _______ _______ _____ _____    ______ ____
ROOT
ATOM      1  N   UNL     1       2.452  -5.453  -4.259  0.00  0.00    -0.280 N 
ATOM      2  C   UNL     1       1.585  -6.327  -3.711  0.00  0.00    +0.267 C 
ATOM      3  O   UNL     1       0.626  -5.920  -3.084  0.00  0.00    -0.268 OA
ATOM      4  H   UNL     1       3.171  -5.774  -4.826  0.00  0.00    +0.155 HD
ENDROOT
BRANCH   1   9
ATOM      5  C   UNL     1       1.538  -2.282  -2.619  0.00  0.00    +0.038 A 
ATOM      6  C   UNL     1       2.054  -1.361  -3.533  0.00  0.00    +0.013 A 
ATOM      7  C   UNL     1       2.693  -1.804  -4.673  0.00  0.00    +0.006 A 
ATOM      8  C   UNL     1       2.826  -3.159  -4.914  0.00  0.00    -0.029 A 
ATOM      9  C   UNL     1       2.316  -4.083  -4.010  0.00  0.00    +0.037 A 
ATOM     10  C   UNL     1       1.677  -3.648  -2.860  0.00  0.00    +0.036 A 
ATOM     11  C   UNL     1       3.525  -3.635  -6.161  0.00  0.00    +0.045 C 
BRANCH   5  13
ATOM     12  N   UNL     1       0.719  -0.488  -1.167  0.00  0.00    -0.312 N 
ATOM     13  C   UNL     1       0.852  -1.809  -1.397  0.00  0.00    +0.244 C 
ATOM     14  O   UNL     1       0.408  -2.613  -0.600  0.00  0.00    -0.270 OA
ATOM     15  H   UNL     1       1.073   0.153  -1.803  0.00  0.00    +0.149 HD
BRANCH  12  17
ATOM     16  C   UNL     1       0.025   1.510   0.062  0.00  0.00    +0.024 C 
ATOM     17  C   UNL     1       0.040  -0.020   0.044  0.00  0.00    +0.101 C 
ENDBRANCH  12  17
ENDBRANCH   5  13
ENDBRANCH   1   9
BRANCH   2  18
ATOM     18  C   UNL     1       1.799  -7.775  -3.872  0.00  0.00    +0.134 A 
ATOM     19  C   UNL     1       0.921  -8.671  -3.324  0.00  0.00    +0.080 A 
ATOM     20  S   UNL     1       1.583 -10.152  -3.773  0.00  0.00    -0.074 S 
ATOM     21  C   UNL     1       2.997  -9.539  -4.670  0.00  0.00    +0.116 A 
ATOM     22  N   UNL     1       2.842  -8.229  -4.556  0.00  0.00    -0.234 NA
BRANCH  21  23
ATOM     23  C   UNL     1       4.056 -10.291  -5.361  0.00  0.00    +0.046 A 
ATOM     24  C   UNL     1       4.209 -11.648  -5.489  0.00  0.00    +0.019 A 
ATOM     25  C   UNL     1       5.292 -12.128  -6.189  0.00  0.00    +0.028 A 
ATOM     26  C   UNL     1       6.174 -11.246  -6.732  0.00  0.00    +0.079 A 
ATOM     27  S   UNL     1       5.471  -9.675  -6.259  0.00  0.00    -0.075 S 
ATOM     28 CL   UNL     1       7.610 -11.566  -7.653  0.00  0.00    -0.076 Cl
ENDBRANCH  21  23
ENDBRANCH   2  18
TORSDOF 5
