REMARK  Name = ZINC38906332
REMARK  5 active torsions:
REMARK  status: ('A' for Active; 'I' for Inactive)
REMARK    1  A    between atoms: C_6  and  C_10
REMARK    2  A    between atoms: C_10  and  N_21
REMARK    3  A    between atoms: C_11  and  C_12
REMARK    4  A    between atoms: C_16  and  N_18
REMARK    5  A    between atoms: C_22  and  C_24
REMARK                            x       y       z     vdW  Elec       q    Type
REMARK                         _______ _______ _______ _____ _____    ______ ____
ROOT
ATOM      1  C   UNL     1       3.110  -3.051  -1.375  0.00  0.00    +0.054 C 
ATOM      2  C   UNL     1       4.166  -2.842  -0.583  0.00  0.00    +0.030 C 
ENDROOT
BRANCH   1   8
ATOM      3  C   UNL     1      -1.874  -4.717  -3.279  0.00  0.00    +0.002 A 
ATOM      4  C   UNL     1      -2.345  -3.741  -2.382  0.00  0.00    +0.002 A 
ATOM      5  C   UNL     1      -1.558  -3.175  -1.445  0.00  0.00    +0.027 A 
ATOM      6  C   UNL     1      -0.149  -3.581  -1.340  0.00  0.00    +0.060 A 
ATOM      7  N   UNL     1       0.820  -3.216  -0.552  0.00  0.00    -0.359 N 
ATOM      8  C   UNL     1       2.012  -3.984  -0.934  0.00  0.00    +0.220 C 
ATOM      9  N   UNL     1       1.607  -4.848  -2.051  0.00  0.00    -0.359 N 
ATOM     10  C   UNL     1       0.348  -4.615  -2.288  0.00  0.00    +0.060 A 
ATOM     11  C   UNL     1      -0.601  -5.160  -3.268  0.00  0.00    +0.027 A 
ATOM     12  H   UNL     1       0.766  -2.556   0.157  0.00  0.00    +0.162 HD
ATOM     13  H   UNL     1       2.173  -5.477  -2.525  0.00  0.00    +0.162 HD
ENDBRANCH   1   8
BRANCH   2  14
ATOM     14  C   UNL     1       4.161  -3.348   0.803  0.00  0.00    -0.021 A 
ATOM     15  C   UNL     1       5.249  -4.077   1.288  0.00  0.00    +0.008 A 
ATOM     16  C   UNL     1       5.238  -4.546   2.585  0.00  0.00    +0.003 A 
ATOM     17  C   UNL     1       4.151  -4.298   3.405  0.00  0.00    +0.033 A 
ATOM     18  C   UNL     1       3.069  -3.577   2.931  0.00  0.00    +0.127 A 
ATOM     19  C   UNL     1       3.070  -3.096   1.638  0.00  0.00    +0.040 A 
BRANCH  18  20
ATOM     20  N   UNL     1       1.911  -3.316   3.815  0.00  0.00    +0.056 N 
ATOM     21  O   UNL     1       1.911  -3.733   4.950  0.00  0.00    -0.126 OA
ATOM     22  O   UNL     1       0.965  -2.687   3.402  0.00  0.00    -0.126 OA
ENDBRANCH  18  20
ENDBRANCH   2  14
BRANCH   1  23
ATOM     23  N   UNL     1       3.025  -2.410  -2.600  0.00  0.00    -0.282 N 
ATOM     24  C   UNL     1       2.079  -1.473  -2.806  0.00  0.00    +0.248 C 
ATOM     25  O   UNL     1       1.377  -1.105  -1.884  0.00  0.00    -0.270 OA
ATOM     26  H   UNL     1       3.647  -2.636  -3.310  0.00  0.00    +0.155 HD
BRANCH  24  27
ATOM     27  C   UNL     1       1.894  -0.892  -4.153  0.00  0.00    +0.038 A 
ATOM     28  C   UNL     1       2.695  -1.317  -5.215  0.00  0.00    +0.013 A 
ATOM     29  C   UNL     1       2.518  -0.772  -6.470  0.00  0.00    +0.002 A 
ATOM     30  C   UNL     1       1.549   0.194  -6.677  0.00  0.00    +0.015 A 
ATOM     31  C   UNL     1       0.751   0.620  -5.629  0.00  0.00    +0.019 A 
ATOM     32  C   UNL     1       0.915   0.078  -4.369  0.00  0.00    +0.028 A 
ATOM     33 BR   UNL     1      -0.569   1.940  -5.924  0.00  0.00    -0.050 Br
ENDBRANCH  24  27
ENDBRANCH   1  23
TORSDOF 5
