REMARK  Name = ZINC12475785
REMARK  7 active torsions:
REMARK  status: ('A' for Active; 'I' for Inactive)
REMARK    1  A    between atoms: C_7  and  C_11
REMARK    2  A    between atoms: C_11  and  C_12
REMARK    3  A    between atoms: N_14  and  C_15
REMARK    4  A    between atoms: N_14  and  C_21
REMARK    5  A    between atoms: C_21  and  C_23
REMARK    6  A    between atoms: C_21  and  C_28
REMARK    7  A    between atoms: N_30  and  C_31
REMARK                            x       y       z     vdW  Elec       q    Type
REMARK                         _______ _______ _______ _____ _____    ______ ____
ROOT
ATOM      1  C   UNL     1      -0.220   1.784  -2.404  0.00  0.00    +0.221 C 
ATOM      2  O   UNL     1      -0.882   2.080  -3.376  0.00  0.00    -0.275 OA
ATOM      3  N   UNL     1      -0.588   2.215  -1.181  0.00  0.00    -0.282 N 
ENDROOT
BRANCH   3   4
ATOM      4  C   UNL     1       0.291   1.992  -0.031  0.00  0.00    +0.077 C 
ATOM      5  C   UNL     1       1.584   2.789  -0.215  0.00  0.00    +0.022 C 
ATOM      6  C   UNL     1       2.502   2.556   0.987  0.00  0.00    +0.002 C 
ATOM      7  C   UNL     1       2.832   1.066   1.095  0.00  0.00    +0.000 C 
ATOM      8  C   UNL     1       1.539   0.270   1.280  0.00  0.00    +0.002 C 
ATOM      9  C   UNL     1       0.621   0.502   0.078  0.00  0.00    +0.022 C 
ENDBRANCH   3   4
BRANCH   1  10
ATOM     10  C   UNL     1       1.016   0.936  -2.564  0.00  0.00    +0.133 C 
BRANCH  10  17
ATOM     11  C   UNL     1       3.634   3.861  -5.126  0.00  0.00    +0.001 A 
ATOM     12  C   UNL     1       3.764   3.454  -6.447  0.00  0.00    +0.002 A 
ATOM     13  C   UNL     1       3.165   2.294  -6.887  0.00  0.00    +0.026 A 
ATOM     14  C   UNL     1       2.411   1.528  -6.004  0.00  0.00    +0.047 A 
ATOM     15  C   UNL     1       2.280   1.946  -4.667  0.00  0.00    +0.003 A 
ATOM     16  C   UNL     1       2.902   3.120  -4.240  0.00  0.00    +0.010 A 
ATOM     17  C   UNL     1       1.444   0.939  -4.008  0.00  0.00    -0.014 A 
ATOM     18  C   UNL     1       1.127   0.023  -4.937  0.00  0.00    +0.087 A 
ATOM     19  N   UNL     1       1.696   0.358  -6.136  0.00  0.00    -0.360 N 
ATOM     20  H   UNL     1       1.609  -0.152  -6.956  0.00  0.00    +0.165 HD
ENDBRANCH  10  17
ENDBRANCH   1  10
BRANCH   3  21
ATOM     21  C   UNL     1      -1.868   2.905  -1.003  0.00  0.00    +0.199 C 
BRANCH  21  22
ATOM     22  C   UNL     1      -2.725   2.131  -0.034  0.00  0.00    +0.019 A 
ATOM     23  C   UNL     1      -4.059   1.894  -0.075  0.00  0.00    +0.013 A 
ATOM     24  C   UNL     1      -4.638   1.146   0.932  0.00  0.00    +0.008 A 
ATOM     25  C   UNL     1      -3.857   0.681   1.938  0.00  0.00    +0.045 A 
ATOM     26  S   UNL     1      -2.248   1.296   1.470  0.00  0.00    -0.099 S 
ENDBRANCH  21  22
BRANCH  21  27
ATOM     27  C   UNL     1      -1.621   4.289  -0.460  0.00  0.00    +0.239 C 
ATOM     28  O   UNL     1      -0.487   4.662  -0.244  0.00  0.00    -0.273 OA
ATOM     29  N   UNL     1      -2.659   5.112  -0.215  0.00  0.00    -0.311 N 
ATOM     30  H   UNL     1      -3.566   4.814  -0.388  0.00  0.00    +0.149 HD
BRANCH  29  31
ATOM     31  C   UNL     1      -2.419   6.458   0.312  0.00  0.00    +0.073 C 
ATOM     32  C   UNL     1      -2.300   6.394   1.836  0.00  0.00    +0.022 C 
ATOM     33  C   UNL     1      -2.049   7.800   2.387  0.00  0.00    +0.002 C 
ATOM     34  C   UNL     1      -3.215   8.713   2.004  0.00  0.00    +0.000 C 
ATOM     35  C   UNL     1      -3.334   8.776   0.480  0.00  0.00    +0.002 C 
ATOM     36  C   UNL     1      -3.586   7.371  -0.070  0.00  0.00    +0.022 C 
ENDBRANCH  29  31
ENDBRANCH  21  27
ENDBRANCH   3  21
TORSDOF 7
