REMARK  Name = ZINC22803654
REMARK  6 active torsions:
REMARK  status: ('A' for Active; 'I' for Inactive)
REMARK    1  A    between atoms: C_10  and  C_11
REMARK    2  A    between atoms: C_11  and  N_12
REMARK    3  A    between atoms: N_15  and  C_18
REMARK    4  A    between atoms: C_18  and  C_19
REMARK    5  A    between atoms: N_29  and  C_30
REMARK    6  A    between atoms: C_30  and  C_31
REMARK                            x       y       z     vdW  Elec       q    Type
REMARK                         _______ _______ _______ _____ _____    ______ ____
ROOT
ATOM      1  N   UNL     1      -0.701   1.560   1.216  0.00  0.00    -0.302 NA
ATOM      2  C   UNL     1      -0.013   1.086   0.008  0.00  0.00    +0.066 C 
ATOM      3  C   UNL     1      -0.754   1.593  -1.231  0.00  0.00    -0.063 C 
ATOM      4  N   UNL     1      -0.806   3.062  -1.200  0.00  0.00    +0.386 N 
ATOM      5  C   UNL     1      -1.495   3.536   0.008  0.00  0.00    -0.063 C 
ATOM      6  C   UNL     1      -0.754   3.029   1.247  0.00  0.00    +0.066 C 
ATOM      7  H   UNL     1       0.227   3.438  -1.172  0.00  0.00    -0.081 HD
ENDROOT
BRANCH   1   8
ATOM      8  C   UNL     1      -0.062   1.031   2.429  0.00  0.00    +0.120 C 
BRANCH   8  18
ATOM      9  C   UNL     1      -4.319   0.574   5.236  0.00  0.00    +0.001 A 
ATOM     10  C   UNL     1      -3.809  -0.078   4.114  0.00  0.00    +0.001 A 
ATOM     11  C   UNL     1      -2.610   0.281   3.579  0.00  0.00    +0.009 A 
ATOM     12  C   UNL     1      -1.875   1.329   4.160  0.00  0.00    -0.013 A 
ATOM     13  C   UNL     1      -2.392   1.989   5.303  0.00  0.00    -0.018 A 
ATOM     14  C   UNL     1      -3.633   1.590   5.828  0.00  0.00    +0.008 A 
ATOM     15  C   UNL     1      -1.654   3.033   5.888  0.00  0.00    +0.008 A 
ATOM     16  C   UNL     1      -0.455   3.392   5.353  0.00  0.00    +0.001 A 
ATOM     17  C   UNL     1       0.055   2.740   4.232  0.00  0.00    +0.005 A 
ATOM     18  C   UNL     1      -0.631   1.724   3.640  0.00  0.00    -0.026 A 
ENDBRANCH   8  18
ENDBRANCH   1   8
BRANCH   4  19
ATOM     19  C   UNL     1      -1.445   3.591  -2.413  0.00  0.00    -0.003 C 
BRANCH  19  20
ATOM     20  C   UNL     1      -1.263   5.086  -2.464  0.00  0.00    +0.097 A 
ATOM     21  N   UNL     1      -0.613   5.661  -1.498  0.00  0.00    -0.235 NA
ATOM     22  C   UNL     1      -0.410   7.002  -1.477  0.00  0.00    +0.078 A 
ATOM     23  C   UNL     1       0.289   7.621  -0.439  0.00  0.00    +0.028 A 
ATOM     24  C   UNL     1       0.472   8.986  -0.459  0.00  0.00    +0.002 A 
ATOM     25  C   UNL     1      -0.031   9.756  -1.499  0.00  0.00    +0.001 A 
ATOM     26  C   UNL     1      -0.724   9.168  -2.535  0.00  0.00    +0.015 A 
ATOM     27  C   UNL     1      -0.920   7.789  -2.534  0.00  0.00    +0.065 A 
ATOM     28  C   UNL     1      -1.651   7.107  -3.612  0.00  0.00    +0.262 A 
ATOM     29  O   UNL     1      -2.115   7.726  -4.551  0.00  0.00    -0.267 OA
ATOM     30  N   UNL     1      -1.783   5.763  -3.522  0.00  0.00    -0.289 N 
BRANCH  30  31
ATOM     31  C   UNL     1      -2.498   5.031  -4.571  0.00  0.00    +0.221 C 
BRANCH  31  32
ATOM     32  C   UNL     1      -3.961   4.953  -4.221  0.00  0.00    +0.230 C 
ATOM     33  O   UNL     1      -4.367   5.459  -3.196  0.00  0.00    -0.274 OA
ATOM     34  N   UNL     1      -4.819   4.322  -5.046  0.00  0.00    -0.328 N 
ATOM     35  H   UNL     1      -5.887   4.265  -4.791  0.00  0.00    +0.145 HD
ATOM     36  H   UNL     1      -4.451   3.863  -5.976  0.00  0.00    +0.145 HD
ENDBRANCH  31  32
ENDBRANCH  30  31
ENDBRANCH  19  20
ENDBRANCH   4  19
TORSDOF 6
