REMARK  Name = ZINC39029726
REMARK  10 active torsions:
REMARK  status: ('A' for Active; 'I' for Inactive)
REMARK    1  A    between atoms: C_4  and  C_10
REMARK    2  A    between atoms: N_11  and  N_12
REMARK    3  A    between atoms: C_13  and  C_15
REMARK    4  A    between atoms: C_15  and  C_16
REMARK    5  A    between atoms: C_16  and  C_17
REMARK    6  A    between atoms: C_17  and  C_18
REMARK    7  A    between atoms: C_18  and  C_19
REMARK    8  A    between atoms: C_19  and  C_20
REMARK    9  A    between atoms: N_22  and  N_23
REMARK   10  A    between atoms: C_24  and  C_25
REMARK                            x       y       z     vdW  Elec       q    Type
REMARK                         _______ _______ _______ _____ _____    ______ ____
ROOT
ATOM      1  C   UNL     1       9.578   8.117  -0.047  0.00  0.00    +0.001 C 
ENDROOT
BRANCH   1   2
ATOM      2  C   UNL     1       9.116   6.658  -0.050  0.00  0.00    +0.009 C 
BRANCH   2   3
ATOM      3  C   UNL     1       7.586   6.608  -0.036  0.00  0.00    +0.097 C 
BRANCH   3   5
ATOM      4  N   UNL     1       5.815   4.882  -0.028  0.00  0.00    -0.207 N 
ATOM      5  C   UNL     1       7.131   5.171  -0.039  0.00  0.00    +0.232 C 
ATOM      6  O   UNL     1       7.949   4.276  -0.051  0.00  0.00    -0.274 OA
ATOM      7  H   UNL     1       5.161   5.598  -0.018  0.00  0.00    +0.177 HD
BRANCH   4   9
ATOM      8  C   UNL     1       4.113   3.265  -0.020  0.00  0.00    +0.136 C 
ATOM      9  N   UNL     1       5.391   3.546  -0.031  0.00  0.00    -0.188 NA
BRANCH   8  13
ATOM     10  C   UNL     1      -0.017   1.394   0.010  0.00  0.00    +0.001 A 
ATOM     11  C   UNL     1       1.129   2.121   0.003  0.00  0.00    +0.010 A 
ATOM     12  C   UNL     1       2.377   1.460  -0.013  0.00  0.00    +0.004 A 
ATOM     13  C   UNL     1       3.689   1.928  -0.023  0.00  0.00    +0.000 C 
ATOM     14  C   UNL     1       4.561   0.692  -0.038  0.00  0.00    +0.150 C 
ATOM     15  N   UNL     1       3.644  -0.451  -0.035  0.00  0.00    -0.380 N 
ATOM     16  C   UNL     1       2.403  -0.013  -0.021  0.00  0.00    +0.043 A 
ATOM     17  C   UNL     1       1.162  -0.704  -0.012  0.00  0.00    +0.026 A 
ATOM     18  C   UNL     1       0.002  -0.004   0.002  0.00  0.00    +0.002 A 
ATOM     19  H   UNL     1       3.909  -1.384  -0.043  0.00  0.00    +0.160 HD
ENDBRANCH   8  13
ENDBRANCH   4   9
ENDBRANCH   3   5
ENDBRANCH   2   3
ENDBRANCH   1   2
BRANCH   1  20
ATOM     20  C   UNL     1      11.107   8.167  -0.061  0.00  0.00    +0.009 C 
BRANCH  20  21
ATOM     21  C   UNL     1      11.569   9.626  -0.058  0.00  0.00    +0.097 C 
BRANCH  21  22
ATOM     22  C   UNL     1      13.075   9.675  -0.072  0.00  0.00    +0.232 C 
ATOM     23  O   UNL     1      13.716   8.646  -0.084  0.00  0.00    -0.274 OA
ATOM     24  N   UNL     1      13.710  10.864  -0.072  0.00  0.00    -0.207 N 
ATOM     25  H   UNL     1      13.198  11.688  -0.063  0.00  0.00    +0.177 HD
BRANCH  24  26
ATOM     26  N   UNL     1      15.111  10.910  -0.085  0.00  0.00    -0.188 NA
ATOM     27  C   UNL     1      15.728  12.065  -0.085  0.00  0.00    +0.136 C 
BRANCH  27  28
ATOM     28  C   UNL     1      17.129  12.111  -0.098  0.00  0.00    +0.000 C 
ATOM     29  C   UNL     1      17.934  13.247  -0.095  0.00  0.00    +0.004 A 
ATOM     30  C   UNL     1      19.346  12.824  -0.112  0.00  0.00    +0.043 A 
ATOM     31  N   UNL     1      19.432  11.510  -0.126  0.00  0.00    -0.380 N 
ATOM     32  C   UNL     1      18.083  10.937  -0.113  0.00  0.00    +0.150 C 
ATOM     33  C   UNL     1      20.346  13.832  -0.111  0.00  0.00    +0.026 A 
ATOM     34  C   UNL     1      19.987  15.137  -0.094  0.00  0.00    +0.002 A 
ATOM     35  C   UNL     1      18.646  15.534  -0.077  0.00  0.00    +0.001 A 
ATOM     36  C   UNL     1      17.637  14.628  -0.078  0.00  0.00    +0.010 A 
ATOM     37  H   UNL     1      20.258  11.002  -0.139  0.00  0.00    +0.160 HD
ENDBRANCH  27  28
ENDBRANCH  24  26
ENDBRANCH  21  22
ENDBRANCH  20  21
ENDBRANCH   1  20
TORSDOF 10
