REMARK  Name = ZINC39675743
REMARK  9 active torsions:
REMARK  status: ('A' for Active; 'I' for Inactive)
REMARK    1  A    between atoms: C_1  and  C_2
REMARK    2  A    between atoms: C_6  and  C_9
REMARK    3  A    between atoms: C_13  and  C_22
REMARK    4  A    between atoms: N_24  and  C_25
REMARK    5  A    between atoms: C_25  and  C_26
REMARK    6  A    between atoms: C_26  and  C_28
REMARK    7  A    between atoms: C_26  and  N_34
REMARK    8  A    between atoms: N_34  and  C_35
REMARK    9  A    between atoms: N_34  and  C_36
REMARK                            x       y       z     vdW  Elec       q    Type
REMARK                         _______ _______ _______ _____ _____    ______ ____
ROOT
ATOM      1  C   UNL     1      -1.009  -2.496   3.386  0.00  0.00    +0.252 C 
ATOM      2  O   UNL     1       0.054  -2.662   3.952  0.00  0.00    -0.270 OA
ATOM      3  N   UNL     1      -2.126  -3.077   3.866  0.00  0.00    -0.296 N 
ATOM      4  C   UNL     1      -3.500  -2.998   3.316  0.00  0.00    +0.121 C 
ATOM      5  C   UNL     1      -4.074  -4.421   3.492  0.00  0.00    +0.100 C 
ATOM      6  C   UNL     1      -3.257  -5.035   4.642  0.00  0.00    -0.004 C 
ATOM      7  C   UNL     1      -2.257  -3.946   5.060  0.00  0.00    +0.115 C 
ATOM      8  C   UNL     1      -4.171  -5.391   5.809  0.00  0.00    -0.010 C 
ATOM      9  C   UNL     1      -3.345  -6.052   6.916  0.00  0.00    -0.082 C 
ATOM     10  N   UNL     1      -2.697  -7.259   6.391  0.00  0.00    +0.379 N 
ATOM     11  C   UNL     1      -1.749  -6.897   5.330  0.00  0.00    -0.082 C 
ATOM     12  C   UNL     1      -2.508  -6.272   4.156  0.00  0.00    -0.010 C 
ATOM     13  H   UNL     1      -2.203  -7.726   7.137  0.00  0.00    -0.086 HD
ATOM     14  H   UNL     1      -3.399  -7.880   6.016  0.00  0.00    -0.086 HD
ENDROOT
BRANCH   1  20
ATOM     15  C   UNL     1      -1.647   1.974   1.254  0.00  0.00    +0.047 C 
ATOM     16  C   UNL     1      -1.383   0.494   1.141  0.00  0.00    -0.014 A 
ATOM     17  C   UNL     1      -1.203  -0.081  -0.104  0.00  0.00    +0.009 A 
ATOM     18  C   UNL     1      -0.961  -1.437  -0.219  0.00  0.00    +0.039 A 
ATOM     19  C   UNL     1      -0.896  -2.231   0.911  0.00  0.00    +0.138 A 
ATOM     20  C   UNL     1      -1.076  -1.657   2.175  0.00  0.00    +0.107 A 
ATOM     21  C   UNL     1      -1.315  -0.283   2.282  0.00  0.00    +0.141 A 
ATOM     22  F   UNL     1      -1.485   0.282   3.498  0.00  0.00    -0.204 F 
ATOM     23  F   UNL     1      -0.660  -3.556   0.796  0.00  0.00    -0.205 F 
ENDBRANCH   1  20
BRANCH   5  24
ATOM     24  C   UNL     1      -3.889  -5.222   2.229  0.00  0.00    +0.218 C 
ATOM     25  O   UNL     1      -2.966  -4.974   1.484  0.00  0.00    -0.275 OA
ATOM     26  N   UNL     1      -4.751  -6.213   1.927  0.00  0.00    -0.316 N 
ATOM     27  H   UNL     1      -5.490  -6.412   2.523  0.00  0.00    +0.149 HD
BRANCH  26  28
ATOM     28  C   UNL     1      -4.572  -6.991   0.699  0.00  0.00    +0.093 C 
BRANCH  28  29
ATOM     29  C   UNL     1      -5.744  -7.961   0.534  0.00  0.00    -0.021 C 
BRANCH  29  30
ATOM     30  C   UNL     1      -7.019  -7.181   0.346  0.00  0.00    -0.059 A 
ATOM     31  C   UNL     1      -7.331  -6.655  -0.894  0.00  0.00    +0.002 A 
ATOM     32  C   UNL     1      -8.501  -5.939  -1.066  0.00  0.00    +0.000 A 
ATOM     33  C   UNL     1      -9.359  -5.750   0.001  0.00  0.00    +0.000 A 
ATOM     34  C   UNL     1      -9.047  -6.276   1.241  0.00  0.00    +0.000 A 
ATOM     35  C   UNL     1      -7.879  -6.995   1.412  0.00  0.00    +0.002 A 
ENDBRANCH  29  30
BRANCH  29  36
ATOM     36  N   UNL     1      -5.513  -8.813  -0.641  0.00  0.00    +0.382 N 
ATOM     37  C   UNL     1      -4.294  -9.608  -0.437  0.00  0.00    -0.096 C 
ATOM     38  C   UNL     1      -6.659  -9.712  -0.826  0.00  0.00    -0.096 C 
ATOM     39  H   UNL     1      -5.404  -8.233  -1.460  0.00  0.00    -0.082 HD
ENDBRANCH  29  36
ENDBRANCH  28  29
ENDBRANCH  26  28
ENDBRANCH   5  24
TORSDOF 6
