REMARK  Name = ZINC63926273
REMARK  8 active torsions:
REMARK  status: ('A' for Active; 'I' for Inactive)
REMARK    1  A    between atoms: C_1  and  C_2
REMARK    2  A    between atoms: C_5  and  N_11
REMARK    3  A    between atoms: C_7  and  N_8
REMARK    4  A    between atoms: C_12  and  C_14
REMARK    5  A    between atoms: C_14  and  S_15
REMARK    6  A    between atoms: S_15  and  C_16
REMARK    7  A    between atoms: C_19  and  C_28
REMARK    8  A    between atoms: N_20  and  C_21
REMARK                            x       y       z     vdW  Elec       q    Type
REMARK                         _______ _______ _______ _____ _____    ______ ____
ROOT
ATOM      1  C   UNL     1       1.150  -8.259  -3.688  0.00  0.00    +0.197 A 
ATOM      2  N   UNL     1       1.454  -9.058  -2.677  0.00  0.00    -0.122 NA
ATOM      3  N   UNL     1       1.720 -10.239  -3.109  0.00  0.00    -0.128 NA
ATOM      4  C   UNL     1       1.604 -10.270  -4.429  0.00  0.00    +0.168 A 
ATOM      5  N   UNL     1       1.229  -8.998  -4.831  0.00  0.00    -0.270 N 
ENDROOT
BRANCH   4   6
ATOM      6  C   UNL     1       1.815 -11.381  -5.260  0.00  0.00    +0.025 C 
ATOM      7  C   UNL     1       2.181 -12.669  -4.869  0.00  0.00    +0.006 A 
ATOM      8  C   UNL     1       2.442 -13.245  -3.607  0.00  0.00    +0.010 A 
ATOM      9  C   UNL     1       2.785 -14.556  -3.523  0.00  0.00    +0.001 A 
ATOM     10  C   UNL     1       2.890 -15.359  -4.661  0.00  0.00    +0.002 A 
ATOM     11  C   UNL     1       2.654 -14.873  -5.904  0.00  0.00    +0.026 A 
ATOM     12  C   UNL     1       2.289 -13.512  -6.072  0.00  0.00    +0.043 A 
ATOM     13  N   UNL     1       2.012 -12.810  -7.153  0.00  0.00    -0.380 N 
ATOM     14  C   UNL     1       1.686 -11.434  -6.766  0.00  0.00    +0.152 C 
ATOM     15  H   UNL     1       2.019 -13.151  -8.061  0.00  0.00    +0.160 HD
ENDBRANCH   4   6
BRANCH   5  16
ATOM     16  C   UNL     1       0.985  -8.562  -6.140  0.00  0.00    +0.051 A 
ATOM     17  C   UNL     1      -0.085  -9.080  -6.858  0.00  0.00    +0.028 A 
ATOM     18  C   UNL     1      -0.324  -8.649  -8.148  0.00  0.00    +0.022 A 
ATOM     19  C   UNL     1       0.502  -7.701  -8.725  0.00  0.00    +0.041 A 
ATOM     20  C   UNL     1       1.569  -7.183  -8.012  0.00  0.00    +0.022 A 
ATOM     21  C   UNL     1       1.809  -7.607  -6.720  0.00  0.00    +0.028 A 
ATOM     22 CL   UNL     1       0.200  -7.161 -10.347  0.00  0.00    -0.084 Cl
ENDBRANCH   5  16
BRANCH   1  23
ATOM     23  S   UNL     1       0.716  -6.555  -3.577  0.00  0.00    -0.076 S 
BRANCH  23  24
ATOM     24  C   UNL     1       0.800  -6.196  -1.801  0.00  0.00    +0.173 C 
BRANCH  24  26
ATOM     25  N   UNL     1       0.442  -4.255  -0.310  0.00  0.00    -0.285 N 
ATOM     26  C   UNL     1       0.446  -4.750  -1.564  0.00  0.00    +0.227 C 
ATOM     27  O   UNL     1       0.165  -4.033  -2.501  0.00  0.00    -0.275 OA
ATOM     28  H   UNL     1       0.601  -4.843   0.444  0.00  0.00    +0.155 HD
BRANCH  25  33
ATOM     29  C   UNL     1      -0.508   1.272   0.552  0.00  0.00    +0.046 C 
ATOM     30  C   UNL     1      -0.256  -0.196   0.323  0.00  0.00    -0.020 A 
ATOM     31  C   UNL     1      -0.900  -0.854  -0.710  0.00  0.00    +0.007 A 
ATOM     32  C   UNL     1      -0.670  -2.199  -0.922  0.00  0.00    +0.024 A 
ATOM     33  C   UNL     1       0.207  -2.892  -0.098  0.00  0.00    +0.036 A 
ATOM     34  C   UNL     1       0.852  -2.228   0.938  0.00  0.00    +0.056 A 
ATOM     35  C   UNL     1       0.622  -0.881   1.142  0.00  0.00    +0.131 A 
BRANCH  35  36
ATOM     36  N   UNL     1       1.313  -0.172   2.242  0.00  0.00    +0.057 N 
ATOM     37  O   UNL     1       1.692   0.965   2.084  0.00  0.00    -0.126 OA
ATOM     38  O   UNL     1       1.499  -0.730   3.298  0.00  0.00    -0.126 OA
ENDBRANCH  35  36
ENDBRANCH  25  33
ENDBRANCH  24  26
ENDBRANCH  23  24
ENDBRANCH   1  23
TORSDOF 7
