REMARK  Name = ZINC16862044
REMARK  9 active torsions:
REMARK  status: ('A' for Active; 'I' for Inactive)
REMARK    1  A    between atoms: C_1  and  C_2
REMARK    2  A    between atoms: C_2  and  C_4
REMARK    3  A    between atoms: C_2  and  O_18
REMARK    4  A    between atoms: N_6  and  C_7
REMARK    5  A    between atoms: C_12  and  C_13
REMARK    6  A    between atoms: O_18  and  C_19
REMARK    7  A    between atoms: C_19  and  C_21
REMARK    8  A    between atoms: C_23  and  N_28
REMARK    9  A    between atoms: C_26  and  N_27
REMARK                            x       y       z     vdW  Elec       q    Type
REMARK                         _______ _______ _______ _____ _____    ______ ____
ROOT
ATOM      1  C   UNL     1       0.340   1.599  -0.061  0.00  0.00    +0.062 C 
ATOM      2  C   UNL     1       0.334   0.069  -0.066  0.00  0.00    +0.259 C 
ENDROOT
BRANCH   2   3
ATOM      3  C   UNL     1      -1.088  -0.428  -0.068  0.00  0.00    +0.258 C 
ATOM      4  O   UNL     1      -1.514  -1.051   0.882  0.00  0.00    -0.271 OA
ATOM      5  N   UNL     1      -1.887  -0.182  -1.125  0.00  0.00    -0.282 N 
ATOM      6  H   UNL     1      -1.573   0.384  -1.849  0.00  0.00    +0.155 HD
BRANCH   5   7
ATOM      7  C   UNL     1      -3.169  -0.741  -1.180  0.00  0.00    +0.045 A 
ATOM      8  C   UNL     1      -3.449  -1.907  -0.479  0.00  0.00    +0.025 A 
ATOM      9  C   UNL     1      -4.715  -2.457  -0.534  0.00  0.00    +0.022 A 
ATOM     10  C   UNL     1      -5.703  -1.847  -1.288  0.00  0.00    +0.042 A 
ATOM     11  C   UNL     1      -5.426  -0.686  -1.987  0.00  0.00    +0.034 A 
ATOM     12  C   UNL     1      -4.163  -0.129  -1.930  0.00  0.00    +0.077 A 
ATOM     13 CL   UNL     1      -7.293  -2.542  -1.356  0.00  0.00    -0.084 Cl
BRANCH  12  14
ATOM     14  C   UNL     1      -3.864   1.140  -2.687  0.00  0.00    +0.419 C 
ATOM     15  F   UNL     1      -5.014   1.562  -3.362  0.00  0.00    -0.166 F 
ATOM     16  F   UNL     1      -3.458   2.133  -1.790  0.00  0.00    -0.166 F 
ATOM     17  F   UNL     1      -2.842   0.900  -3.612  0.00  0.00    -0.166 F 
ENDBRANCH  12  14
ENDBRANCH   5   7
ENDBRANCH   2   3
BRANCH   2  18
ATOM     18  O   UNL     1       1.006  -0.414   1.099  0.00  0.00    -0.449 OA
BRANCH  18  19
ATOM     19  C   UNL     1       2.334  -0.622   0.998  0.00  0.00    +0.342 C 
ATOM     20  O   UNL     1       2.905  -0.400  -0.051  0.00  0.00    -0.245 OA
BRANCH  19  21
ATOM     21  C   UNL     1       3.092  -1.119   2.159  0.00  0.00    +0.082 A 
ATOM     22  C   UNL     1       2.424  -1.478   3.334  0.00  0.00    +0.049 A 
ATOM     23  C   UNL     1       3.139  -1.942   4.416  0.00  0.00    +0.127 A 
ATOM     24  C   UNL     1       4.519  -2.055   4.347  0.00  0.00    +0.034 A 
ATOM     25  C   UNL     1       5.193  -1.705   3.196  0.00  0.00    +0.026 A 
ATOM     26  C   UNL     1       4.489  -1.241   2.091  0.00  0.00    +0.039 A 
BRANCH  26  27
ATOM     27  N   UNL     1       5.164  -0.893   0.929  0.00  0.00    -0.357 N 
ATOM     28  H   UNL     1       4.666  -0.637   0.137  0.00  0.00    +0.142 HD
ATOM     29  H   UNL     1       6.134  -0.907   0.909  0.00  0.00    +0.142 HD
ENDBRANCH  26  27
BRANCH  23  30
ATOM     30  N   UNL     1       2.430  -2.321   5.659  0.00  0.00    +0.056 N 
ATOM     31  O   UNL     1       1.227  -2.223   5.722  0.00  0.00    -0.126 OA
ATOM     32  O   UNL     1       3.054  -2.729   6.610  0.00  0.00    -0.126 OA
ENDBRANCH  23  30
ENDBRANCH  19  21
ENDBRANCH  18  19
ENDBRANCH   2  18
TORSDOF 8
