REMARK  Name = ZINC08705952
REMARK  5 active torsions:
REMARK  status: ('A' for Active; 'I' for Inactive)
REMARK    1  A    between atoms: C_4  and  C_7
REMARK    2  A    between atoms: C_7  and  N_8
REMARK    3  A    between atoms: C_10  and  C_15
REMARK    4  A    between atoms: N_17  and  N_18
REMARK    5  A    between atoms: N_18  and  C_19
REMARK                            x       y       z     vdW  Elec       q    Type
REMARK                         _______ _______ _______ _____ _____    ______ ____
ROOT
ATOM      1  C   UNL     1       1.145   1.642   0.112  0.00  0.00    +0.234 C 
ATOM      2  O   UNL     1       1.139   2.852   0.021  0.00  0.00    -0.274 OA
ATOM      3  N   UNL     1      -0.018   0.961   0.120  0.00  0.00    -0.236 N 
ATOM      4  H   UNL     1      -0.013  -0.006   0.192  0.00  0.00    +0.173 HD
ENDROOT
BRANCH   1   7
ATOM      5  N   UNL     1       4.639   1.316   1.111  0.00  0.00    -0.296 N 
ATOM      6  C   UNL     1       3.647   1.881   0.188  0.00  0.00    +0.121 C 
ATOM      7  C   UNL     1       2.453   0.901   0.217  0.00  0.00    +0.102 C 
ATOM      8  C   UNL     1       2.611   0.252   1.611  0.00  0.00    +0.110 C 
ATOM      9  C   UNL     1       4.083   0.402   1.926  0.00  0.00    +0.217 C 
ATOM     10  O   UNL     1       4.676  -0.212   2.787  0.00  0.00    -0.276 OA
BRANCH   5  11
ATOM     11  C   UNL     1       6.053   1.698   1.140  0.00  0.00    +0.142 C 
BRANCH  11  15
ATOM     12  C   UNL     1       6.589   4.965   3.841  0.00  0.00    +0.000 A 
ATOM     13  C   UNL     1       6.692   3.665   4.299  0.00  0.00    +0.000 A 
ATOM     14  C   UNL     1       6.518   2.608   3.425  0.00  0.00    +0.005 A 
ATOM     15  C   UNL     1       6.242   2.851   2.093  0.00  0.00    -0.030 A 
ATOM     16  C   UNL     1       6.144   4.151   1.633  0.00  0.00    +0.005 A 
ATOM     17  C   UNL     1       6.312   5.208   2.508  0.00  0.00    +0.000 A 
ENDBRANCH  11  15
ENDBRANCH   5  11
ENDBRANCH   1   7
BRANCH   3  18
ATOM     18  N   UNL     1      -1.234   1.650   0.017  0.00  0.00    -0.259 N 
ATOM     19  H   UNL     1      -1.243   2.620   0.018  0.00  0.00    +0.170 HD
BRANCH  18  20
ATOM     20  C   UNL     1      -2.436   0.937  -0.087  0.00  0.00    +0.121 A 
ATOM     21  C   UNL     1      -2.478  -0.258  -0.795  0.00  0.00    +0.186 A 
ATOM     22  C   UNL     1      -3.666  -0.963  -0.893  0.00  0.00    +0.198 A 
ATOM     23  C   UNL     1      -4.815  -0.472  -0.294  0.00  0.00    +0.199 A 
ATOM     24  C   UNL     1      -4.777   0.722   0.409  0.00  0.00    +0.198 A 
ATOM     25  C   UNL     1      -3.589   1.427   0.513  0.00  0.00    +0.186 A 
ATOM     26  F   UNL     1      -3.553   2.592   1.198  0.00  0.00    -0.200 F 
ATOM     27  F   UNL     1      -5.899   1.199   0.992  0.00  0.00    -0.199 F 
ATOM     28  F   UNL     1      -5.974  -1.159  -0.394  0.00  0.00    -0.199 F 
ATOM     29  F   UNL     1      -3.705  -2.127  -1.577  0.00  0.00    -0.199 F 
ATOM     30  F   UNL     1      -1.359  -0.733  -1.384  0.00  0.00    -0.200 F 
ENDBRANCH  18  20
ENDBRANCH   3  18
TORSDOF 5
