REMARK  Name = ZINC12242671
REMARK  10 active torsions:
REMARK  status: ('A' for Active; 'I' for Inactive)
REMARK    1  A    between atoms: C_4  and  C_7
REMARK    2  A    between atoms: C_7  and  N_64
REMARK    3  A    between atoms: C_8  and  C_9
REMARK    4  A    between atoms: C_8  and  N_64
REMARK    5  A    between atoms: C_9  and  O_10
REMARK    6  A    between atoms: C_11  and  N_64
REMARK    7  A    between atoms: N_14  and  C_17
REMARK    8  A    between atoms: C_21  and  N_23
REMARK    9  A    between atoms: N_23  and  S_24
REMARK   10  A    between atoms: S_24  and  C_27
REMARK                            x       y       z     vdW  Elec       q    Type
REMARK                         _______ _______ _______ _____ _____    ______ ____
ROOT
ATOM      1  C   UNL     1      -3.497   4.238   1.482  0.00  0.00    -0.065 C 
ATOM      2  C   UNL     1      -3.180   4.855   0.117  0.00  0.00    +0.004 C 
ATOM      3  C   UNL     1      -1.970   4.142  -0.491  0.00  0.00    +0.103 C 
ATOM      4  N   UNL     1      -2.265   2.711  -0.636  0.00  0.00    -0.330 N 
ATOM      5  C   UNL     1      -2.526   2.087   0.667  0.00  0.00    +0.103 C 
ATOM      6  C   UNL     1      -3.753   2.739   1.309  0.00  0.00    +0.004 C 
ENDROOT
BRANCH   4   7
ATOM      7  C   UNL     1      -1.233   2.052  -1.309  0.00  0.00    +0.031 A 
ATOM      8  C   UNL     1      -0.121   2.764  -1.743  0.00  0.00    +0.023 A 
ATOM      9  C   UNL     1       0.898   2.115  -2.413  0.00  0.00    +0.004 A 
ATOM     10  C   UNL     1       0.815   0.756  -2.654  0.00  0.00    +0.024 A 
ATOM     11  C   UNL     1      -0.294   0.039  -2.222  0.00  0.00    +0.050 A 
ATOM     12  C   UNL     1      -1.319   0.689  -1.549  0.00  0.00    +0.047 A 
BRANCH  11  13
ATOM     13  N   UNL     1      -0.377  -1.333  -2.466  0.00  0.00    -0.216 N 
ATOM     14  H   UNL     1      -0.662  -1.935  -1.760  0.00  0.00    +0.174 HD
BRANCH  13  15
ATOM     15  S   UNL     1       0.010  -1.934  -3.960  0.00  0.00    +0.072 S 
ATOM     16  O   UNL     1       1.293  -1.418  -4.285  0.00  0.00    -0.150 OA
ATOM     17  O   UNL     1      -0.264  -3.328  -3.921  0.00  0.00    -0.150 OA
BRANCH  15  18
ATOM     18  C   UNL     1      -1.122  -1.231  -5.113  0.00  0.00    +0.109 A 
ATOM     19  C   UNL     1      -2.357  -1.818  -5.314  0.00  0.00    +0.031 A 
ATOM     20  C   UNL     1      -3.248  -1.265  -6.214  0.00  0.00    +0.040 A 
ATOM     21  C   UNL     1      -2.898  -0.128  -6.924  0.00  0.00    +0.124 A 
ATOM     22  C   UNL     1      -1.658   0.456  -6.726  0.00  0.00    +0.040 A 
ATOM     23  C   UNL     1      -0.772  -0.096  -5.821  0.00  0.00    +0.031 A 
ATOM     24  F   UNL     1      -3.766   0.411  -7.808  0.00  0.00    -0.205 F 
ENDBRANCH  15  18
ENDBRANCH  13  15
ENDBRANCH  11  13
ENDBRANCH   4   7
BRANCH   1  25
ATOM     25  N   UNL     1      -4.715   4.874   2.027  0.00  0.00    +0.386 N 
ATOM     26  H   UNL     1      -5.501   4.687   1.393  0.00  0.00    -0.081 HD
BRANCH  25  27
ATOM     27  C   UNL     1      -5.027   4.311   3.357  0.00  0.00    -0.043 C 
BRANCH  27  31
ATOM     28  C   UNL     1      -1.834   5.070   6.092  0.00  0.00    +0.000 A 
ATOM     29  C   UNL     1      -2.891   5.956   6.001  0.00  0.00    +0.000 A 
ATOM     30  C   UNL     1      -3.924   5.710   5.116  0.00  0.00    +0.002 A 
ATOM     31  C   UNL     1      -3.900   4.579   4.322  0.00  0.00    -0.064 A 
ATOM     32  C   UNL     1      -2.845   3.690   4.417  0.00  0.00    +0.002 A 
ATOM     33  C   UNL     1      -1.810   3.938   5.298  0.00  0.00    +0.000 A 
ENDBRANCH  27  31
ENDBRANCH  25  27
BRANCH  25  34
ATOM     34  C   UNL     1      -4.519   6.335   2.130  0.00  0.00    -0.050 C 
BRANCH  34  35
ATOM     35  C   UNL     1      -5.886   7.003   2.294  0.00  0.00    +0.137 C 
BRANCH  35  36
ATOM     36  O   UNL     1      -6.437   6.654   3.566  0.00  0.00    -0.397 OA
ATOM     37  H   UNL     1      -7.336   6.980   3.708  0.00  0.00    +0.209 HD
ENDBRANCH  35  36
ENDBRANCH  34  35
ENDBRANCH  25  34
ENDBRANCH   1  25
TORSDOF 10
