REMARK  Name = ZINC29566184
REMARK  11 active torsions:
REMARK  status: ('A' for Active; 'I' for Inactive)
REMARK    1  A    between atoms: C_1  and  C_2
REMARK    2  A    between atoms: C_3  and  N_11
REMARK    3  A    between atoms: C_7  and  N_8
REMARK    4  A    between atoms: C_12  and  C_14
REMARK    5  A    between atoms: C_14  and  C_16
REMARK    6  A    between atoms: C_14  and  N_17
REMARK    7  A    between atoms: N_17  and  C_18
REMARK    8  A    between atoms: C_21  and  N_24
REMARK    9  A    between atoms: C_25  and  C_27
REMARK   10  A    between atoms: C_27  and  C_28
REMARK   11  A    between atoms: C_27  and  C_29
REMARK                            x       y       z     vdW  Elec       q    Type
REMARK                         _______ _______ _______ _____ _____    ______ ____
ROOT
ATOM      1  C   UNL     1       0.175   8.420   0.423  0.00  0.00    +0.154 C 
ATOM      2  C   UNL     1       0.612   8.657  -1.024  0.00  0.00    +0.038 C 
ENDROOT
BRANCH   1   4
ATOM      3  N   UNL     1       1.108  10.559   1.243  0.00  0.00    -0.284 N 
ATOM      4  C   UNL     1       0.041   9.743   1.131  0.00  0.00    +0.237 C 
ATOM      5  O   UNL     1      -1.027  10.075   1.600  0.00  0.00    -0.273 OA
ATOM      6  H   UNL     1       2.057  10.294   0.752  0.00  0.00    +0.155 HD
BRANCH   3   9
ATOM      7  C   UNL     1       3.390  11.421   2.709  0.00  0.00    +0.048 C 
ATOM      8  C   UNL     1       2.099  12.200   2.712  0.00  0.00    +0.001 A 
ATOM      9  C   UNL     1       1.010  11.742   1.982  0.00  0.00    +0.039 A 
ATOM     10  C   UNL     1      -0.179  12.460   1.993  0.00  0.00    +0.024 A 
ATOM     11  C   UNL     1      -0.273  13.628   2.724  0.00  0.00    +0.004 A 
ATOM     12  C   UNL     1       0.815  14.083   3.445  0.00  0.00    +0.033 A 
ATOM     13  C   UNL     1       2.001  13.371   3.437  0.00  0.00    +0.131 A 
BRANCH  13  14
ATOM     14  N   UNL     1       3.163  13.862   4.211  0.00  0.00    +0.057 N 
ATOM     15  O   UNL     1       2.992  14.420   5.280  0.00  0.00    -0.126 OA
ATOM     16  O   UNL     1       4.292  13.708   3.778  0.00  0.00    -0.126 OA
ENDBRANCH  13  14
ENDBRANCH   3   9
ENDBRANCH   1   4
BRANCH   1  17
ATOM     17  N   UNL     1      -1.115   7.726   0.436  0.00  0.00    -0.333 N 
ATOM     18  H   UNL     1      -2.048   8.302   0.525  0.00  0.00    +0.147 HD
BRANCH  17  19
ATOM     19  C   UNL     1      -1.161   6.332   0.335  0.00  0.00    +0.028 A 
ATOM     20  C   UNL     1      -2.384   5.674   0.347  0.00  0.00    +0.025 A 
ATOM     21  C   UNL     1      -2.429   4.298   0.248  0.00  0.00    +0.025 A 
ATOM     22  C   UNL     1      -1.252   3.571   0.136  0.00  0.00    +0.034 A 
ATOM     23  C   UNL     1      -0.028   4.228   0.129  0.00  0.00    +0.025 A 
ATOM     24  C   UNL     1       0.017   5.604   0.223  0.00  0.00    +0.025 A 
BRANCH  22  25
ATOM     25  N   UNL     1      -1.297   2.174   0.035  0.00  0.00    -0.285 N 
ATOM     26  C   UNL     1      -0.297   1.509  -0.577  0.00  0.00    +0.220 C 
ATOM     27  O   UNL     1       0.587   2.124  -1.136  0.00  0.00    -0.275 OA
ATOM     28  H   UNL     1      -2.149   1.620   0.456  0.00  0.00    +0.155 HD
BRANCH  26  29
ATOM     29  C   UNL     1      -0.281   0.002  -0.573  0.00  0.00    +0.069 C 
ATOM     30  C   UNL     1       0.948  -0.496  -1.336  0.00  0.00    +0.017 C 
ATOM     31  C   UNL     1      -0.224  -0.503   0.871  0.00  0.00    +0.017 C 
ENDBRANCH  26  29
ENDBRANCH  22  25
ENDBRANCH  17  19
ENDBRANCH   1  17
TORSDOF 7
