REMARK  Name = ZINC59466660
REMARK  7 active torsions:
REMARK  status: ('A' for Active; 'I' for Inactive)
REMARK    1  A    between atoms: C_1  and  C_2
REMARK    2  A    between atoms: C_2  and  C_3
REMARK    3  A    between atoms: C_3  and  C_4
REMARK    4  A    between atoms: C_4  and  N_5
REMARK    5  A    between atoms: N_8  and  S_9
REMARK    6  A    between atoms: S_9  and  C_12
REMARK    7  A    between atoms: C_15  and  N_18
REMARK                            x       y       z     vdW  Elec       q    Type
REMARK                         _______ _______ _______ _____ _____    ______ ____
ROOT
ATOM      1  C   UNL     1       3.243  -6.048   5.497  0.00  0.00    +0.113 A 
ATOM      2  C   UNL     1       4.561  -6.468   5.427  0.00  0.00    +0.031 A 
ATOM      3  C   UNL     1       5.290  -6.656   6.582  0.00  0.00    +0.029 A 
ATOM      4  C   UNL     1       4.694  -6.421   7.827  0.00  0.00    +0.065 A 
ATOM      5  C   UNL     1       3.361  -5.996   7.888  0.00  0.00    +0.029 A 
ATOM      6  C   UNL     1       2.648  -5.808   6.723  0.00  0.00    +0.031 A 
ENDROOT
BRANCH   4   7
ATOM      7  N   UNL     1       5.406  -6.605   8.971  0.00  0.00    -0.242 NA
ATOM      8  C   UNL     1       5.013  -7.492   9.853  0.00  0.00    +0.135 C 
ATOM      9  C   UNL     1       3.920  -8.479   9.712  0.00  0.00    +0.027 A 
ATOM     10  C   UNL     1       3.024  -8.768   8.687  0.00  0.00    +0.012 A 
ATOM     11  C   UNL     1       2.094  -9.774   8.855  0.00  0.00    +0.001 A 
ATOM     12  C   UNL     1       2.053 -10.491  10.039  0.00  0.00    +0.002 A 
ATOM     13  C   UNL     1       2.937 -10.211  11.062  0.00  0.00    +0.024 A 
ATOM     14  C   UNL     1       3.882  -9.203  10.912  0.00  0.00    +0.043 A 
ATOM     15  N   UNL     1       4.870  -8.729  11.770  0.00  0.00    -0.280 N 
ATOM     16  C   UNL     1       5.571  -7.730  11.208  0.00  0.00    +0.267 C 
ATOM     17  O   UNL     1       6.495  -7.128  11.719  0.00  0.00    -0.268 OA
ATOM     18  H   UNL     1       5.033  -9.078  12.661  0.00  0.00    +0.155 HD
ENDBRANCH   4   7
BRANCH   1  19
ATOM     19  S   UNL     1       2.321  -5.810   4.014  0.00  0.00    +0.103 S 
ATOM     20  O   UNL     1       0.949  -5.934   4.365  0.00  0.00    -0.146 OA
ATOM     21  O   UNL     1       2.930  -6.624   3.022  0.00  0.00    -0.146 OA
BRANCH  19  25
ATOM     22  N   UNL     1       2.161  -2.490   2.074  0.00  0.00    -0.295 N 
ATOM     23  C   UNL     1       1.972  -3.793   2.465  0.00  0.00    +0.351 C 
ATOM     24  O   UNL     1       1.188  -4.612   1.730  0.00  0.00    -0.246 OA
ATOM     25  N   UNL     1       2.548  -4.239   3.543  0.00  0.00    -0.072 NA
ATOM     26  H   UNL     1       2.723  -1.902   2.602  0.00  0.00    +0.151 HD
BRANCH  22  27
ATOM     27  C   UNL     1       1.512  -1.988   0.860  0.00  0.00    +0.106 C 
BRANCH  27  28
ATOM     28  C   UNL     1       1.884  -0.518   0.653  0.00  0.00    +0.018 C 
BRANCH  28  30
ATOM     29  C   UNL     1       1.578   1.475  -0.821  0.00  0.00    +0.004 C 
ATOM     30  C   UNL     1       1.206   0.006  -0.614  0.00  0.00    -0.002 C 
ENDBRANCH  28  30
ENDBRANCH  27  28
ENDBRANCH  22  27
ENDBRANCH  19  25
ENDBRANCH   1  19
TORSDOF 6
