REMARK  Name = ZINC13566771
REMARK  7 active torsions:
REMARK  status: ('A' for Active; 'I' for Inactive)
REMARK    1  A    between atoms: C_1  and  C_2
REMARK    2  A    between atoms: C_5  and  N_9
REMARK    3  A    between atoms: C_13  and  N_14
REMARK    4  A    between atoms: N_14  and  C_15
REMARK    5  A    between atoms: C_18  and  S_21
REMARK    6  A    between atoms: S_21  and  N_24
REMARK    7  A    between atoms: C_25  and  C_27
REMARK                            x       y       z     vdW  Elec       q    Type
REMARK                         _______ _______ _______ _____ _____    ______ ____
ROOT
ATOM      1  N   UNL     1       0.002  -0.004   0.002  0.00  0.00    -0.156 N 
ATOM      2  C   UNL     1       1.274  -0.450  -0.013  0.00  0.00    +0.273 C 
ATOM      3  O   UNL     1       1.644  -1.612  -0.022  0.00  0.00    -0.268 OA
ATOM      4  C   UNL     1       2.124   0.747  -0.014  0.00  0.00    +0.075 C 
ATOM      5  C   UNL     1       3.508   0.799  -0.028  0.00  0.00    +0.087 C 
ATOM      6  C   UNL     1       1.186   1.879   0.001  0.00  0.00    +0.070 C 
ATOM      7  N   UNL     1      -0.017   1.390   0.010  0.00  0.00    -0.176 NA
ATOM      8  C   UNL     1       1.553   3.340   0.005  0.00  0.00    +0.068 C 
ENDROOT
BRANCH   1  13
ATOM      9  C   UNL     1      -4.606  -3.316   0.027  0.00  0.00    +0.045 C 
ATOM     10  C   UNL     1      -3.382  -2.437   0.021  0.00  0.00    -0.032 A 
ATOM     11  C   UNL     1      -3.521  -1.061   0.030  0.00  0.00    +0.006 A 
ATOM     12  C   UNL     1      -2.402  -0.252   0.024  0.00  0.00    +0.026 A 
ATOM     13  C   UNL     1      -1.135  -0.822   0.009  0.00  0.00    +0.062 A 
ATOM     14  C   UNL     1      -0.998  -2.203  -0.005  0.00  0.00    +0.045 A 
ATOM     15  C   UNL     1      -2.122  -3.008   0.006  0.00  0.00    +0.046 A 
ATOM     16 CL   UNL     1      -1.952  -4.736  -0.005  0.00  0.00    -0.083 Cl
ENDBRANCH   1  13
BRANCH   5  17
ATOM     17  N   UNL     1       4.226  -0.344  -0.041  0.00  0.00    -0.320 N 
ATOM     18  H   UNL     1       3.773  -1.201  -0.041  0.00  0.00    +0.152 HD
BRANCH  17  19
ATOM     19  C   UNL     1       5.623  -0.291  -0.054  0.00  0.00    +0.031 A 
ATOM     20  C   UNL     1       6.273   0.936  -0.060  0.00  0.00    +0.025 A 
ATOM     21  C   UNL     1       7.653   0.985  -0.068  0.00  0.00    +0.030 A 
ATOM     22  C   UNL     1       8.388  -0.187  -0.081  0.00  0.00    +0.105 A 
ATOM     23  C   UNL     1       7.743  -1.411  -0.081  0.00  0.00    +0.030 A 
ATOM     24  C   UNL     1       6.363  -1.466  -0.067  0.00  0.00    +0.025 A 
BRANCH  22  25
ATOM     25  S   UNL     1      10.148  -0.121  -0.098  0.00  0.00    +0.056 S 
ATOM     26  O   UNL     1      10.513   1.136   0.456  0.00  0.00    -0.153 OA
ATOM     27  O   UNL     1      10.606  -1.353   0.443  0.00  0.00    -0.153 OA
BRANCH  25  28
ATOM     28  N   UNL     1      10.622  -0.095  -1.684  0.00  0.00    -0.204 NA
ATOM     29  H   UNL     1      11.442   0.357  -1.938  0.00  0.00    +0.144 HD
ATOM     30  H   UNL     1      10.080  -0.532  -2.360  0.00  0.00    +0.144 HD
ENDBRANCH  25  28
ENDBRANCH  22  25
ENDBRANCH  17  19
ENDBRANCH   5  17
TORSDOF 5
