REMARK  Name = ZINC12993065
REMARK  5 active torsions:
REMARK  status: ('A' for Active; 'I' for Inactive)
REMARK    1  A    between atoms: C_6  and  N_7
REMARK    2  A    between atoms: C_8  and  C_10
REMARK    3  A    between atoms: C_15  and  C_16
REMARK    4  A    between atoms: C_15  and  N_54
REMARK    5  A    between atoms: N_18  and  C_19
REMARK                            x       y       z     vdW  Elec       q    Type
REMARK                         _______ _______ _______ _____ _____    ______ ____
ROOT
ATOM      1  C   UNL     1      -0.944   2.832   3.800  0.00  0.00    +0.072 C 
ATOM      2  C   UNL     1      -0.996   1.311   3.636  0.00  0.00    -0.006 C 
ATOM      3  C   UNL     1      -0.156   0.904   2.423  0.00  0.00    -0.077 C 
ATOM      4  C   UNL     1      -0.598   3.024   1.335  0.00  0.00    -0.077 C 
ATOM      5  C   UNL     1      -1.451   3.494   2.516  0.00  0.00    -0.006 C 
ATOM      6  N   UNL     1      -0.710   1.555   1.217  0.00  0.00    +0.385 N 
ATOM      7  H   UNL     1      -1.701   1.303   1.128  0.00  0.00    -0.081 HD
ENDROOT
BRANCH   1   9
ATOM      8  N   UNL     1      -1.926   4.546   5.290  0.00  0.00    -0.285 N 
ATOM      9  C   UNL     1      -1.818   3.244   4.957  0.00  0.00    +0.220 C 
ATOM     10  O   UNL     1      -2.423   2.404   5.589  0.00  0.00    -0.275 OA
ATOM     11  H   UNL     1      -1.391   5.210   4.828  0.00  0.00    +0.155 HD
BRANCH   8  17
ATOM     12  C   UNL     1      -3.017   4.118   7.402  0.00  0.00    +0.027 A 
ATOM     13  C   UNL     1      -3.890   4.505   8.401  0.00  0.00    +0.051 A 
ATOM     14  C   UNL     1      -4.563   5.712   8.307  0.00  0.00    +0.166 A 
ATOM     15  C   UNL     1      -4.360   6.538   7.204  0.00  0.00    +0.168 A 
ATOM     16  C   UNL     1      -3.481   6.152   6.206  0.00  0.00    +0.072 A 
ATOM     17  C   UNL     1      -2.812   4.939   6.301  0.00  0.00    +0.037 A 
ATOM     18  O   UNL     1      -5.130   7.656   7.348  0.00  0.00    -0.453 OA
ATOM     19  C   UNL     1      -5.493   7.696   8.740  0.00  0.00    +0.466 C 
ATOM     20  O   UNL     1      -5.461   6.314   9.143  0.00  0.00    -0.453 OA
ENDBRANCH   8  17
ENDBRANCH   1   9
BRANCH   6  21
ATOM     21  C   UNL     1       0.013   1.089   0.016  0.00  0.00    +0.019 C 
BRANCH  21  22
ATOM     22  C   UNL     1      -0.706   1.592  -1.209  0.00  0.00    +0.197 C 
ATOM     23  O   UNL     1      -1.699   2.278  -1.091  0.00  0.00    -0.278 OA
ATOM     24  N   UNL     1      -0.245   1.280  -2.437  0.00  0.00    -0.312 N 
ATOM     25  H   UNL     1       0.549   0.732  -2.532  0.00  0.00    +0.149 HD
BRANCH  24  26
ATOM     26  C   UNL     1      -0.944   1.769  -3.628  0.00  0.00    +0.095 C 
ATOM     27  C   UNL     1      -0.442   3.182  -3.970  0.00  0.00    +0.046 C 
ATOM     28  C   UNL     1      -0.957   3.548  -5.392  0.00  0.00    +0.168 C 
ATOM     29  S   UNL     1      -0.707   1.943  -6.263  0.00  0.00    -0.029 S 
ATOM     30  O   UNL     1       0.573   1.946  -6.878  0.00  0.00    -0.174 OA
ATOM     31  O   UNL     1      -1.859   1.657  -7.044  0.00  0.00    -0.174 OA
ATOM     32  C   UNL     1      -0.672   0.812  -4.813  0.00  0.00    +0.188 C 
ENDBRANCH  24  26
ENDBRANCH  21  22
ENDBRANCH   6  21
TORSDOF 5
