REMARK  Name = ZINC39535859
REMARK  6 active torsions:
REMARK  status: ('A' for Active; 'I' for Inactive)
REMARK    1  A    between atoms: C_6  and  C_7
REMARK    2  A    between atoms: N_9  and  N_10
REMARK    3  A    between atoms: C_11  and  C_13
REMARK    4  A    between atoms: C_15  and  S_21
REMARK    5  A    between atoms: S_21  and  N_24
REMARK    6  A    between atoms: N_24  and  C_25
REMARK                            x       y       z     vdW  Elec       q    Type
REMARK                         _______ _______ _______ _____ _____    ______ ____
ROOT
ATOM      1  N   UNL     1      -3.022  -1.556  -0.215  0.00  0.00    -0.230 N 
ATOM      2  C   UNL     1      -4.078  -0.723  -0.139  0.00  0.00    +0.262 C 
ATOM      3  O   UNL     1      -3.905   0.480  -0.143  0.00  0.00    -0.269 OA
ATOM      4  H   UNL     1      -3.160  -2.516  -0.212  0.00  0.00    +0.173 HD
ENDROOT
BRANCH   2   5
ATOM      5  C   UNL     1      -5.447  -1.272  -0.050  0.00  0.00    +0.058 A 
ATOM      6  C   UNL     1      -5.649  -2.654  -0.039  0.00  0.00    +0.044 A 
ATOM      7  C   UNL     1      -6.928  -3.160   0.045  0.00  0.00    +0.124 A 
ATOM      8  C   UNL     1      -8.013  -2.301   0.118  0.00  0.00    +0.069 A 
ATOM      9  C   UNL     1      -7.821  -0.931   0.108  0.00  0.00    +0.042 A 
ATOM     10  C   UNL     1      -6.544  -0.411   0.030  0.00  0.00    +0.055 A 
ATOM     11 CL   UNL     1      -6.304   1.309   0.023  0.00  0.00    -0.083 Cl
ATOM     12 CL   UNL     1      -9.621  -2.948   0.223  0.00  0.00    -0.081 Cl
BRANCH   7  13
ATOM     13  S   UNL     1      -7.184  -4.903   0.058  0.00  0.00    +0.060 S 
ATOM     14  O   UNL     1      -5.903  -5.503  -0.076  0.00  0.00    -0.153 OA
ATOM     15  O   UNL     1      -8.043  -5.179   1.156  0.00  0.00    -0.153 OA
BRANCH  13  16
ATOM     16  N   UNL     1      -8.031  -5.284  -1.313  0.00  0.00    -0.187 NA
ATOM     17  H   UNL     1      -8.928  -5.645  -1.244  0.00  0.00    +0.148 HD
BRANCH  16  18
ATOM     18  C   UNL     1      -7.424  -5.077  -2.630  0.00  0.00    +0.077 C 
ATOM     19  C   UNL     1      -8.350  -4.675  -3.779  0.00  0.00    +0.022 C 
ATOM     20  C   UNL     1      -7.760  -6.086  -3.730  0.00  0.00    +0.022 C 
ENDBRANCH  16  18
ENDBRANCH  13  16
ENDBRANCH   7  13
ENDBRANCH   2   5
BRANCH   1  23
ATOM     21  C   UNL     1      -0.667  -1.869  -0.377  0.00  0.00    +0.260 C 
ATOM     22  O   UNL     1      -0.840  -3.072  -0.372  0.00  0.00    -0.269 OA
ATOM     23  N   UNL     1      -1.724  -1.036  -0.300  0.00  0.00    -0.230 N 
ATOM     24  H   UNL     1      -1.585  -0.075  -0.303  0.00  0.00    +0.173 HD
BRANCH  21  30
ATOM     25  C   UNL     1       0.902   0.062  -0.471  0.00  0.00    +0.017 A 
ATOM     26  C   UNL     1       2.179   0.571  -0.555  0.00  0.00    +0.050 A 
ATOM     27  C   UNL     1       3.271  -0.286  -0.634  0.00  0.00    +0.162 A 
ATOM     28  C   UNL     1       3.077  -1.665  -0.627  0.00  0.00    +0.163 A 
ATOM     29  C   UNL     1       1.797  -2.182  -0.544  0.00  0.00    +0.062 A 
ATOM     30  C   UNL     1       0.700  -1.320  -0.466  0.00  0.00    +0.042 A 
ATOM     31  O   UNL     1       4.136  -2.518  -0.696  0.00  0.00    -0.485 OA
ATOM     32  C   UNL     1       5.376  -1.966  -1.152  0.00  0.00    +0.270 C 
ATOM     33  C   UNL     1       5.611  -0.639  -0.418  0.00  0.00    +0.270 C 
ATOM     34  O   UNL     1       4.522   0.239  -0.720  0.00  0.00    -0.485 OA
ENDBRANCH  21  30
ENDBRANCH   1  23
TORSDOF 6
