REMARK  Name = ZINC18349676
REMARK  11 active torsions:
REMARK  status: ('A' for Active; 'I' for Inactive)
REMARK    1  A    between atoms: C_1  and  C_2
REMARK    2  A    between atoms: C_2  and  C_3
REMARK    3  A    between atoms: C_3  and  C_4
REMARK    4  A    between atoms: C_3  and  C_5
REMARK    5  A    between atoms: C_3  and  N_6
REMARK    6  A    between atoms: C_7  and  C_9
REMARK    7  A    between atoms: C_9  and  N_10
REMARK    8  A    between atoms: C_13  and  C_17
REMARK    9  A    between atoms: C_13  and  C_18
REMARK   10  A    between atoms: C_23  and  O_28
REMARK   11  A    between atoms: O_28  and  C_29
REMARK                            x       y       z     vdW  Elec       q    Type
REMARK                         _______ _______ _______ _____ _____    ______ ____
ROOT
ATOM      1  N   UNL     1      -3.925  -4.702   0.014  0.00  0.00    -0.215 N 
ATOM      2  C   UNL     1      -4.627  -4.965   1.135  0.00  0.00    +0.251 C 
ATOM      3  O   UNL     1      -4.254  -4.832   2.280  0.00  0.00    -0.272 OA
ATOM      4  C   UNL     1      -5.979  -5.461   0.664  0.00  0.00    +0.135 C 
ATOM      5  N   UNL     1      -5.873  -5.416  -0.805  0.00  0.00    -0.281 N 
ATOM      6  C   UNL     1      -4.641  -4.956  -1.087  0.00  0.00    +0.310 C 
ATOM      7  O   UNL     1      -4.224  -4.792  -2.217  0.00  0.00    -0.252 OA
ATOM      8  C   UNL     1      -7.093  -4.533   1.152  0.00  0.00    +0.047 C 
ATOM      9  H   UNL     1      -6.559  -5.667  -1.443  0.00  0.00    +0.152 HD
ENDROOT
BRANCH   4  10
ATOM     10  C   UNL     1      -6.220  -6.873   1.135  0.00  0.00    -0.015 A 
ATOM     11  C   UNL     1      -5.650  -7.303   2.332  0.00  0.00    +0.007 A 
ATOM     12  C   UNL     1      -5.847  -8.571   2.785  0.00  0.00    +0.009 A 
ATOM     13  C   UNL     1      -6.637  -9.462   2.038  0.00  0.00    -0.014 A 
ATOM     14  C   UNL     1      -6.863 -10.777   2.476  0.00  0.00    +0.054 A 
ATOM     15  C   UNL     1      -7.636 -11.615   1.724  0.00  0.00    +0.121 A 
ATOM     16  C   UNL     1      -8.207 -11.181   0.523  0.00  0.00    +0.046 A 
ATOM     17  C   UNL     1      -8.007  -9.914   0.073  0.00  0.00    +0.012 A 
ATOM     18  C   UNL     1      -7.217  -9.024   0.821  0.00  0.00    -0.017 A 
ATOM     19  C   UNL     1      -6.995  -7.706   0.388  0.00  0.00    +0.014 A 
BRANCH  15  20
ATOM     20  O   UNL     1      -7.854 -12.888   2.148  0.00  0.00    -0.495 OA
ATOM     21  C   UNL     1      -8.671 -13.717   1.319  0.00  0.00    +0.277 C 
ENDBRANCH  15  20
ENDBRANCH   4  10
BRANCH   1  22
ATOM     22  C   UNL     1      -2.551  -4.195   0.004  0.00  0.00    +0.213 C 
BRANCH  22  24
ATOM     23  N   UNL     1      -1.413  -1.998   0.005  0.00  0.00    -0.309 N 
ATOM     24  C   UNL     1      -2.571  -2.688   0.012  0.00  0.00    +0.231 C 
ATOM     25  O   UNL     1      -3.630  -2.096   0.025  0.00  0.00    -0.274 OA
ATOM     26  H   UNL     1      -0.567  -2.472  -0.006  0.00  0.00    +0.149 HD
BRANCH  23  27
ATOM     27  C   UNL     1      -1.433  -0.534   0.013  0.00  0.00    +0.029 C 
ATOM     28  C   UNL     1      -2.149  -0.040   1.272  0.00  0.00    +0.031 C 
ATOM     29  C   UNL     1      -2.173  -0.027  -1.227  0.00  0.00    +0.031 C 
BRANCH  27  31
ATOM     30  C   UNL     1      -0.019   1.526   0.010  0.00  0.00    +0.006 C 
ATOM     31  C   UNL     1       0.002  -0.004   0.002  0.00  0.00    +0.022 C 
ENDBRANCH  27  31
ENDBRANCH  23  27
ENDBRANCH  22  24
ENDBRANCH   1  22
TORSDOF 6
