REMARK  Name = ZINC40568835
REMARK  9 active torsions:
REMARK  status: ('A' for Active; 'I' for Inactive)
REMARK    1  A    between atoms: C_1  and  C_2
REMARK    2  A    between atoms: C_2  and  C_3
REMARK    3  A    between atoms: C_2  and  C_4
REMARK    4  A    between atoms: C_2  and  C_5
REMARK    5  A    between atoms: C_12  and  N_29
REMARK    6  A    between atoms: C_13  and  C_25
REMARK    7  A    between atoms: N_21  and  C_24
REMARK    8  A    between atoms: C_25  and  O_27
REMARK    9  A    between atoms: O_27  and  C_28
REMARK                            x       y       z     vdW  Elec       q    Type
REMARK                         _______ _______ _______ _____ _____    ______ ____
ROOT
ATOM      1  C   UNL     1      -0.179  -0.274  -1.668  0.00  0.00    +0.077 A 
ATOM      2  C   UNL     1      -0.661  -1.468  -2.186  0.00  0.00    +0.062 A 
ATOM      3  C   UNL     1      -0.226  -1.576  -3.479  0.00  0.00    +0.223 A 
ATOM      4  N   UNL     1       0.503  -0.483  -3.753  0.00  0.00    -0.246 N 
ATOM      5  H   UNL     1       0.941  -0.284  -4.596  0.00  0.00    +0.192 HD
ATOM      6  N   UNL     1       0.516   0.326  -2.605  0.00  0.00    -0.175 NA
ATOM      7  O   UNL     1      -0.530  -2.637  -4.266  0.00  0.00    -0.424 OA
ATOM      8  C   UNL     1      -1.497  -3.477  -3.849  0.00  0.00    +0.198 C 
ATOM      9  C   UNL     1      -2.001  -3.477  -2.589  0.00  0.00    +0.117 C 
ATOM     10  C   UNL     1      -1.511  -2.522  -1.535  0.00  0.00    +0.142 C 
ATOM     11  C   UNL     1      -0.760  -3.238  -0.459  0.00  0.00    -0.002 A 
ATOM     12  C   UNL     1       0.388  -4.000  -0.495  0.00  0.00    +0.007 A 
ATOM     13  C   UNL     1       0.830  -4.533   0.711  0.00  0.00    +0.000 A 
ATOM     14  C   UNL     1       0.148  -4.309   1.889  0.00  0.00    +0.002 A 
ATOM     15  C   UNL     1      -1.008  -3.546   1.934  0.00  0.00    +0.024 A 
ATOM     16  C   UNL     1      -1.463  -3.004   0.730  0.00  0.00    +0.041 A 
ATOM     17  N   UNL     1      -2.573  -2.216   0.485  0.00  0.00    -0.273 N 
ATOM     18  C   UNL     1      -2.682  -1.886  -0.819  0.00  0.00    +0.240 C 
ATOM     19  O   UNL     1      -3.553  -1.208  -1.322  0.00  0.00    -0.274 OA
ATOM     20  C   UNL     1      -3.519  -1.789   1.520  0.00  0.00    +0.138 C 
ENDROOT
BRANCH   1  22
ATOM     21  C   UNL     1       0.157   1.659  -0.152  0.00  0.00    +0.017 C 
ATOM     22  C   UNL     1      -0.418   0.247  -0.274  0.00  0.00    +0.007 C 
ATOM     23  C   UNL     1       0.268  -0.673   0.738  0.00  0.00    +0.017 C 
ATOM     24  C   UNL     1      -1.921   0.282   0.006  0.00  0.00    +0.017 C 
ENDBRANCH   1  22
BRANCH   8  25
ATOM     25  N   UNL     1      -1.998  -4.382  -4.746  0.00  0.00    -0.329 N 
ATOM     26  H   UNL     1      -1.722  -4.348  -5.675  0.00  0.00    +0.145 HD
ATOM     27  H   UNL     1      -2.630  -5.057  -4.452  0.00  0.00    +0.145 HD
ENDBRANCH   8  25
BRANCH   9  28
ATOM     28  C   UNL     1      -3.009  -4.394  -2.260  0.00  0.00    +0.341 C 
ATOM     29  O   UNL     1      -2.734  -5.403  -1.635  0.00  0.00    -0.245 OA
BRANCH  28  30
ATOM     30  O   UNL     1      -4.285  -4.160  -2.636  0.00  0.00    -0.465 OA
ATOM     31  C   UNL     1      -5.260  -5.137  -2.267  0.00  0.00    +0.280 C 
ENDBRANCH  28  30
ENDBRANCH   9  28
TORSDOF 4
