REMARK  Name = ZINC32073913
REMARK  8 active torsions:
REMARK  status: ('A' for Active; 'I' for Inactive)
REMARK    1  A    between atoms: C_1  and  C_2
REMARK    2  A    between atoms: C_2  and  C_30
REMARK    3  A    between atoms: C_4  and  N_10
REMARK    4  A    between atoms: C_6  and  C_8
REMARK    5  A    between atoms: C_6  and  C_9
REMARK    6  A    between atoms: C_17  and  C_20
REMARK    7  A    between atoms: C_20  and  C_21
REMARK    8  A    between atoms: C_21  and  C_22
REMARK                            x       y       z     vdW  Elec       q    Type
REMARK                         _______ _______ _______ _____ _____    ______ ____
ROOT
ATOM      1  N   UNL     1       0.015   1.096   2.451  0.00  0.00    -0.325 N 
ATOM      2  C   UNL     1      -0.646   0.943   3.665  0.00  0.00    +0.140 A 
ATOM      3  C   UNL     1      -2.016   1.258   3.756  0.00  0.00    +0.049 A 
ATOM      4  C   UNL     1      -2.673   1.107   4.936  0.00  0.00    +0.053 A 
ATOM      5  C   UNL     1      -1.964   0.644   6.061  0.00  0.00    +0.178 A 
ATOM      6  N   UNL     1      -2.299   0.401   7.319  0.00  0.00    -0.128 NA
ATOM      7  N   UNL     1      -1.264  -0.016   7.960  0.00  0.00    -0.132 NA
ATOM      8  C   UNL     1      -0.226  -0.063   7.162  0.00  0.00    +0.156 A 
ATOM      9  N   UNL     1      -0.628   0.350   5.942  0.00  0.00    -0.195 N 
ATOM     10  N   UNL     1       0.016   0.511   4.713  0.00  0.00    -0.148 NA
ATOM     11  H   UNL     1       1.086   0.857   2.374  0.00  0.00    +0.148 HD
ENDROOT
BRANCH   1  15
ATOM     12  C   UNL     1       0.167   1.312  -2.453  0.00  0.00    -0.010 C 
ATOM     13  C   UNL     1      -0.742   1.593  -1.235  0.00  0.00    -0.072 C 
ATOM     14  C   UNL     1      -0.013   1.088   0.008  0.00  0.00    +0.009 C 
ATOM     15  C   UNL     1      -0.716   1.579   1.273  0.00  0.00    +0.069 C 
ATOM     16  C   UNL     1      -0.713   3.107   1.269  0.00  0.00    +0.009 C 
ATOM     17  C   UNL     1      -1.448   3.638   0.041  0.00  0.00    -0.072 C 
ATOM     18  N   UNL     1      -1.013   3.015  -1.192  0.00  0.00    +0.386 N 
ATOM     19  C   UNL     1      -1.159   5.152  -0.056  0.00  0.00    -0.010 C 
ATOM     20  C   UNL     1      -2.960   3.477   0.240  0.00  0.00    -0.010 C 
ATOM     21  C   UNL     1      -2.031   0.788  -1.435  0.00  0.00    -0.010 C 
ATOM     22  H   UNL     1      -0.103   3.571  -1.460  0.00  0.00    -0.084 HD
ATOM     23  H   UNL     1      -1.815   3.257  -1.905  0.00  0.00    -0.084 HD
ENDBRANCH   1  15
BRANCH   8  24
ATOM     24  C   UNL     1       1.167  -0.499   7.539  0.00  0.00    +0.087 C 
BRANCH  24  25
ATOM     25  C   UNL     1       1.969   0.713   8.017  0.00  0.00    +0.104 C 
BRANCH  25  26
ATOM     26  C   UNL     1       3.361   0.277   8.394  0.00  0.00    +0.216 C 
ATOM     27  O   UNL     1       3.681  -0.889   8.290  0.00  0.00    -0.276 OA
ATOM     28  N   UNL     1       4.252   1.182   8.846  0.00  0.00    -0.297 N 
ATOM     29  C   UNL     1       3.889   2.602   8.975  0.00  0.00    +0.136 C 
ATOM     30  C   UNL     1       4.275   3.069  10.388  0.00  0.00    +0.179 C 
ATOM     31  O   UNL     1       5.644   2.739  10.633  0.00  0.00    -0.377 OA
ATOM     32  C   UNL     1       5.920   1.336  10.616  0.00  0.00    +0.179 C 
ATOM     33  C   UNL     1       5.617   0.780   9.220  0.00  0.00    +0.136 C 
ENDBRANCH  25  26
ENDBRANCH  24  25
ENDBRANCH   8  24
TORSDOF 4
