REMARK  Name = ZINC42876352
REMARK  5 active torsions:
REMARK  status: ('A' for Active; 'I' for Inactive)
REMARK    1  A    between atoms: C_2  and  C_21
REMARK    2  A    between atoms: C_3  and  O_10
REMARK    3  A    between atoms: O_10  and  C_11
REMARK    4  A    between atoms: C_18  and  O_20
REMARK    5  A    between atoms: C_21  and  O_22
REMARK                            x       y       z     vdW  Elec       q    Type
REMARK                         _______ _______ _______ _____ _____    ______ ____
ROOT
ATOM      1  C   UNL     1      -0.013   1.368  -0.133  0.00  0.00    +0.059 A 
ATOM      2  C   UNL     1       1.175   2.075  -0.175  0.00  0.00    +0.023 A 
ATOM      3  C   UNL     1       2.381   1.420   0.022  0.00  0.00    +0.130 A 
ATOM      4  C   UNL     1       2.398   0.054   0.262  0.00  0.00    +0.095 A 
ATOM      5  C   UNL     1       1.210  -0.656   0.305  0.00  0.00    +0.170 A 
ATOM      6  C   UNL     1      -0.001   0.004   0.107  0.00  0.00    +0.167 A 
ATOM      7  O   UNL     1      -1.014  -0.907   0.198  0.00  0.00    -0.453 OA
ATOM      8  C   UNL     1      -0.388  -2.194   0.047  0.00  0.00    +0.466 C 
ATOM      9  O   UNL     1       0.955  -1.980   0.520  0.00  0.00    -0.452 OA
ENDROOT
BRANCH   3  10
ATOM     10  O   UNL     1       3.548   2.117  -0.021  0.00  0.00    -0.484 OA
BRANCH  10  11
ATOM     11  C   UNL     1       4.758   1.363   0.074  0.00  0.00    +0.224 C 
ATOM     12  C   UNL     1       5.038   1.065   1.565  0.00  0.00    +0.213 C 
ATOM     13  S   UNL     1       6.878   1.197   1.619  0.00  0.00    -0.025 S 
ATOM     14  O   UNL     1       7.275   1.745   2.868  0.00  0.00    -0.174 OA
ATOM     15  O   UNL     1       7.451  -0.025   1.171  0.00  0.00    -0.174 OA
ATOM     16  C   UNL     1       7.062   2.478   0.302  0.00  0.00    +0.201 C 
ATOM     17  C   UNL     1       5.870   2.140  -0.614  0.00  0.00    +0.177 C 
BRANCH  17  18
ATOM     18  O   UNL     1       5.326   3.360  -1.122  0.00  0.00    -0.386 OA
ATOM     19  H   UNL     1       5.971   3.918  -1.579  0.00  0.00    +0.210 HD
ENDBRANCH  17  18
ENDBRANCH  10  11
ENDBRANCH   3  10
BRANCH   2  20
ATOM     20  C   UNL     1       1.159   3.559  -0.437  0.00  0.00    +0.194 C 
BRANCH  20  21
ATOM     21  O   UNL     1      -0.191   3.998  -0.607  0.00  0.00    -0.390 OA
ATOM     22  H   UNL     1      -0.277   4.946  -0.779  0.00  0.00    +0.210 HD
ENDBRANCH  20  21
ENDBRANCH   2  20
TORSDOF 5
