REMARK  Name = ZINC67291692
REMARK  11 active torsions:
REMARK  status: ('A' for Active; 'I' for Inactive)
REMARK    1  A    between atoms: C_1  and  C_2
REMARK    2  A    between atoms: C_2  and  N_3
REMARK    3  A    between atoms: N_3  and  C_4
REMARK    4  A    between atoms: C_4  and  C_5
REMARK    5  A    between atoms: C_6  and  C_8
REMARK    6  A    between atoms: N_16  and  C_17
REMARK    7  A    between atoms: C_22  and  O_23
REMARK    8  A    between atoms: O_23  and  C_24
REMARK    9  A    between atoms: C_24  and  C_25
REMARK   10  A    between atoms: C_25  and  O_26
REMARK   11  A    between atoms: O_26  and  C_27
REMARK                            x       y       z     vdW  Elec       q    Type
REMARK                         _______ _______ _______ _____ _____    ______ ____
ROOT
ATOM      1  C   UNL     1      -0.944  -0.307   2.339  0.00  0.00    +0.078 C 
ATOM      2  C   UNL     1       0.210  -1.303   2.202  0.00  0.00    +0.032 C 
ATOM      3  C   UNL     1       1.339  -0.905   3.158  0.00  0.00    +0.110 C 
ATOM      4  N   UNL     1       0.791  -0.798   4.518  0.00  0.00    -0.285 N 
ATOM      5  C   UNL     1      -0.377   0.063   4.743  0.00  0.00    +0.110 C 
ATOM      6  C   UNL     1      -1.487  -0.346   3.769  0.00  0.00    +0.032 C 
ATOM      7  C   UNL     1       1.351  -1.478   5.538  0.00  0.00    +0.307 C 
ATOM      8  O   UNL     1       2.374  -2.110   5.359  0.00  0.00    -0.252 OA
ATOM      9  N   UNL     1       0.775  -1.459   6.756  0.00  0.00    -0.266 N 
ATOM     10  H   UNL     1      -0.085  -1.026   6.880  0.00  0.00    +0.156 HD
ENDROOT
BRANCH   9  11
ATOM     11  C   UNL     1       1.419  -2.063   7.845  0.00  0.00    +0.079 A 
ATOM     12  C   UNL     1       2.773  -2.355   7.777  0.00  0.00    +0.065 A 
ATOM     13  C   UNL     1       3.406  -2.951   8.854  0.00  0.00    +0.125 A 
ATOM     14  C   UNL     1       2.690  -3.256   9.999  0.00  0.00    +0.042 A 
ATOM     15  C   UNL     1       1.340  -2.967  10.072  0.00  0.00    +0.050 A 
ATOM     16  C   UNL     1       0.701  -2.365   9.000  0.00  0.00    +0.142 A 
ATOM     17  F   UNL     1       4.725  -3.236   8.788  0.00  0.00    -0.205 F 
BRANCH  16  18
ATOM     18  O   UNL     1      -0.626  -2.075   9.073  0.00  0.00    -0.488 OA
BRANCH  18  19
ATOM     19  C   UNL     1      -1.298  -2.413  10.288  0.00  0.00    +0.257 C 
BRANCH  19  20
ATOM     20  C   UNL     1      -2.772  -2.015  10.184  0.00  0.00    +0.200 C 
BRANCH  20  21
ATOM     21  O   UNL     1      -3.406  -2.797   9.170  0.00  0.00    -0.380 OA
ATOM     22  C   UNL     1      -4.793  -2.502   8.991  0.00  0.00    +0.194 C 
ENDBRANCH  20  21
ENDBRANCH  19  20
ENDBRANCH  18  19
ENDBRANCH  16  18
ENDBRANCH   9  11
BRANCH   1  24
ATOM     23  N   UNL     1      -1.921  -0.376   0.067  0.00  0.00    -0.302 N 
ATOM     24  C   UNL     1      -2.043  -0.676   1.375  0.00  0.00    +0.219 C 
ATOM     25  O   UNL     1      -3.037  -1.243   1.777  0.00  0.00    -0.275 OA
BRANCH  23  27
ATOM     26  C   UNL     1      -2.776  -2.034  -1.515  0.00  0.00    +0.024 C 
ATOM     27  C   UNL     1      -3.017  -0.673  -0.858  0.00  0.00    +0.104 C 
ENDBRANCH  23  27
BRANCH  23  28
ATOM     28  C   UNL     1      -0.691   0.247  -0.430  0.00  0.00    +0.104 C 
ATOM     29  C   UNL     1      -0.825   1.769  -0.355  0.00  0.00    +0.024 C 
ENDBRANCH  23  28
ENDBRANCH   1  24
TORSDOF 8
