REMARK  Name = ZINC09103263
REMARK  5 active torsions:
REMARK  status: ('A' for Active; 'I' for Inactive)
REMARK    1  A    between atoms: C_1  and  C_2
REMARK    2  A    between atoms: C_5  and  C_8
REMARK    3  A    between atoms: C_19  and  C_21
REMARK    4  A    between atoms: N_23  and  C_24
REMARK    5  A    between atoms: C_24  and  C_25
REMARK                            x       y       z     vdW  Elec       q    Type
REMARK                         _______ _______ _______ _____ _____    ______ ____
ROOT
ATOM      1  C   UNL     1       0.061  -4.251  -0.021  0.00  0.00    +0.250 C 
ATOM      2  O   UNL     1       0.063  -4.853  -1.077  0.00  0.00    -0.270 OA
ATOM      3  N   UNL     1       0.076  -4.931   1.142  0.00  0.00    -0.261 N 
ATOM      4  C   UNL     1       0.095  -6.320   1.134  0.00  0.00    +0.165 A 
ATOM      5  N   UNL     1       0.106  -7.143   2.160  0.00  0.00    -0.229 NA
ATOM      6  C   UNL     1       0.123  -8.463   2.002  0.00  0.00    +0.066 A 
ATOM      7  C   UNL     1       0.129  -8.884   0.711  0.00  0.00    +0.015 A 
ATOM      8  S   UNL     1       0.101  -7.360  -0.192  0.00  0.00    -0.057 S 
ATOM      9  C   UNL     1       0.145 -10.288   0.210  0.00  0.00    +0.044 C 
ATOM     10  C   UNL     1      -0.214 -11.219   1.379  0.00  0.00    +0.006 C 
ATOM     11  C   UNL     1       0.616 -10.819   2.602  0.00  0.00    +0.019 C 
ATOM     12  C   UNL     1       0.139  -9.470   3.144  0.00  0.00    +0.124 C 
ATOM     13  H   UNL     1       0.073  -4.451   1.985  0.00  0.00    +0.157 HD
ENDROOT
BRANCH   1  18
ATOM     14  C   UNL     1      -0.018   1.503   0.010  0.00  0.00    +0.044 C 
ATOM     15  C   UNL     1       0.002  -0.004   0.002  0.00  0.00    -0.050 A 
ATOM     16  C   UNL     1       0.006  -0.686  -1.202  0.00  0.00    +0.004 A 
ATOM     17  C   UNL     1       0.025  -2.066  -1.216  0.00  0.00    +0.013 A 
ATOM     18  C   UNL     1       0.041  -2.773  -0.013  0.00  0.00    +0.037 A 
ATOM     19  C   UNL     1       0.037  -2.079   1.198  0.00  0.00    +0.013 A 
ATOM     20  C   UNL     1       0.023  -0.699   1.198  0.00  0.00    +0.004 A 
ENDBRANCH   1  18
BRANCH  12  21
ATOM     21  C   UNL     1       1.080  -8.996   4.222  0.00  0.00    +0.222 C 
ATOM     22  O   UNL     1       2.031  -9.678   4.539  0.00  0.00    -0.275 OA
ATOM     23  N   UNL     1       0.863  -7.815   4.834  0.00  0.00    -0.315 N 
ATOM     24  H   UNL     1       0.102  -7.270   4.581  0.00  0.00    +0.149 HD
BRANCH  23  25
ATOM     25  C   UNL     1       1.778  -7.355   5.883  0.00  0.00    +0.107 C 
BRANCH  25  26
ATOM     26  C   UNL     1       1.308  -5.997   6.408  0.00  0.00    +0.006 C 
ATOM     27  C   UNL     1       1.413  -4.955   5.293  0.00  0.00    +0.005 C 
ATOM     28  C   UNL     1       0.944  -3.596   5.819  0.00  0.00    +0.000 C 
ATOM     29  C   UNL     1       1.825  -3.174   6.997  0.00  0.00    +0.000 C 
ATOM     30  C   UNL     1       1.720  -4.216   8.112  0.00  0.00    +0.000 C 
ATOM     31  C   UNL     1       2.189  -5.574   7.586  0.00  0.00    +0.005 C 
ENDBRANCH  25  26
ENDBRANCH  23  25
ENDBRANCH  12  21
TORSDOF 4
