REMARK  Name = ZINC66790290
REMARK  9 active torsions:
REMARK  status: ('A' for Active; 'I' for Inactive)
REMARK    1  A    between atoms: C_1  and  C_2
REMARK    2  A    between atoms: C_2  and  C_3
REMARK    3  A    between atoms: C_2  and  C_4
REMARK    4  A    between atoms: C_2  and  O_5
REMARK    5  A    between atoms: O_5  and  C_6
REMARK    6  A    between atoms: C_12  and  C_14
REMARK    7  A    between atoms: N_16  and  N_17
REMARK    8  A    between atoms: C_18  and  C_20
REMARK    9  A    between atoms: C_20  and  C_21
REMARK                            x       y       z     vdW  Elec       q    Type
REMARK                         _______ _______ _______ _____ _____    ______ ____
ROOT
ATOM      1  C   UNL     1       4.942  -0.686  -1.648  0.00  0.00    +0.250 C 
ATOM      2  O   UNL     1       4.547  -1.564  -0.910  0.00  0.00    -0.272 OA
ATOM      3  N   UNL     1       6.189  -0.196  -1.504  0.00  0.00    -0.233 N 
ATOM      4  H   UNL     1       6.505   0.506  -2.094  0.00  0.00    +0.173 HD
ENDROOT
BRANCH   1  11
ATOM      5  C   UNL     1       1.952  -0.085  -1.337  0.00  0.00    +0.404 C 
ATOM      6  O   UNL     1       2.488   0.619  -0.503  0.00  0.00    -0.226 OA
ATOM      7  N   UNL     1       2.641  -0.485  -2.424  0.00  0.00    -0.256 N 
ATOM      8  C   UNL     1       2.115  -1.331  -3.511  0.00  0.00    +0.112 C 
ATOM      9  C   UNL     1       2.998  -0.994  -4.738  0.00  0.00    +0.021 C 
ATOM     10  C   UNL     1       4.388  -0.801  -4.078  0.00  0.00    +0.033 C 
ATOM     11  C   UNL     1       4.039  -0.145  -2.726  0.00  0.00    +0.167 C 
BRANCH   5  12
ATOM     12  O   UNL     1       0.671  -0.465  -1.174  0.00  0.00    -0.445 OA
BRANCH  12  14
ATOM     13  C   UNL     1      -0.019   1.526   0.010  0.00  0.00    +0.055 C 
ATOM     14  C   UNL     1       0.002  -0.004   0.002  0.00  0.00    +0.107 C 
ATOM     15  C   UNL     1       0.742  -0.511   1.242  0.00  0.00    +0.055 C 
ATOM     16  C   UNL     1      -1.433  -0.534   0.013  0.00  0.00    +0.055 C 
ENDBRANCH  12  14
ENDBRANCH   5  12
ENDBRANCH   1  11
BRANCH   3  17
ATOM     17  N   UNL     1       7.029  -0.699  -0.502  0.00  0.00    -0.234 N 
ATOM     18  C   UNL     1       8.276  -0.208  -0.358  0.00  0.00    +0.229 C 
ATOM     19  O   UNL     1       8.671   0.669  -1.096  0.00  0.00    -0.274 OA
ATOM     20  H   UNL     1       6.713  -1.401   0.089  0.00  0.00    +0.173 HD
BRANCH  18  21
ATOM     21  C   UNL     1       9.179  -0.750   0.720  0.00  0.00    +0.101 C 
BRANCH  21  22
ATOM     22  C   UNL     1      10.527  -0.027   0.667  0.00  0.00    -0.002 C 
ATOM     23  C   UNL     1      11.229  -0.355  -0.652  0.00  0.00    +0.004 C 
ATOM     24  C   UNL     1      12.577   0.368  -0.705  0.00  0.00    +0.000 C 
ATOM     25  C   UNL     1      13.448  -0.092   0.465  0.00  0.00    +0.000 C 
ATOM     26  C   UNL     1      12.746   0.236   1.784  0.00  0.00    +0.000 C 
ATOM     27  C   UNL     1      11.398  -0.487   1.837  0.00  0.00    +0.004 C 
ENDBRANCH  21  22
ENDBRANCH  18  21
ENDBRANCH   3  17
TORSDOF 6
