REMARK  Name = ZINC01255915
REMARK  7 active torsions:
REMARK  status: ('A' for Active; 'I' for Inactive)
REMARK    1  A    between atoms: C_4  and  C_7
REMARK    2  A    between atoms: C_7  and  N_8
REMARK    3  A    between atoms: C_17  and  C_29
REMARK    4  A    between atoms: C_17  and  C_33
REMARK    5  A    between atoms: C_19  and  C_21
REMARK    6  A    between atoms: C_21  and  C_22
REMARK    7  A    between atoms: C_22  and  C_23
REMARK                            x       y       z     vdW  Elec       q    Type
REMARK                         _______ _______ _______ _____ _____    ______ ____
ROOT
ATOM      1  N   UNL     1       3.880   0.115   1.108  0.00  0.00    -0.277 N 
ATOM      2  C   UNL     1       4.878   0.658   1.877  0.00  0.00    +0.119 A 
ATOM      3  C   UNL     1       5.114   0.163   3.125  0.00  0.00    +0.100 A 
ATOM      4  C   UNL     1       4.320  -0.893   3.602  0.00  0.00    +0.262 A 
ATOM      5  O   UNL     1       4.507  -1.349   4.717  0.00  0.00    -0.267 OA
ATOM      6  N   UNL     1       3.348  -1.398   2.816  0.00  0.00    -0.275 N 
ATOM      7  H   UNL     1       2.798  -2.128   3.142  0.00  0.00    +0.173 HD
ATOM      8  C   UNL     1       3.130  -0.897   1.587  0.00  0.00    +0.331 A 
ATOM      9  O   UNL     1       2.247  -1.367   0.896  0.00  0.00    -0.246 OA
ATOM     10  C   UNL     1       6.212   0.735   3.977  0.00  0.00    +0.284 C 
ATOM     11  N   UNL     1       6.656   2.026   3.466  0.00  0.00    -0.244 NA
ATOM     12  C   UNL     1       6.386   2.445   2.284  0.00  0.00    +0.097 C 
ATOM     13  N   UNL     1       5.642   1.699   1.404  0.00  0.00    -0.289 N 
ATOM     14  H   UNL     1       5.654   1.905   0.457  0.00  0.00    +0.155 HD
ENDROOT
BRANCH  10  15
ATOM     15  C   UNL     1       5.696   0.912   5.407  0.00  0.00    +0.428 C 
ATOM     16  F   UNL     1       5.633  -0.335   6.037  0.00  0.00    -0.167 F 
ATOM     17  F   UNL     1       6.565   1.750   6.115  0.00  0.00    -0.167 F 
ATOM     18  F   UNL     1       4.420   1.484   5.375  0.00  0.00    -0.167 F 
ENDBRANCH  10  15
BRANCH  10  19
ATOM     19  C   UNL     1       7.395  -0.234   3.988  0.00  0.00    +0.428 C 
ATOM     20  F   UNL     1       7.861  -0.417   2.682  0.00  0.00    -0.167 F 
ATOM     21  F   UNL     1       8.422   0.292   4.780  0.00  0.00    -0.167 F 
ATOM     22  F   UNL     1       6.985  -1.465   4.514  0.00  0.00    -0.167 F 
ENDBRANCH  10  19
BRANCH   1  23
ATOM     23  C   UNL     1       3.624   0.640  -0.236  0.00  0.00    +0.163 C 
BRANCH  23  27
ATOM     24  C   UNL     1       0.770   3.810  -0.008  0.00  0.00    +0.000 A 
ATOM     25  C   UNL     1       2.120   4.087   0.097  0.00  0.00    +0.000 A 
ATOM     26  C   UNL     1       3.044   3.061   0.023  0.00  0.00    +0.005 A 
ATOM     27  C   UNL     1       2.617   1.758  -0.154  0.00  0.00    -0.028 A 
ATOM     28  C   UNL     1       1.267   1.481  -0.258  0.00  0.00    +0.005 A 
ATOM     29  C   UNL     1       0.343   2.507  -0.186  0.00  0.00    +0.000 A 
ENDBRANCH  23  27
ENDBRANCH   1  23
BRANCH  12  30
ATOM     30  C   UNL     1       6.901   3.793   1.849  0.00  0.00    +0.071 C 
BRANCH  30  31
ATOM     31  C   UNL     1       7.696   4.428   2.991  0.00  0.00    +0.011 C 
BRANCH  31  32
ATOM     32  C   UNL     1       8.218   5.797   2.550  0.00  0.00    -0.011 C 
ATOM     33  C   UNL     1       9.222   5.617   1.410  0.00  0.00    +0.003 C 
ATOM     34  C   UNL     1       9.743   6.986   0.968  0.00  0.00    +0.000 C 
ATOM     35  C   UNL     1      10.431   7.674   2.149  0.00  0.00    +0.000 C 
ATOM     36  C   UNL     1       9.428   7.855   3.289  0.00  0.00    +0.000 C 
ATOM     37  C   UNL     1       8.905   6.486   3.731  0.00  0.00    +0.003 C 
ENDBRANCH  31  32
ENDBRANCH  30  31
ENDBRANCH  12  30
TORSDOF 7
