REMARK  Name = ZINC20834152
REMARK  10 active torsions:
REMARK  status: ('A' for Active; 'I' for Inactive)
REMARK    1  A    between atoms: C_1  and  C_2
REMARK    2  A    between atoms: C_5  and  C_7
REMARK    3  A    between atoms: C_7  and  S_8
REMARK    4  A    between atoms: S_8  and  C_9
REMARK    5  A    between atoms: C_15  and  C_17
REMARK    6  A    between atoms: C_17  and  S_18
REMARK    7  A    between atoms: S_18  and  C_19
REMARK    8  A    between atoms: N_24  and  N_25
REMARK    9  A    between atoms: C_26  and  C_27
REMARK   10  A    between atoms: C_28  and  C_29
REMARK                            x       y       z     vdW  Elec       q    Type
REMARK                         _______ _______ _______ _____ _____    ______ ____
ROOT
ATOM      1  S   UNL     1      13.182   0.280   0.272  0.00  0.00    -0.075 S 
ENDROOT
BRANCH   1   2
ATOM      2  C   UNL     1      14.831   0.234  -0.349  0.00  0.00    +0.211 A 
ATOM      3  N   UNL     1      15.979   0.196   0.396  0.00  0.00    -0.186 NA
ATOM      4  C   UNL     1      17.007   0.171  -0.512  0.00  0.00    +0.232 A 
ATOM      5  N   UNL     1      16.468   0.194  -1.706  0.00  0.00    -0.245 N 
ATOM      6  N   UNL     1      15.187   0.225  -1.610  0.00  0.00    -0.144 NA
ATOM      7  N   UNL     1      18.363   0.129  -0.221  0.00  0.00    -0.205 N 
ATOM      8  H   UNL     1      18.700   0.113   0.826  0.00  0.00    +0.177 HD
ATOM      9  H   UNL     1      17.110   0.184  -2.599  0.00  0.00    +0.192 HD
BRANCH   7  10
ATOM     10  N   UNL     1      19.302   0.107  -1.260  0.00  0.00    -0.188 NA
ATOM     11  C   UNL     1      20.576   0.068  -0.986  0.00  0.00    +0.130 C 
BRANCH  11  12
ATOM     12  C   UNL     1      21.526   0.046  -2.037  0.00  0.00    +0.022 C 
ATOM     13  C   UNL     1      22.845   0.005  -1.754  0.00  0.00    +0.009 C 
BRANCH  13  14
ATOM     14  C   UNL     1      23.831  -0.018  -2.846  0.00  0.00    -0.025 A 
ATOM     15  C   UNL     1      23.406  -0.004  -4.178  0.00  0.00    +0.008 A 
ATOM     16  C   UNL     1      24.337  -0.019  -5.195  0.00  0.00    +0.001 A 
ATOM     17  C   UNL     1      25.689  -0.062  -4.900  0.00  0.00    +0.000 A 
ATOM     18  C   UNL     1      26.117  -0.082  -3.584  0.00  0.00    +0.001 A 
ATOM     19  C   UNL     1      25.199  -0.060  -2.556  0.00  0.00    +0.008 A 
ENDBRANCH  13  14
ENDBRANCH  11  12
ENDBRANCH   7  10
ENDBRANCH   1   2
BRANCH   1  20
ATOM     20  C   UNL     1      12.261   0.316  -1.285  0.00  0.00    +0.173 C 
BRANCH  20  27
ATOM     21  C   UNL     1       5.872   0.507  -1.594  0.00  0.00    +0.160 A 
ATOM     22  N   UNL     1       6.634   0.478  -0.509  0.00  0.00    -0.133 NA
ATOM     23  N   UNL     1       7.892   0.441  -0.580  0.00  0.00    -0.125 NA
ATOM     24  C   UNL     1       8.530   0.429  -1.738  0.00  0.00    +0.189 A 
ATOM     25  S   UNL     1       7.136   0.469  -2.861  0.00  0.00    -0.024 S 
ATOM     26  N   UNL     1       9.896   0.390  -2.008  0.00  0.00    -0.263 N 
ATOM     27  C   UNL     1      10.783   0.358  -0.993  0.00  0.00    +0.229 C 
ATOM     28  O   UNL     1      10.391   0.363   0.154  0.00  0.00    -0.275 OA
ATOM     29  H   UNL     1      10.251   0.385  -3.049  0.00  0.00    +0.157 HD
BRANCH  21  30
ATOM     30  S   UNL     1       4.117   0.560  -1.745  0.00  0.00    -0.087 S 
BRANCH  30  31
ATOM     31  C   UNL     1       3.530   0.568  -0.029  0.00  0.00    +0.174 C 
BRANCH  31  36
ATOM     32  C   UNL     1      -1.242   2.174   0.020  0.00  0.00    +0.111 C 
ATOM     33  C   UNL     1      -0.016   1.298   0.009  0.00  0.00    +0.214 A 
ATOM     34  N   UNL     1       0.002  -0.004   0.002  0.00  0.00    -0.113 NA
ATOM     35  N   UNL     1       1.222  -0.414  -0.012  0.00  0.00    -0.112 NA
ATOM     36  C   UNL     1       2.023   0.612  -0.014  0.00  0.00    +0.227 A 
ATOM     37  O   UNL     1       1.261   1.718  -0.001  0.00  0.00    -0.424 OA
ENDBRANCH  31  36
ENDBRANCH  30  31
ENDBRANCH  21  30
ENDBRANCH  20  27
ENDBRANCH   1  20
TORSDOF 9
