REMARK  Name = ZINC39669051
REMARK  5 active torsions:
REMARK  status: ('A' for Active; 'I' for Inactive)
REMARK    1  A    between atoms: C_1  and  C_2
REMARK    2  A    between atoms: C_6  and  C_9
REMARK    3  A    between atoms: C_13  and  C_22
REMARK    4  A    between atoms: N_24  and  C_25
REMARK    5  A    between atoms: C_25  and  C_26
REMARK                            x       y       z     vdW  Elec       q    Type
REMARK                         _______ _______ _______ _____ _____    ______ ____
ROOT
ATOM      1  C   UNL     1       0.042  -2.831   2.441  0.00  0.00    +0.251 C 
ATOM      2  O   UNL     1       1.105  -3.121   2.955  0.00  0.00    -0.270 OA
ATOM      3  N   UNL     1      -1.113  -3.196   3.032  0.00  0.00    -0.296 N 
ATOM      4  C   UNL     1      -2.495  -2.942   2.559  0.00  0.00    +0.121 C 
ATOM      5  C   UNL     1      -3.264  -4.243   2.883  0.00  0.00    +0.100 C 
ATOM      6  C   UNL     1      -2.469  -4.894   4.028  0.00  0.00    -0.004 C 
ATOM      7  C   UNL     1      -1.289  -3.948   4.298  0.00  0.00    +0.115 C 
ATOM      8  C   UNL     1      -3.342  -5.020   5.273  0.00  0.00    -0.010 C 
ATOM      9  C   UNL     1      -2.548  -5.722   6.378  0.00  0.00    -0.082 C 
ATOM     10  N   UNL     1      -2.129  -7.050   5.914  0.00  0.00    +0.379 N 
ATOM     11  C   UNL     1      -1.215  -6.916   4.773  0.00  0.00    -0.082 C 
ATOM     12  C   UNL     1      -1.952  -6.264   3.600  0.00  0.00    -0.010 C 
ATOM     13  H   UNL     1      -1.659  -7.534   6.664  0.00  0.00    -0.086 HD
ATOM     14  H   UNL     1      -2.941  -7.578   5.633  0.00  0.00    -0.086 HD
ENDROOT
BRANCH   1  20
ATOM     15  C   UNL     1      -0.065   1.522  -0.003  0.00  0.00    +0.047 C 
ATOM     16  C   UNL     1      -0.035   0.015  -0.012  0.00  0.00    -0.014 A 
ATOM     17  C   UNL     1      -0.033  -0.668  -1.214  0.00  0.00    +0.007 A 
ATOM     18  C   UNL     1      -0.007  -2.051  -1.233  0.00  0.00    +0.021 A 
ATOM     19  C   UNL     1       0.018  -2.761  -0.049  0.00  0.00    +0.056 A 
ATOM     20  C   UNL     1       0.016  -2.079   1.171  0.00  0.00    +0.091 A 
ATOM     21  C   UNL     1      -0.005  -0.681   1.182  0.00  0.00    +0.140 A 
ATOM     22  F   UNL     1      -0.002  -0.012   2.356  0.00  0.00    -0.204 F 
ATOM     23 CL   UNL     1       0.050  -4.497  -0.076  0.00  0.00    -0.083 Cl
ENDBRANCH   1  20
BRANCH   5  24
ATOM     24  C   UNL     1      -3.292  -5.149   1.680  0.00  0.00    +0.218 C 
ATOM     25  O   UNL     1      -2.423  -5.067   0.838  0.00  0.00    -0.275 OA
ATOM     26  N   UNL     1      -4.283  -6.051   1.538  0.00  0.00    -0.312 N 
ATOM     27  H   UNL     1      -4.979  -6.117   2.212  0.00  0.00    +0.149 HD
BRANCH  26  28
ATOM     28  C   UNL     1      -4.311  -6.933   0.368  0.00  0.00    +0.140 C 
BRANCH  28  29
ATOM     29  C   UNL     1      -5.530  -7.853   0.452  0.00  0.00    +0.165 C 
ATOM     30  C   UNL     1      -5.560  -8.752  -0.756  0.00  0.00    -0.014 A 
ATOM     31  C   UNL     1      -5.293  -8.204  -2.002  0.00  0.00    +0.006 A 
ATOM     32  C   UNL     1      -5.316  -8.997  -3.131  0.00  0.00    +0.000 A 
ATOM     33  C   UNL     1      -5.607 -10.344  -3.022  0.00  0.00    +0.000 A 
ATOM     34  C   UNL     1      -5.872 -10.892  -1.782  0.00  0.00    +0.004 A 
ATOM     35  C   UNL     1      -5.846 -10.097  -0.647  0.00  0.00    -0.040 A 
ATOM     36  C   UNL     1      -6.127 -10.733   0.690  0.00  0.00    +0.063 C 
ATOM     37  C   UNL     1      -6.458  -9.650   1.718  0.00  0.00    +0.165 C 
ATOM     38  O   UNL     1      -5.452  -8.634   1.644  0.00  0.00    -0.370 OA
ENDBRANCH  28  29
ENDBRANCH  26  28
ENDBRANCH   5  24
TORSDOF 4
