REMARK  Name = ZINC32124785
REMARK  8 active torsions:
REMARK  status: ('A' for Active; 'I' for Inactive)
REMARK    1  A    between atoms: C_4  and  C_7
REMARK    2  A    between atoms: C_7  and  N_8
REMARK    3  A    between atoms: C_9  and  C_11
REMARK    4  A    between atoms: C_15  and  N_16
REMARK    5  A    between atoms: C_17  and  C_19
REMARK    6  A    between atoms: C_19  and  O_20
REMARK    7  A    between atoms: O_20  and  C_21
REMARK    8  A    between atoms: C_21  and  C_23
REMARK                            x       y       z     vdW  Elec       q    Type
REMARK                         _______ _______ _______ _____ _____    ______ ____
ROOT
ATOM      1  C   UNL     1      -3.374  -3.652   0.009  0.00  0.00    +0.069 A 
ATOM      2  C   UNL     1      -4.807  -3.889   0.028  0.00  0.00    -0.023 A 
ATOM      3  C   UNL     1      -5.573  -2.777   0.040  0.00  0.00    -0.004 A 
ATOM      4  S   UNL     1      -4.421  -1.433   0.036  0.00  0.00    -0.077 S 
ATOM      5  C   UNL     1      -2.941  -2.334   0.018  0.00  0.00    +0.084 A 
ATOM      6  C   UNL     1      -7.069  -2.711   0.054  0.00  0.00    +0.043 C 
ATOM      7  C   UNL     1      -7.618  -4.094  -0.326  0.00  0.00    +0.005 C 
ATOM      8  C   UNL     1      -6.888  -5.158   0.499  0.00  0.00    +0.005 C 
ATOM      9  C   UNL     1      -5.437  -5.276   0.027  0.00  0.00    +0.037 C 
ENDROOT
BRANCH   1  11
ATOM     10  N   UNL     1      -1.994  -5.265  -1.191  0.00  0.00    -0.307 N 
ATOM     11  C   UNL     1      -2.420  -4.766  -0.014  0.00  0.00    +0.247 C 
ATOM     12  O   UNL     1      -2.011  -5.239   1.031  0.00  0.00    -0.270 OA
ATOM     13  H   UNL     1      -2.363  -4.837  -2.135  0.00  0.00    +0.149 HD
BRANCH  10  14
ATOM     14  C   UNL     1      -1.041  -6.377  -1.214  0.00  0.00    +0.139 C 
BRANCH  14  18
ATOM     15  C   UNL     1      -0.161  -7.415  -5.263  0.00  0.00    +0.000 A 
ATOM     16  C   UNL     1       0.606  -6.468  -4.610  0.00  0.00    +0.000 A 
ATOM     17  C   UNL     1       0.321  -6.132  -3.300  0.00  0.00    +0.005 A 
ATOM     18  C   UNL     1      -0.731  -6.743  -2.643  0.00  0.00    -0.030 A 
ATOM     19  C   UNL     1      -1.494  -7.694  -3.294  0.00  0.00    +0.005 A 
ATOM     20  C   UNL     1      -1.212  -8.026  -4.606  0.00  0.00    +0.000 A 
ENDBRANCH  14  18
ENDBRANCH  10  14
ENDBRANCH   1  11
BRANCH   5  21
ATOM     21  N   UNL     1      -1.640  -1.854   0.008  0.00  0.00    -0.277 N 
ATOM     22  C   UNL     1      -1.412  -0.526   0.013  0.00  0.00    +0.255 C 
ATOM     23  O   UNL     1      -2.344   0.250   0.026  0.00  0.00    -0.272 OA
ATOM     24  H   UNL     1      -0.794  -2.557  -0.004  0.00  0.00    +0.155 HD
BRANCH  22  25
ATOM     25  C   UNL     1       0.002  -0.004   0.002  0.00  0.00    +0.328 C 
BRANCH  25  26
ATOM     26  O   UNL     1      -0.018   1.448   0.010  0.00  0.00    -0.455 OA
BRANCH  26  27
ATOM     27  C   UNL     1       1.170   2.073   0.002  0.00  0.00    +0.314 C 
ATOM     28  O   UNL     1       2.192   1.429  -0.011  0.00  0.00    -0.250 OA
BRANCH  27  29
ATOM     29  C   UNL     1       1.228   3.579   0.010  0.00  0.00    +0.069 C 
ATOM     30  C   UNL     1       0.516   4.123  -1.230  0.00  0.00    +0.021 C 
ATOM     31  C   UNL     1       0.575   5.652  -1.222  0.00  0.00    -0.009 C 
ATOM     32  C   UNL     1       2.036   6.106  -1.234  0.00  0.00    +0.007 C 
ATOM     33  C   UNL     1       2.749   5.562   0.006  0.00  0.00    -0.009 C 
ATOM     34  C   UNL     1       2.689   4.033  -0.002  0.00  0.00    +0.021 C 
ATOM     35  C   UNL     1       2.060   6.093   1.264  0.00  0.00    +0.007 C 
ATOM     36  C   UNL     1       0.599   5.639   1.276  0.00  0.00    -0.009 C 
ATOM     37  C   UNL     1      -0.114   6.183   0.036  0.00  0.00    +0.007 C 
ATOM     38  C   UNL     1       0.539   4.110   1.268  0.00  0.00    +0.021 C 
ENDBRANCH  27  29
ENDBRANCH  26  27
ENDBRANCH  25  26
ENDBRANCH  22  25
ENDBRANCH   5  21
TORSDOF 8
