REMARK  Name = ZINC08898909
REMARK  8 active torsions:
REMARK  status: ('A' for Active; 'I' for Inactive)
REMARK    1  A    between atoms: C_1  and  C_2
REMARK    2  A    between atoms: N_10  and  N_14
REMARK    3  A    between atoms: C_15  and  C_17
REMARK    4  A    between atoms: C_17  and  N_65
REMARK    5  A    between atoms: C_18  and  N_65
REMARK    6  A    between atoms: C_19  and  C_20
REMARK    7  A    between atoms: C_19  and  N_65
REMARK    8  A    between atoms: C_25  and  N_26
REMARK                            x       y       z     vdW  Elec       q    Type
REMARK                         _______ _______ _______ _____ _____    ______ ____
ROOT
ATOM      1  N   UNL     1       3.247   7.272  -0.346  0.00  0.00    -0.225 N 
ATOM      2  C   UNL     1       2.102   6.935   0.281  0.00  0.00    +0.213 C 
ATOM      3  O   UNL     1       1.044   7.388  -0.103  0.00  0.00    -0.276 OA
ATOM      4  H   UNL     1       4.093   6.910  -0.039  0.00  0.00    +0.173 HD
ENDROOT
BRANCH   1  14
ATOM      5  C   UNL     1       3.277  12.633  -6.198  0.00  0.00    +0.007 C 
ATOM      6  C   UNL     1       3.496  12.111  -4.777  0.00  0.00    -0.014 C 
ATOM      7  C   UNL     1       2.164  11.626  -4.201  0.00  0.00    +0.006 C 
ATOM      8  C   UNL     1       2.381  11.115  -2.775  0.00  0.00    +0.035 C 
ATOM      9  C   UNL     1       3.394   9.975  -2.789  0.00  0.00    +0.114 C 
ATOM     10  C   UNL     1       4.720  10.437  -3.383  0.00  0.00    +0.035 C 
ATOM     11  C   UNL     1       4.492  10.951  -4.807  0.00  0.00    +0.006 C 
ATOM     12  C   UNL     1       3.602   9.438  -1.391  0.00  0.00    +0.263 C 
ATOM     13  O   UNL     1       4.026  10.041  -0.429  0.00  0.00    -0.271 OA
ATOM     14  N   UNL     1       3.215   8.146  -1.440  0.00  0.00    -0.137 N 
ATOM     15  C   UNL     1       2.801   7.802  -2.666  0.00  0.00    +0.326 C 
ATOM     16  O   UNL     1       2.409   6.689  -2.959  0.00  0.00    -0.251 OA
ATOM     17  N   UNL     1       2.866   8.827  -3.537  0.00  0.00    -0.284 N 
ATOM     18  H   UNL     1       2.618   8.809  -4.475  0.00  0.00    +0.151 HD
ENDBRANCH   1  14
BRANCH   2  19
ATOM     19  C   UNL     1       2.137   5.995   1.458  0.00  0.00    +0.020 C 
BRANCH  19  21
ATOM     20  C   UNL     1       0.222   7.030   2.520  0.00  0.00    -0.095 C 
ATOM     21  N   UNL     1       0.755   5.780   1.938  0.00  0.00    +0.386 N 
ATOM     22  H   UNL     1       0.166   5.505   1.143  0.00  0.00    -0.081 HD
BRANCH  21  23
ATOM     23  C   UNL     1       0.733   4.702   2.949  0.00  0.00    -0.041 C 
BRANCH  23  24
ATOM     24  C   UNL     1      -0.701   4.354   3.256  0.00  0.00    -0.043 A 
ATOM     25  C   UNL     1      -1.300   4.842   4.401  0.00  0.00    +0.003 A 
ATOM     26  C   UNL     1      -2.616   4.523   4.684  0.00  0.00    +0.000 A 
ATOM     27  C   UNL     1      -3.335   3.715   3.822  0.00  0.00    +0.002 A 
ATOM     28  C   UNL     1      -2.743   3.228   2.674  0.00  0.00    +0.023 A 
ATOM     29  C   UNL     1      -1.420   3.542   2.389  0.00  0.00    +0.031 A 
BRANCH  29  30
ATOM     30  N   UNL     1      -0.817   3.048   1.230  0.00  0.00    -0.325 N 
ATOM     31  C   UNL     1      -0.731   1.580   1.266  0.00  0.00    +0.133 C 
ATOM     32  C   UNL     1      -0.013   1.086   0.008  0.00  0.00    +0.178 C 
ATOM     33  O   UNL     1      -0.706   1.560  -1.149  0.00  0.00    -0.377 OA
ATOM     34  C   UNL     1      -0.807   2.985  -1.216  0.00  0.00    +0.178 C 
ATOM     35  C   UNL     1      -1.534   3.499   0.029  0.00  0.00    +0.133 C 
ENDBRANCH  29  30
ENDBRANCH  23  24
ENDBRANCH  21  23
ENDBRANCH  19  21
ENDBRANCH   2  19
TORSDOF 6
