REMARK  Name = ZINC65264721
REMARK  6 active torsions:
REMARK  status: ('A' for Active; 'I' for Inactive)
REMARK    1  A    between atoms: C_4  and  C_7
REMARK    2  A    between atoms: C_7  and  C_8
REMARK    3  A    between atoms: C_8  and  C_9
REMARK    4  A    between atoms: C_8  and  N_12
REMARK    5  A    between atoms: N_12  and  S_13
REMARK    6  A    between atoms: S_13  and  C_16
REMARK                            x       y       z     vdW  Elec       q    Type
REMARK                         _______ _______ _______ _____ _____    ______ ____
ROOT
ATOM      1  N   UNL     1       3.229  -1.870   2.059  0.00  0.00    -0.178 NA
ATOM      2  H   UNL     1       2.799  -2.576   1.552  0.00  0.00    +0.149 HD
ENDROOT
BRANCH   1   3
ATOM      3  S   UNL     1       2.897  -1.689   3.672  0.00  0.00    +0.059 S 
ATOM      4  O   UNL     1       1.942  -2.686   4.004  0.00  0.00    -0.153 OA
ATOM      5  O   UNL     1       4.149  -1.582   4.334  0.00  0.00    -0.153 OA
BRANCH   3   6
ATOM      6  C   UNL     1       2.091  -0.134   3.866  0.00  0.00    +0.106 A 
ATOM      7  C   UNL     1       2.844   1.008   4.096  0.00  0.00    +0.032 A 
ATOM      8  C   UNL     1       2.232   2.235   4.250  0.00  0.00    +0.049 A 
ATOM      9  C   UNL     1       0.849   2.331   4.176  0.00  0.00    +0.139 A 
ATOM     10  C   UNL     1       0.089   1.171   3.942  0.00  0.00    +0.019 A 
ATOM     11  C   UNL     1       0.729  -0.062   3.783  0.00  0.00    +0.040 A 
ATOM     12  C   UNL     1      -1.371   1.282   3.865  0.00  0.00    +0.018 A 
ATOM     13  C   UNL     1      -1.930   2.508   4.023  0.00  0.00    +0.092 A 
ATOM     14  C   UNL     1      -1.106   3.631   4.254  0.00  0.00    +0.337 A 
ATOM     15  O   UNL     1      -1.620   4.726   4.394  0.00  0.00    -0.245 OA
ATOM     16  O   UNL     1       0.230   3.522   4.324  0.00  0.00    -0.422 OA
ENDBRANCH   3   6
ENDBRANCH   1   3
BRANCH   1  17
ATOM     17  C   UNL     1       4.171  -0.963   1.399  0.00  0.00    +0.166 C 
BRANCH  17  18
ATOM     18  C   UNL     1       5.543  -1.588   1.383  0.00  0.00    +0.229 C 
ATOM     19  O   UNL     1       5.715  -2.683   1.875  0.00  0.00    -0.274 OA
ATOM     20  N   UNL     1       6.577  -0.931   0.823  0.00  0.00    -0.328 N 
ATOM     21  H   UNL     1       6.438  -0.055   0.429  0.00  0.00    +0.145 HD
ATOM     22  H   UNL     1       7.459  -1.333   0.812  0.00  0.00    +0.145 HD
ENDBRANCH  17  18
BRANCH  17  23
ATOM     23  C   UNL     1       3.711  -0.707  -0.038  0.00  0.00    +0.065 C 
BRANCH  23  27
ATOM     24  C   UNL     1      -0.017   1.378   0.010  0.00  0.00    +0.000 A 
ATOM     25  C   UNL     1       1.171   2.086   0.002  0.00  0.00    +0.000 A 
ATOM     26  C   UNL     1       2.377   1.411  -0.013  0.00  0.00    +0.004 A 
ATOM     27  C   UNL     1       2.396   0.029  -0.020  0.00  0.00    -0.045 A 
ATOM     28  C   UNL     1       1.208  -0.679  -0.012  0.00  0.00    +0.004 A 
ATOM     29  C   UNL     1       0.002  -0.004   0.002  0.00  0.00    +0.000 A 
ENDBRANCH  23  27
ENDBRANCH  17  23
ENDBRANCH   1  17
TORSDOF 6
