REMARK  Name = ZINC20097697
REMARK  16 active torsions:
REMARK  status: ('A' for Active; 'I' for Inactive)
REMARK    1  A    between atoms: C_1  and  C_2
REMARK    2  A    between atoms: C_5  and  N_8
REMARK    3  A    between atoms: C_9  and  C_11
REMARK    4  A    between atoms: C_11  and  S_12
REMARK    5  A    between atoms: S_12  and  C_14
REMARK    6  A    between atoms: C_14  and  C_15
REMARK    7  A    between atoms: N_17  and  C_18
REMARK    8  A    between atoms: N_17  and  C_26
REMARK    9  A    between atoms: C_22  and  C_25
REMARK   10  A    between atoms: C_23  and  C_24
REMARK   11  A    between atoms: C_26  and  C_28
REMARK   12  A    between atoms: C_26  and  C_29
REMARK   13  A    between atoms: N_31  and  C_32
REMARK   14  A    between atoms: C_32  and  C_33
REMARK   15  A    between atoms: C_32  and  C_34
REMARK   16  A    between atoms: C_32  and  C_35
REMARK                            x       y       z     vdW  Elec       q    Type
REMARK                         _______ _______ _______ _____ _____    ______ ____
ROOT
ATOM      1  C   UNL     1       5.171  -7.788  -1.175  0.00  0.00    +0.233 C 
ATOM      2  O   UNL     1       6.032  -6.939  -1.270  0.00  0.00    -0.274 OA
ATOM      3  N   UNL     1       5.509  -9.063  -0.900  0.00  0.00    -0.259 N 
ENDROOT
BRANCH   3   4
ATOM      4  C   UNL     1       4.516 -10.042  -0.790  0.00  0.00    +0.040 A 
ATOM      5  C   UNL     1       4.125 -10.766  -1.910  0.00  0.00    +0.024 A 
ATOM      6  C   UNL     1       3.149 -11.736  -1.797  0.00  0.00    +0.002 A 
ATOM      7  C   UNL     1       2.551 -11.979  -0.573  0.00  0.00    +0.004 A 
ATOM      8  C   UNL     1       2.933 -11.255   0.541  0.00  0.00    -0.046 A 
ATOM      9  C   UNL     1       3.914 -10.288   0.436  0.00  0.00    -0.026 A 
ATOM     10  C   UNL     1       4.330  -9.501   1.652  0.00  0.00    +0.046 C 
ATOM     11  C   UNL     1       2.279 -11.523   1.873  0.00  0.00    +0.044 C 
ENDBRANCH   3   4
BRANCH   3  12
ATOM     12  C   UNL     1       6.917  -9.424  -0.717  0.00  0.00    +0.164 C 
ATOM     13  C   UNL     1       7.088 -10.148   0.621  0.00  0.00    +0.038 C 
BRANCH  12  14
ATOM     14  C   UNL     1       7.353 -10.332  -1.838  0.00  0.00    +0.234 C 
ATOM     15  O   UNL     1       6.565 -10.646  -2.705  0.00  0.00    -0.274 OA
ATOM     16  N   UNL     1       8.618 -10.794  -1.877  0.00  0.00    -0.309 N 
ATOM     17  H   UNL     1       9.333 -10.509  -1.091  0.00  0.00    +0.149 HD
BRANCH  16  18
ATOM     18  C   UNL     1       9.042 -11.677  -2.967  0.00  0.00    +0.026 C 
ATOM     19  C   UNL     1       8.871 -10.953  -4.305  0.00  0.00    +0.031 C 
ATOM     20  C   UNL     1      10.512 -12.054  -2.776  0.00  0.00    +0.031 C 
ATOM     21  C   UNL     1       8.185 -12.944  -2.960  0.00  0.00    +0.031 C 
ENDBRANCH  16  18
ENDBRANCH  12  14
ENDBRANCH   3  12
BRANCH   1  22
ATOM     22  C   UNL     1       3.723  -7.416  -1.363  0.00  0.00    +0.200 C 
BRANCH  22  23
ATOM     23  S   UNL     1       3.595  -5.641  -1.718  0.00  0.00    +0.040 S 
ATOM     24  O   UNL     1       4.259  -5.354  -2.941  0.00  0.00    -0.256 OA
BRANCH  23  25
ATOM     25  C   UNL     1       1.814  -5.361  -1.916  0.00  0.00    +0.200 C 
BRANCH  25  27
ATOM     26  N   UNL     1       0.307  -3.461  -2.405  0.00  0.00    -0.285 N 
ATOM     27  C   UNL     1       1.565  -3.905  -2.218  0.00  0.00    +0.230 C 
ATOM     28  O   UNL     1       2.498  -3.134  -2.292  0.00  0.00    -0.274 OA
ATOM     29  H   UNL     1      -0.544  -4.145  -2.268  0.00  0.00    +0.155 HD
BRANCH  26  34
ATOM     30  C   UNL     1      -0.605   1.933  -3.905  0.00  0.00    +0.044 C 
ATOM     31  C   UNL     1      -0.363   0.500  -3.507  0.00  0.00    -0.050 A 
ATOM     32  C   UNL     1       0.737  -0.176  -4.000  0.00  0.00    +0.005 A 
ATOM     33  C   UNL     1       0.962  -1.490  -3.637  0.00  0.00    +0.023 A 
ATOM     34  C   UNL     1       0.082  -2.131  -2.775  0.00  0.00    +0.033 A 
ATOM     35  C   UNL     1      -1.022  -1.448  -2.281  0.00  0.00    +0.023 A 
ATOM     36  C   UNL     1      -1.241  -0.135  -2.648  0.00  0.00    +0.005 A 
ENDBRANCH  26  34
ENDBRANCH  25  27
ENDBRANCH  23  25
ENDBRANCH  22  23
ENDBRANCH   1  22
TORSDOF 9
