REMARK  Name = ZINC13064621
REMARK  14 active torsions:
REMARK  status: ('A' for Active; 'I' for Inactive)
REMARK    1  A    between atoms: C_1  and  C_2
REMARK    2  A    between atoms: C_2  and  C_3
REMARK    3  A    between atoms: C_3  and  C_5
REMARK    4  A    between atoms: C_3  and  N_74
REMARK    5  A    between atoms: N_9  and  C_10
REMARK    6  A    between atoms: C_10  and  C_11
REMARK    7  A    between atoms: C_17  and  C_18
REMARK    8  A    between atoms: C_17  and  N_74
REMARK    9  A    between atoms: C_21  and  O_24
REMARK   10  A    between atoms: O_24  and  C_25
REMARK   11  A    between atoms: C_26  and  C_27
REMARK   12  A    between atoms: C_26  and  N_74
REMARK   13  A    between atoms: C_31  and  C_40
REMARK   14  A    between atoms: C_32  and  C_39
REMARK                            x       y       z     vdW  Elec       q    Type
REMARK                         _______ _______ _______ _____ _____    ______ ____
ROOT
ATOM      1  N   UNL     1       3.236   1.257   0.595  0.00  0.00    +0.392 N 
ATOM      2  H   UNL     1       3.264   2.271   0.756  0.00  0.00    -0.080 HD
ENDROOT
BRANCH   1   3
ATOM      3  C   UNL     1       2.395   0.628   1.635  0.00  0.00    +0.003 C 
BRANCH   3   4
ATOM      4  C   UNL     1       2.722  -0.837   1.763  0.00  0.00    +0.138 A 
ATOM      5  N   UNL     1       3.854  -1.353   2.175  0.00  0.00    -0.115 NA
ATOM      6  N   UNL     1       3.741  -2.636   2.145  0.00  0.00    -0.023 NA
ATOM      7  N   UNL     1       2.568  -2.952   1.717  0.00  0.00    -0.044 NA
ATOM      8  N   UNL     1       1.910  -1.870   1.471  0.00  0.00    -0.228 N 
BRANCH   8   9
ATOM      9  C   UNL     1       0.537  -1.782   0.969  0.00  0.00    +0.178 C 
BRANCH   9  10
ATOM     10  C   UNL     1       0.541  -1.920  -0.555  0.00  0.00    +0.140 C 
ATOM     11  C   UNL     1      -0.900  -1.808  -1.096  0.00  0.00    +0.035 C 
ATOM     12  C   UNL     1      -0.914  -2.875  -2.224  0.00  0.00    +0.031 C 
ATOM     13  C   UNL     1       0.028  -3.949  -1.623  0.00  0.00    +0.160 C 
ATOM     14  O   UNL     1       1.043  -3.210  -0.925  0.00  0.00    -0.375 OA
ENDBRANCH   9  10
ENDBRANCH   8   9
ENDBRANCH   3   4
BRANCH   3  16
ATOM     15  C   UNL     1       2.222   2.791   2.874  0.00  0.00    +0.002 C 
ATOM     16  C   UNL     1       2.662   1.329   2.969  0.00  0.00    -0.011 C 
ENDBRANCH   3  16
ENDBRANCH   1   3
BRANCH   1  17
ATOM     17  C   UNL     1       4.612   0.721   0.666  0.00  0.00    -0.042 C 
BRANCH  17  18
ATOM     18  C   UNL     1       5.310   1.339   1.850  0.00  0.00    -0.064 A 
ATOM     19  C   UNL     1       5.587   2.693   1.859  0.00  0.00    +0.005 A 
ATOM     20  C   UNL     1       6.222   3.262   2.946  0.00  0.00    +0.046 A 
ATOM     21  C   UNL     1       6.592   2.471   4.024  0.00  0.00    +0.120 A 
ATOM     22  C   UNL     1       6.319   1.111   4.010  0.00  0.00    +0.046 A 
ATOM     23  C   UNL     1       5.678   0.548   2.923  0.00  0.00    +0.005 A 
BRANCH  21  24
ATOM     24  O   UNL     1       7.221   3.028   5.092  0.00  0.00    -0.495 OA
ATOM     25  C   UNL     1       7.471   4.434   5.038  0.00  0.00    +0.277 C 
ENDBRANCH  21  24
ENDBRANCH  17  18
ENDBRANCH   1  17
BRANCH   1  26
ATOM     26  C   UNL     1       2.662   0.999  -0.743  0.00  0.00    -0.036 C 
BRANCH  26  27
ATOM     27  C   UNL     1       1.597   2.029  -1.015  0.00  0.00    +0.001 A 
ATOM     28  C   UNL     1       1.911   3.164  -1.687  0.00  0.00    +0.017 A 
ATOM     29  C   UNL     1       0.853   4.146  -1.936  0.00  0.00    -0.001 A 
ATOM     30  C   UNL     1       1.117   5.335  -2.624  0.00  0.00    +0.013 A 
ATOM     31  C   UNL     1       0.107   6.230  -2.840  0.00  0.00    -0.047 A 
ATOM     32  C   UNL     1      -1.177   5.970  -2.383  0.00  0.00    -0.046 A 
ATOM     33  C   UNL     1      -1.460   4.805  -1.703  0.00  0.00    +0.030 A 
ATOM     34  C   UNL     1      -0.448   3.878  -1.471  0.00  0.00    +0.049 A 
ATOM     35  N   UNL     1      -0.704   2.702  -0.799  0.00  0.00    -0.322 N 
ATOM     36  H   UNL     1      -1.602   2.518  -0.483  0.00  0.00    +0.169 HD
ATOM     37  C   UNL     1       0.275   1.810  -0.571  0.00  0.00    +0.251 A 
ATOM     38  O   UNL     1       0.014   0.782   0.032  0.00  0.00    -0.268 OA
ATOM     39  C   UNL     1      -2.275   6.973  -2.632  0.00  0.00    +0.044 C 
ATOM     40  C   UNL     1       0.392   7.511  -3.581  0.00  0.00    +0.044 C 
ENDBRANCH  26  27
ENDBRANCH   1  26
TORSDOF 10
