REMARK  Name = ZINC24809611
REMARK  11 active torsions:
REMARK  status: ('A' for Active; 'I' for Inactive)
REMARK    1  A    between atoms: C_1  and  C_2
REMARK    2  A    between atoms: C_2  and  C_26
REMARK    3  A    between atoms: N_5  and  N_9
REMARK    4  A    between atoms: C_10  and  C_12
REMARK    5  A    between atoms: C_12  and  N_13
REMARK    6  A    between atoms: N_13  and  C_14
REMARK    7  A    between atoms: N_13  and  C_20
REMARK    8  A    between atoms: C_14  and  C_15
REMARK    9  A    between atoms: C_20  and  C_21
REMARK   10  A    between atoms: C_26  and  C_27
REMARK   11  A    between atoms: C_27  and  C_28
REMARK                            x       y       z     vdW  Elec       q    Type
REMARK                         _______ _______ _______ _____ _____    ______ ____
ROOT
ATOM      1  N   UNL     1      -0.437  -1.611   0.476  0.00  0.00    -0.225 N 
ATOM      2  C   UNL     1       0.491  -0.647   0.316  0.00  0.00    +0.213 C 
ATOM      3  O   UNL     1       1.669  -0.935   0.307  0.00  0.00    -0.276 OA
ATOM      4  H   UNL     1      -1.506  -1.350   0.484  0.00  0.00    +0.173 HD
ENDROOT
BRANCH   1   9
ATOM      5  C   UNL     1      -0.629  -6.048   1.810  0.00  0.00    +0.041 C 
ATOM      6  C   UNL     1       0.444  -5.004   1.496  0.00  0.00    +0.112 C 
ATOM      7  C   UNL     1      -0.062  -3.609   1.806  0.00  0.00    +0.263 C 
ATOM      8  O   UNL     1      -0.413  -3.180   2.884  0.00  0.00    -0.271 OA
ATOM      9  N   UNL     1      -0.042  -2.946   0.633  0.00  0.00    -0.137 N 
ATOM     10  C   UNL     1       0.399  -3.721  -0.365  0.00  0.00    +0.326 C 
ATOM     11  O   UNL     1       0.502  -3.346  -1.517  0.00  0.00    -0.251 OA
ATOM     12  N   UNL     1       0.718  -4.960   0.050  0.00  0.00    -0.284 N 
ATOM     13  H   UNL     1       1.108  -5.852  -0.464  0.00  0.00    +0.151 HD
BRANCH   6  14
ATOM     14  C   UNL     1       1.725  -5.298   2.281  0.00  0.00    +0.040 C 
BRANCH  14  15
ATOM     15  C   UNL     1       2.281  -6.659   1.858  0.00  0.00    +0.038 C 
BRANCH  15  16
ATOM     16  C   UNL     1       3.542  -6.948   2.630  0.00  0.00    -0.047 A 
ATOM     17  C   UNL     1       4.768  -6.555   2.126  0.00  0.00    +0.003 A 
ATOM     18  C   UNL     1       5.924  -6.816   2.837  0.00  0.00    +0.000 A 
ATOM     19  C   UNL     1       5.856  -7.479   4.048  0.00  0.00    +0.000 A 
ATOM     20  C   UNL     1       4.631  -7.877   4.550  0.00  0.00    +0.000 A 
ATOM     21  C   UNL     1       3.474  -7.611   3.841  0.00  0.00    +0.003 A 
ENDBRANCH  15  16
ENDBRANCH  14  15
ENDBRANCH   6  14
ENDBRANCH   1   9
BRANCH   2  22
ATOM     22  C   UNL     1       0.065   0.788   0.147  0.00  0.00    +0.021 C 
BRANCH  22  23
ATOM     23  N   UNL     1       1.254   1.637  -0.008  0.00  0.00    +0.395 N 
ATOM     24  H   UNL     1       1.874   1.207  -0.809  0.00  0.00    -0.080 HD
BRANCH  23  25
ATOM     25  C   UNL     1       0.880   3.000  -0.409  0.00  0.00    -0.002 C 
BRANCH  25  26
ATOM     26  C   UNL     1       0.491   3.006  -1.865  0.00  0.00    +0.089 A 
ATOM     27  C   UNL     1      -0.759   2.887  -2.346  0.00  0.00    +0.042 A 
ATOM     28  C   UNL     1      -0.664   2.946  -3.756  0.00  0.00    +0.041 A 
ATOM     29  C   UNL     1       0.640   3.089  -4.052  0.00  0.00    +0.195 A 
ATOM     30  O   UNL     1       1.335   3.124  -2.903  0.00  0.00    -0.470 OA
ENDBRANCH  25  26
ENDBRANCH  23  25
BRANCH  23  31
ATOM     31  C   UNL     1       2.055   1.652   1.223  0.00  0.00    -0.002 C 
BRANCH  31  32
ATOM     32  C   UNL     1       3.434   2.179   0.919  0.00  0.00    +0.089 A 
ATOM     33  C   UNL     1       3.840   3.452   1.068  0.00  0.00    +0.042 A 
ATOM     34  C   UNL     1       5.196   3.499   0.671  0.00  0.00    +0.041 A 
ATOM     35  C   UNL     1       5.536   2.252   0.296  0.00  0.00    +0.195 A 
ATOM     36  O   UNL     1       4.464   1.457   0.449  0.00  0.00    -0.470 OA
ENDBRANCH  31  32
ENDBRANCH  23  31
ENDBRANCH  22  23
ENDBRANCH   2  22
TORSDOF 10
