REMARK  Name = ZINC09072222
REMARK  4 active torsions:
REMARK  status: ('A' for Active; 'I' for Inactive)
REMARK    1  A    between atoms: C_1  and  C_2
REMARK    2  A    between atoms: C_5  and  N_9
REMARK    3  A    between atoms: C_10  and  C_12
REMARK    4  A    between atoms: C_23  and  C_25
REMARK                            x       y       z     vdW  Elec       q    Type
REMARK                         _______ _______ _______ _____ _____    ______ ____
ROOT
ATOM      1  C   UNL     1      -0.012   1.526   0.014  0.00  0.00    +0.125 C 
ATOM      2  C   UNL     1       0.005  -0.004   0.003  0.00  0.00    +0.019 C 
ATOM      3  C   UNL     1       0.879  -0.513  -1.147  0.00  0.00    +0.006 C 
ATOM      4  C   UNL     1       2.350  -0.204  -0.823  0.00  0.00    +0.044 C 
ATOM      5  C   UNL     1       2.440   1.214  -0.369  0.00  0.00    +0.015 A 
ATOM      6  C   UNL     1       1.426   2.032   0.015  0.00  0.00    +0.066 A 
ATOM      7  N   UNL     1       1.776   3.264   0.377  0.00  0.00    -0.229 NA
ATOM      8  C   UNL     1       3.029   3.669   0.367  0.00  0.00    +0.165 A 
ATOM      9  S   UNL     1       3.866   2.251  -0.192  0.00  0.00    -0.057 S 
ATOM     10  N   UNL     1       3.548   4.910   0.713  0.00  0.00    -0.261 N 
ATOM     11  C   UNL     1       4.875   5.131   0.634  0.00  0.00    +0.250 C 
ATOM     12  O   UNL     1       5.618   4.244   0.260  0.00  0.00    -0.270 OA
ATOM     13  H   UNL     1       2.955   5.617   1.011  0.00  0.00    +0.157 HD
ENDROOT
BRANCH  11  14
ATOM     14  C   UNL     1       5.428   6.451   1.003  0.00  0.00    +0.037 A 
ATOM     15  C   UNL     1       4.577   7.473   1.427  0.00  0.00    +0.013 A 
ATOM     16  C   UNL     1       5.100   8.702   1.775  0.00  0.00    +0.001 A 
ATOM     17  C   UNL     1       6.463   8.925   1.693  0.00  0.00    +0.000 A 
ATOM     18  C   UNL     1       7.311   7.918   1.268  0.00  0.00    +0.001 A 
ATOM     19  C   UNL     1       6.802   6.683   0.922  0.00  0.00    +0.013 A 
ENDBRANCH  11  14
BRANCH   1  21
ATOM     20  N   UNL     1      -0.856   3.337   1.472  0.00  0.00    -0.285 N 
ATOM     21  C   UNL     1      -0.720   2.014   1.251  0.00  0.00    +0.226 C 
ATOM     22  O   UNL     1      -1.169   1.218   2.048  0.00  0.00    -0.275 OA
ATOM     23  H   UNL     1      -0.440   3.974   0.870  0.00  0.00    +0.155 HD
BRANCH  20  28
ATOM     24  C   UNL     1      -3.860   5.181   5.919  0.00  0.00    +0.047 C 
ATOM     25  C   UNL     1      -3.062   4.691   4.738  0.00  0.00    -0.015 A 
ATOM     26  C   UNL     1      -3.079   5.400   3.551  0.00  0.00    +0.008 A 
ATOM     27  C   UNL     1      -2.345   4.957   2.469  0.00  0.00    +0.024 A 
ATOM     28  C   UNL     1      -1.596   3.791   2.569  0.00  0.00    +0.036 A 
ATOM     29  C   UNL     1      -1.578   3.080   3.761  0.00  0.00    +0.062 A 
ATOM     30  C   UNL     1      -2.311   3.532   4.844  0.00  0.00    +0.128 A 
ATOM     31  F   UNL     1      -2.296   2.842   6.006  0.00  0.00    -0.205 F 
ENDBRANCH  20  28
ENDBRANCH   1  21
TORSDOF 3
