REMARK  Name = ZINC14476015
REMARK  5 active torsions:
REMARK  status: ('A' for Active; 'I' for Inactive)
REMARK    1  A    between atoms: C_1  and  N_2
REMARK    2  A    between atoms: C_8  and  C_10
REMARK    3  A    between atoms: C_17  and  C_26
REMARK    4  A    between atoms: C_28  and  N_33
REMARK    5  A    between atoms: C_31  and  O_32
REMARK                            x       y       z     vdW  Elec       q    Type
REMARK                         _______ _______ _______ _____ _____    ______ ____
ROOT
ATOM      1  C   UNL     1       2.706  -4.081   1.169  0.00  0.00    +0.058 A 
ATOM      2  C   UNL     1       2.274  -3.668   2.430  0.00  0.00    +0.015 A 
ATOM      3  C   UNL     1       2.859  -4.188   3.563  0.00  0.00    +0.001 A 
ATOM      4  C   UNL     1       3.884  -5.115   3.456  0.00  0.00    +0.006 A 
ATOM      5  C   UNL     1       4.327  -5.531   2.221  0.00  0.00    -0.019 A 
ATOM      6  C   UNL     1       3.733  -5.032   1.056  0.00  0.00    +0.044 A 
ATOM      7  N   UNL     1       4.124  -5.465  -0.207  0.00  0.00    -0.336 N 
ATOM      8  C   UNL     1       5.209  -6.456  -0.378  0.00  0.00    +0.108 C 
ATOM      9  C   UNL     1       5.103  -7.391   0.813  0.00  0.00    +0.029 C 
ATOM     10  C   UNL     1       5.432  -6.502   2.060  0.00  0.00    +0.049 C 
ATOM     11  C   UNL     1       5.760  -7.503   3.106  0.00  0.00    -0.023 C 
ATOM     12  C   UNL     1       6.246  -8.588   2.516  0.00  0.00    -0.030 C 
ATOM     13  C   UNL     1       6.212  -8.437   0.984  0.00  0.00    +0.033 C 
ATOM     14  H   UNL     1       3.676  -5.111  -0.991  0.00  0.00    +0.147 HD
ENDROOT
BRANCH   1  22
ATOM     15  C   UNL     1       3.612   1.472  -1.455  0.00  0.00    -0.096 C 
ATOM     16  N   UNL     1       2.745   0.414  -0.921  0.00  0.00    +0.380 N 
ATOM     17  C   UNL     1       2.467  -0.568  -1.976  0.00  0.00    -0.060 C 
ATOM     18  C   UNL     1       1.472  -1.610  -1.454  0.00  0.00    +0.089 C 
ATOM     19  N   UNL     1       2.010  -2.188  -0.213  0.00  0.00    -0.301 N 
ATOM     20  C   UNL     1       2.467  -1.267   0.839  0.00  0.00    +0.089 C 
ATOM     21  C   UNL     1       3.415  -0.242   0.209  0.00  0.00    -0.060 C 
ATOM     22  C   UNL     1       2.081  -3.523  -0.045  0.00  0.00    +0.248 C 
ATOM     23  O   UNL     1       1.630  -4.268  -0.893  0.00  0.00    -0.270 OA
ATOM     24  H   UNL     1       1.876   0.820  -0.605  0.00  0.00    -0.082 HD
ENDBRANCH   1  22
BRANCH   8  25
ATOM     25  C   UNL     1       6.548  -5.765  -0.383  0.00  0.00    +0.017 A 
ATOM     26  C   UNL     1       6.701  -4.549   0.253  0.00  0.00    +0.041 A 
ATOM     27  C   UNL     1       7.930  -3.915   0.249  0.00  0.00    +0.127 A 
ATOM     28  C   UNL     1       9.008  -4.496  -0.392  0.00  0.00    +0.036 A 
ATOM     29  C   UNL     1       8.861  -5.712  -1.030  0.00  0.00    +0.048 A 
ATOM     30  C   UNL     1       7.630  -6.353  -1.022  0.00  0.00    +0.122 A 
BRANCH  27  31
ATOM     31  N   UNL     1       8.091  -2.611   0.931  0.00  0.00    +0.056 N 
ATOM     32  O   UNL     1       7.149  -2.102   1.492  0.00  0.00    -0.126 OA
ATOM     33  O   UNL     1       9.165  -2.056   0.928  0.00  0.00    -0.126 OA
ENDBRANCH  27  31
BRANCH  30  34
ATOM     34  O   UNL     1       7.484  -7.553  -1.645  0.00  0.00    -0.506 OA
ATOM     35  H   UNL     1       7.224  -7.484  -2.574  0.00  0.00    +0.292 HD
ENDBRANCH  30  34
ENDBRANCH   8  25
TORSDOF 4
