REMARK  Name = ZINC09483398
REMARK  11 active torsions:
REMARK  status: ('A' for Active; 'I' for Inactive)
REMARK    1  A    between atoms: C_1  and  C_2
REMARK    2  A    between atoms: C_2  and  C_35
REMARK    3  A    between atoms: C_6  and  C_25
REMARK    4  A    between atoms: N_8  and  C_16
REMARK    5  A    between atoms: C_16  and  C_17
REMARK    6  A    between atoms: N_19  and  C_20
REMARK    7  A    between atoms: C_20  and  C_21
REMARK    8  A    between atoms: C_21  and  C_22
REMARK    9  A    between atoms: C_22  and  N_70
REMARK   10  A    between atoms: C_23  and  N_70
REMARK   11  A    between atoms: C_24  and  N_70
REMARK                            x       y       z     vdW  Elec       q    Type
REMARK                         _______ _______ _______ _____ _____    ______ ____
ROOT
ATOM      1  C   UNL     1      -1.019   4.603   2.675  0.00  0.00    +0.011 C 
ATOM      2  C   UNL     1      -1.499   3.388   3.471  0.00  0.00    -0.023 C 
ATOM      3  C   UNL     1      -2.549   2.624   2.667  0.00  0.00    +0.058 C 
ATOM      4  C   UNL     1      -1.951   2.132   1.362  0.00  0.00    +0.017 C 
ATOM      5  C   UNL     1      -0.644   1.834   1.268  0.00  0.00    +0.037 C 
ATOM      6  C   UNL     1       0.080   1.364   0.028  0.00  0.00    +0.139 C 
ATOM      7  N   UNL     1      -0.668   1.494  -1.201  0.00  0.00    -0.308 N 
ATOM      8  C   UNL     1      -1.770   0.657  -1.298  0.00  0.00    +0.052 A 
ATOM      9  C   UNL     1      -1.766  -0.427  -2.169  0.00  0.00    +0.025 A 
ATOM     10  C   UNL     1      -2.863  -1.267  -2.215  0.00  0.00    +0.002 A 
ATOM     11  C   UNL     1      -3.958  -1.035  -1.403  0.00  0.00    +0.002 A 
ATOM     12  C   UNL     1      -3.968   0.048  -0.540  0.00  0.00    +0.025 A 
ATOM     13  C   UNL     1      -2.870   0.892  -0.500  0.00  0.00    +0.052 A 
ATOM     14  N   UNL     1      -2.832   2.004   0.336  0.00  0.00    -0.316 N 
ATOM     15  C   UNL     1       0.192   1.953   2.404  0.00  0.00    +0.163 C 
ATOM     16  O   UNL     1       1.366   1.654   2.305  0.00  0.00    -0.292 OA
ATOM     17  C   UNL     1      -0.324   2.436   3.727  0.00  0.00    +0.086 C 
ATOM     18  C   UNL     1      -2.097   3.845   4.804  0.00  0.00    +0.011 C 
ATOM     19  H   UNL     1      -3.465   2.722   0.179  0.00  0.00    +0.152 HD
ENDROOT
BRANCH   6  20
ATOM     20  C   UNL     1       1.355   2.156  -0.106  0.00  0.00    -0.022 A 
ATOM     21  C   UNL     1       1.332   3.409  -0.689  0.00  0.00    +0.007 A 
ATOM     22  C   UNL     1       2.501   4.138  -0.807  0.00  0.00    +0.020 A 
ATOM     23  C   UNL     1       3.695   3.609  -0.352  0.00  0.00    +0.041 A 
ATOM     24  C   UNL     1       3.718   2.353   0.227  0.00  0.00    +0.020 A 
ATOM     25  C   UNL     1       2.548   1.627   0.350  0.00  0.00    +0.007 A 
ATOM     26 CL   UNL     1       5.164   4.521  -0.506  0.00  0.00    -0.084 Cl
ENDBRANCH   6  20
BRANCH   7  27
ATOM     27  C   UNL     1       0.208   1.340  -2.370  0.00  0.00    +0.201 C 
BRANCH  27  28
ATOM     28  C   UNL     1      -0.608   1.469  -3.630  0.00  0.00    +0.230 C 
ATOM     29  O   UNL     1      -1.775   1.793  -3.566  0.00  0.00    -0.274 OA
ATOM     30  N   UNL     1      -0.041   1.225  -4.828  0.00  0.00    -0.314 N 
ATOM     31  H   UNL     1       0.893   0.966  -4.879  0.00  0.00    +0.149 HD
BRANCH  30  32
ATOM     32  C   UNL     1      -0.834   1.350  -6.053  0.00  0.00    +0.102 C 
BRANCH  32  33
ATOM     33  C   UNL     1       0.042   1.021  -7.264  0.00  0.00    +0.000 C 
BRANCH  33  34
ATOM     34  C   UNL     1      -0.786   1.152  -8.543  0.00  0.00    -0.078 C 
BRANCH  34  37
ATOM     35  C   UNL     1       0.459  -0.577  -9.694  0.00  0.00    -0.097 C 
ATOM     36  C   UNL     1      -0.631   1.177 -10.959  0.00  0.00    -0.097 C 
ATOM     37  N   UNL     1       0.078   0.851  -9.704  0.00  0.00    +0.376 N 
ATOM     38  H   UNL     1       0.929   1.423  -9.643  0.00  0.00    -0.083 HD
ENDBRANCH  34  37
ENDBRANCH  33  34
ENDBRANCH  32  33
ENDBRANCH  30  32
ENDBRANCH  27  28
ENDBRANCH   7  27
TORSDOF 7
