REMARK  Name = ZINC12655047
REMARK  7 active torsions:
REMARK  status: ('A' for Active; 'I' for Inactive)
REMARK    1  A    between atoms: C_4  and  C_7
REMARK    2  A    between atoms: C_8  and  C_9
REMARK    3  A    between atoms: C_8  and  N_24
REMARK    4  A    between atoms: N_11  and  C_12
REMARK    5  A    between atoms: C_12  and  C_13
REMARK    6  A    between atoms: C_13  and  C_14
REMARK    7  A    between atoms: C_25  and  C_27
REMARK                            x       y       z     vdW  Elec       q    Type
REMARK                         _______ _______ _______ _____ _____    ______ ____
ROOT
ATOM      1  C   UNL     1      -4.639  -4.350  -1.045  0.00  0.00    +0.036 C 
ATOM      2  C   UNL     1      -3.648  -4.420  -1.964  0.00  0.00    +0.097 C 
ENDROOT
BRANCH   1   6
ATOM      3  C   UNL     1      -7.794  -7.183  -1.109  0.00  0.00    +0.000 A 
ATOM      4  C   UNL     1      -7.434  -6.581   0.084  0.00  0.00    +0.001 A 
ATOM      5  C   UNL     1      -6.409  -5.659   0.113  0.00  0.00    +0.008 A 
ATOM      6  C   UNL     1      -5.733  -5.333  -1.067  0.00  0.00    -0.023 A 
ATOM      7  C   UNL     1      -6.107  -5.942  -2.269  0.00  0.00    +0.008 A 
ATOM      8  C   UNL     1      -7.130  -6.867  -2.281  0.00  0.00    +0.001 A 
ENDBRANCH   1   6
BRANCH   2   9
ATOM      9  C   UNL     1      -2.640  -3.352  -2.041  0.00  0.00    +0.258 C 
ATOM     10  O   UNL     1      -1.750  -3.415  -2.867  0.00  0.00    -0.269 OA
ATOM     11  N   UNL     1      -2.703  -2.304  -1.196  0.00  0.00    -0.310 N 
ATOM     12  H   UNL     1      -3.413  -2.254  -0.536  0.00  0.00    +0.149 HD
BRANCH  11  13
ATOM     13  C   UNL     1      -1.698  -1.241  -1.272  0.00  0.00    +0.112 C 
BRANCH  13  14
ATOM     14  C   UNL     1      -1.997  -0.180  -0.210  0.00  0.00    +0.093 C 
BRANCH  14  15
ATOM     15  C   UNL     1      -0.964   0.914  -0.289  0.00  0.00    +0.110 A 
ATOM     16  N   UNL     1      -1.240   2.237  -0.445  0.00  0.00    -0.342 N 
ATOM     17  H   UNL     1      -2.148   2.647  -0.526  0.00  0.00    +0.167 HD
ATOM     18  C   UNL     1      -0.033   2.908  -0.471  0.00  0.00    +0.066 A 
ATOM     19  C   UNL     1       0.328   4.242  -0.603  0.00  0.00    +0.028 A 
ATOM     20  C   UNL     1       1.662   4.592  -0.589  0.00  0.00    +0.002 A 
ATOM     21  C   UNL     1       2.643   3.622  -0.444  0.00  0.00    +0.002 A 
ATOM     22  C   UNL     1       2.305   2.304  -0.312  0.00  0.00    +0.030 A 
ATOM     23  C   UNL     1       0.960   1.926  -0.324  0.00  0.00    +0.089 A 
ATOM     24  N   UNL     1       0.323   0.731  -0.218  0.00  0.00    -0.232 NA
ENDBRANCH  14  15
ENDBRANCH  13  14
ENDBRANCH  11  13
ENDBRANCH   2   9
BRANCH   2  25
ATOM     25  N   UNL     1      -3.583  -5.507  -2.841  0.00  0.00    -0.277 N 
ATOM     26  C   UNL     1      -3.565  -5.298  -4.172  0.00  0.00    +0.248 C 
ATOM     27  O   UNL     1      -3.536  -4.164  -4.610  0.00  0.00    -0.270 OA
ATOM     28  H   UNL     1      -3.552  -6.411  -2.491  0.00  0.00    +0.155 HD
BRANCH  26  29
ATOM     29  C   UNL     1      -3.579  -6.448  -5.101  0.00  0.00    +0.037 A 
ATOM     30  C   UNL     1      -3.490  -7.750  -4.605  0.00  0.00    +0.013 A 
ATOM     31  C   UNL     1      -3.509  -8.819  -5.476  0.00  0.00    +0.001 A 
ATOM     32  C   UNL     1      -3.605  -8.603  -6.840  0.00  0.00    +0.000 A 
ATOM     33  C   UNL     1      -3.687  -7.315  -7.338  0.00  0.00    +0.001 A 
ATOM     34  C   UNL     1      -3.675  -6.237  -6.477  0.00  0.00    +0.013 A 
ENDBRANCH  26  29
ENDBRANCH   2  25
TORSDOF 7
