REMARK  Name = ZINC45326607
REMARK  9 active torsions:
REMARK  status: ('A' for Active; 'I' for Inactive)
REMARK    1  A    between atoms: C_1  and  C_2
REMARK    2  A    between atoms: C_3  and  C_26
REMARK    3  A    between atoms: C_4  and  C_18
REMARK    4  A    between atoms: N_9  and  C_10
REMARK    5  A    between atoms: C_13  and  O_16
REMARK    6  A    between atoms: O_16  and  C_17
REMARK    7  A    between atoms: N_28  and  C_29
REMARK    8  A    between atoms: C_32  and  O_35
REMARK    9  A    between atoms: O_35  and  C_36
REMARK                            x       y       z     vdW  Elec       q    Type
REMARK                         _______ _______ _______ _____ _____    ______ ____
ROOT
ATOM      1  C   UNL     1      -1.603   1.643  -0.008  0.00  0.00    +0.062 C 
ATOM      2  C   UNL     1      -0.959   0.291   0.166  0.00  0.00    +0.025 C 
ATOM      3  C   UNL     1      -1.713  -0.823   0.054  0.00  0.00    +0.056 C 
ATOM      4  C   UNL     1      -1.026  -2.161   0.236  0.00  0.00    +0.142 C 
ATOM      5  N   UNL     1       0.419  -2.136   0.522  0.00  0.00    -0.315 N 
ATOM      6  C   UNL     1       1.036  -0.941   0.604  0.00  0.00    +0.142 C 
ATOM      7  S   UNL     1       2.715  -0.897   0.935  0.00  0.00    -0.018 S 
ATOM      8  N   UNL     1       0.380   0.213   0.428  0.00  0.00    -0.255 N 
ATOM      9  H   UNL     1       0.914  -2.960   0.649  0.00  0.00    +0.149 HD
ENDROOT
BRANCH   4  10
ATOM     10  C   UNL     1      -1.710  -2.885   1.368  0.00  0.00    +0.013 A 
ATOM     11  C   UNL     1      -2.522  -2.188   2.243  0.00  0.00    +0.011 A 
ATOM     12  C   UNL     1      -3.150  -2.850   3.280  0.00  0.00    +0.039 A 
ATOM     13  C   UNL     1      -2.966  -4.213   3.445  0.00  0.00    +0.126 A 
ATOM     14  C   UNL     1      -2.154  -4.911   2.569  0.00  0.00    +0.077 A 
ATOM     15  C   UNL     1      -1.529  -4.248   1.527  0.00  0.00    +0.131 A 
ATOM     16  F   UNL     1      -0.740  -4.930   0.668  0.00  0.00    -0.205 F 
ATOM     17  F   UNL     1      -3.580  -4.860   4.460  0.00  0.00    -0.205 F 
ENDBRANCH   4  10
BRANCH   8  18
ATOM     18  C   UNL     1       1.106   1.409   0.526  0.00  0.00    +0.040 A 
ATOM     19  C   UNL     1       1.094   2.134   1.710  0.00  0.00    +0.027 A 
ATOM     20  C   UNL     1       1.809   3.311   1.805  0.00  0.00    +0.047 A 
ATOM     21  C   UNL     1       2.540   3.769   0.719  0.00  0.00    +0.120 A 
ATOM     22  C   UNL     1       2.552   3.045  -0.465  0.00  0.00    +0.047 A 
ATOM     23  C   UNL     1       1.843   1.865  -0.559  0.00  0.00    +0.027 A 
BRANCH  21  24
ATOM     24  O   UNL     1       3.244   4.928   0.813  0.00  0.00    -0.495 OA
ATOM     25  C   UNL     1       3.974   5.340  -0.344  0.00  0.00    +0.277 C 
ENDBRANCH  21  24
ENDBRANCH   8  18
BRANCH   3  26
ATOM     26  C   UNL     1      -3.100  -0.744  -0.223  0.00  0.00    +0.248 C 
ATOM     27  O   UNL     1      -3.651   0.341  -0.264  0.00  0.00    -0.270 OA
ATOM     28  N   UNL     1      -3.808  -1.869  -0.441  0.00  0.00    -0.282 N 
ATOM     29  H   UNL     1      -3.383  -2.736  -0.349  0.00  0.00    +0.155 HD
BRANCH  28  30
ATOM     30  C   UNL     1      -5.159  -1.787  -0.801  0.00  0.00    +0.034 A 
ATOM     31  C   UNL     1      -5.594  -0.770  -1.641  0.00  0.00    +0.027 A 
ATOM     32  C   UNL     1      -6.926  -0.690  -1.996  0.00  0.00    +0.047 A 
ATOM     33  C   UNL     1      -7.830  -1.625  -1.513  0.00  0.00    +0.120 A 
ATOM     34  C   UNL     1      -7.397  -2.641  -0.674  0.00  0.00    +0.047 A 
ATOM     35  C   UNL     1      -6.064  -2.726  -0.324  0.00  0.00    +0.027 A 
BRANCH  33  36
ATOM     36  O   UNL     1      -9.142  -1.545  -1.863  0.00  0.00    -0.495 OA
ATOM     37  C   UNL     1     -10.017  -2.540  -1.329  0.00  0.00    +0.277 C 
ENDBRANCH  33  36
ENDBRANCH  28  30
ENDBRANCH   3  26
TORSDOF 6
