REMARK  Name = ZINC15082496
REMARK  5 active torsions:
REMARK  status: ('A' for Active; 'I' for Inactive)
REMARK    1  A    between atoms: C_1  and  C_2
REMARK    2  A    between atoms: C_2  and  N_3
REMARK    3  A    between atoms: C_15  and  C_23
REMARK    4  A    between atoms: C_17  and  C_21
REMARK    5  A    between atoms: C_18  and  N_20
REMARK                            x       y       z     vdW  Elec       q    Type
REMARK                         _______ _______ _______ _____ _____    ______ ____
ROOT
ATOM      1  N   UNL     1      -4.769   8.760   5.530  0.00  0.00    -0.324 N 
ATOM      2  C   UNL     1      -3.929   8.268   4.554  0.00  0.00    +0.161 A 
ATOM      3  N   UNL     1      -2.695   7.821   4.680  0.00  0.00    -0.207 NA
ATOM      4  C   UNL     1      -1.990   7.369   3.645  0.00  0.00    +0.154 A 
ATOM      5  C   UNL     1      -2.655   7.403   2.414  0.00  0.00    +0.100 A 
ATOM      6  S   UNL     1      -4.235   8.082   2.855  0.00  0.00    -0.047 S 
ATOM      7  C   UNL     1      -2.065   6.969   1.232  0.00  0.00    +0.157 A 
ATOM      8  C   UNL     1      -0.767   6.486   1.281  0.00  0.00    +0.073 A 
ATOM      9  C   UNL     1      -0.104   6.451   2.510  0.00  0.00    +0.258 A 
ATOM     10  O   UNL     1       1.040   6.026   2.556  0.00  0.00    -0.267 OA
ATOM     11  N   UNL     1      -0.690   6.874   3.639  0.00  0.00    -0.306 N 
ATOM     12  H   UNL     1      -0.195   6.833   4.472  0.00  0.00    +0.170 HD
ATOM     13  C   UNL     1      -0.079   6.003   0.034  0.00  0.00    +0.103 C 
ATOM     14  C   UNL     1      -0.807   6.498  -1.185  0.00  0.00    +0.098 C 
ATOM     15  C   UNL     1      -2.074   6.968  -1.103  0.00  0.00    +0.199 C 
ATOM     16  O   UNL     1      -2.741   7.016   0.063  0.00  0.00    -0.440 OA
ATOM     17  H   UNL     1      -5.662   9.058   5.296  0.00  0.00    +0.148 HD
ENDROOT
BRANCH  13  18
ATOM     18  C   UNL     1      -0.059   4.497   0.026  0.00  0.00    -0.034 A 
ATOM     19  C   UNL     1       1.148   3.822   0.012  0.00  0.00    +0.006 A 
ATOM     20  C   UNL     1       1.167   2.440   0.004  0.00  0.00    +0.020 A 
ATOM     21  C   UNL     1      -0.021   1.732   0.012  0.00  0.00    +0.041 A 
ATOM     22  C   UNL     1      -1.229   2.407   0.021  0.00  0.00    +0.020 A 
ATOM     23  C   UNL     1      -1.247   3.789   0.034  0.00  0.00    +0.006 A 
ATOM     24 CL   UNL     1       0.002  -0.004   0.002  0.00  0.00    -0.084 Cl
ENDBRANCH  13  18
BRANCH  15  25
ATOM     25  N   UNL     1      -2.696   7.409  -2.244  0.00  0.00    -0.328 N 
ATOM     26  H   UNL     1      -2.228   7.380  -3.094  0.00  0.00    +0.145 HD
ATOM     27  H   UNL     1      -3.603   7.748  -2.202  0.00  0.00    +0.145 HD
ENDBRANCH  15  25
BRANCH   1  29
ATOM     28  C   UNL     1      -5.428   9.412   7.793  0.00  0.00    +0.024 C 
ATOM     29  C   UNL     1      -4.313   8.833   6.920  0.00  0.00    +0.100 C 
ENDBRANCH   1  29
BRANCH  14  30
ATOM     30  C   UNL     1      -0.148   6.471  -2.456  0.00  0.00    +0.101 C 
ATOM     31  N   UNL     1       0.375   6.449  -3.465  0.00  0.00    -0.191 NA
ENDBRANCH  14  30
TORSDOF 4
