REMARK  Name = ZINC13076346
REMARK  6 active torsions:
REMARK  status: ('A' for Active; 'I' for Inactive)
REMARK    1  A    between atoms: C_1  and  C_2
REMARK    2  A    between atoms: C_2  and  C_4
REMARK    3  A    between atoms: C_2  and  N_14
REMARK    4  A    between atoms: N_14  and  S_15
REMARK    5  A    between atoms: S_15  and  C_18
REMARK    6  A    between atoms: C_20  and  C_25
REMARK                            x       y       z     vdW  Elec       q    Type
REMARK                         _______ _______ _______ _____ _____    ______ ____
ROOT
ATOM      1  N   UNL     1       1.458   1.716  -0.028  0.00  0.00    -0.187 NA
ATOM      2  H   UNL     1       1.732   2.574   0.332  0.00  0.00    +0.148 HD
ENDROOT
BRANCH   1   3
ATOM      3  S   UNL     1       2.600   0.618  -0.510  0.00  0.00    +0.060 S 
ATOM      4  O   UNL     1       3.865   1.233  -0.311  0.00  0.00    -0.153 OA
ATOM      5  O   UNL     1       2.252  -0.621   0.094  0.00  0.00    -0.153 OA
BRANCH   3   6
ATOM      6  C   UNL     1       2.413   0.401  -2.249  0.00  0.00    +0.120 A 
ATOM      7  C   UNL     1       2.035  -0.826  -2.752  0.00  0.00    +0.044 A 
ATOM      8  C   UNL     1       1.887  -0.997  -4.130  0.00  0.00    +0.065 A 
ATOM      9  C   UNL     1       2.124   0.078  -4.990  0.00  0.00    +0.016 A 
ATOM     10  C   UNL     1       2.502   1.300  -4.474  0.00  0.00    +0.018 A 
ATOM     11  C   UNL     1       2.641   1.464  -3.106  0.00  0.00    +0.044 A 
ATOM     12 BR   UNL     1       3.151   3.145  -2.406  0.00  0.00    -0.048 Br
BRANCH   8  13
ATOM     13  C   UNL     1       1.482  -2.308  -4.676  0.00  0.00    +0.387 C 
ATOM     14  O   UNL     1       1.277  -3.241  -3.926  0.00  0.00    -0.241 OA
ATOM     15  O   UNL     1       1.341  -2.469  -6.006  0.00  0.00    -0.241 OA
ENDBRANCH   8  13
ENDBRANCH   3   6
ENDBRANCH   1   3
BRANCH   1  17
ATOM     16  C   UNL     1      -0.616   2.321  -1.173  0.00  0.00    +0.026 C 
ATOM     17  C   UNL     1       0.035   1.393  -0.146  0.00  0.00    +0.080 C 
BRANCH  17  18
ATOM     18  C   UNL     1      -0.645   1.578   1.212  0.00  0.00    -0.012 C 
ATOM     19  C   UNL     1      -0.488   3.030   1.667  0.00  0.00    +0.012 C 
ATOM     20  C   UNL     1      -1.168   3.216   3.025  0.00  0.00    -0.010 C 
ATOM     21  C   UNL     1      -2.655   2.877   2.901  0.00  0.00    +0.007 C 
ATOM     22  C   UNL     1      -2.812   1.425   2.447  0.00  0.00    -0.010 C 
ATOM     23  C   UNL     1      -2.132   1.240   1.089  0.00  0.00    +0.012 C 
ATOM     24  C   UNL     1      -2.161   0.496   3.474  0.00  0.00    +0.007 C 
ATOM     25  C   UNL     1      -0.674   0.834   3.597  0.00  0.00    -0.010 C 
ATOM     26  C   UNL     1      -0.517   2.287   4.052  0.00  0.00    +0.007 C 
ATOM     27  C   UNL     1       0.006   0.649   2.239  0.00  0.00    +0.012 C 
ENDBRANCH  17  18
ENDBRANCH   1  17
TORSDOF 5
