REMARK  Name = ZINC36205465
REMARK  11 active torsions:
REMARK  status: ('A' for Active; 'I' for Inactive)
REMARK    1  A    between atoms: C_4  and  C_7
REMARK    2  A    between atoms: C_7  and  C_8
REMARK    3  A    between atoms: C_8  and  C_10
REMARK    4  A    between atoms: C_8  and  O_38
REMARK    5  A    between atoms: C_10  and  N_11
REMARK    6  A    between atoms: N_11  and  C_12
REMARK    7  A    between atoms: N_11  and  C_20
REMARK    8  A    between atoms: C_12  and  C_13
REMARK    9  A    between atoms: C_13  and  N_14
REMARK   10  A    between atoms: C_20  and  C_21
REMARK   11  A    between atoms: C_27  and  C_32
REMARK                            x       y       z     vdW  Elec       q    Type
REMARK                         _______ _______ _______ _____ _____    ______ ____
ROOT
ATOM      1  N   UNL     1       5.603  -2.168   2.985  0.00  0.00    +0.387 N 
ATOM      2  H   UNL     1       4.777  -2.527   3.438  0.00  0.00    -0.081 HD
ENDROOT
BRANCH   1   3
ATOM      3  C   UNL     1       5.366  -2.073   1.538  0.00  0.00    -0.046 C 
BRANCH   3   4
ATOM      4  C   UNL     1       4.910  -3.433   1.006  0.00  0.00    +0.102 C 
BRANCH   4   5
ATOM      5  O   UNL     1       3.679  -3.801   1.632  0.00  0.00    -0.393 OA
ATOM      6  H   UNL     1       2.942  -3.209   1.428  0.00  0.00    +0.210 HD
ENDBRANCH   4   5
BRANCH   4   7
ATOM      7  C   UNL     1       4.705  -3.346  -0.508  0.00  0.00    +0.064 C 
BRANCH   7  11
ATOM      8  C   UNL     1       3.771  -7.219  -2.046  0.00  0.00    +0.000 A 
ATOM      9  C   UNL     1       2.756  -6.379  -1.627  0.00  0.00    +0.000 A 
ATOM     10  C   UNL     1       3.059  -5.125  -1.129  0.00  0.00    +0.004 A 
ATOM     11  C   UNL     1       4.376  -4.713  -1.050  0.00  0.00    -0.045 A 
ATOM     12  C   UNL     1       5.390  -5.553  -1.468  0.00  0.00    +0.004 A 
ATOM     13  C   UNL     1       5.087  -6.806  -1.968  0.00  0.00    +0.000 A 
ENDBRANCH   7  11
ENDBRANCH   4   7
ENDBRANCH   3   4
ENDBRANCH   1   3
BRANCH   1  14
ATOM     14  C   UNL     1       5.914  -0.835   3.518  0.00  0.00    -0.063 C 
BRANCH  14  15
ATOM     15  C   UNL     1       4.684   0.066   3.389  0.00  0.00    +0.066 C 
BRANCH  15  16
ATOM     16  N   UNL     1       4.962   1.366   4.014  0.00  0.00    -0.300 NA
ATOM     17  C   UNL     1       5.134   1.227   5.467  0.00  0.00    +0.112 C 
ATOM     18  C   UNL     1       5.480   2.591   6.068  0.00  0.00    +0.175 C 
ATOM     19  O   UNL     1       4.453   3.529   5.732  0.00  0.00    -0.377 OA
ATOM     20  C   UNL     1       4.260   3.690   4.324  0.00  0.00    +0.175 C 
ATOM     21  C   UNL     1       3.901   2.336   3.705  0.00  0.00    +0.112 C 
ENDBRANCH  15  16
ENDBRANCH  14  15
ENDBRANCH   1  14
BRANCH   1  22
ATOM     22  C   UNL     1       6.733  -3.072   3.237  0.00  0.00    -0.003 C 
BRANCH  22  23
ATOM     23  C   UNL     1       6.899  -3.266   4.723  0.00  0.00    +0.094 A 
ATOM     24  N   UNL     1       7.894  -4.066   5.184  0.00  0.00    -0.312 N 
ATOM     25  H   UNL     1       8.485  -4.503   4.551  0.00  0.00    +0.170 HD
ATOM     26  C   UNL     1       8.076  -4.265   6.503  0.00  0.00    +0.260 A 
ATOM     27  O   UNL     1       8.975  -4.986   6.901  0.00  0.00    -0.267 OA
ATOM     28  C   UNL     1       7.199  -3.618   7.430  0.00  0.00    +0.080 A 
ATOM     29  C   UNL     1       7.192  -3.674   8.887  0.00  0.00    +0.004 A 
ATOM     30  C   UNL     1       6.254  -2.967   9.562  0.00  0.00    +0.056 A 
ATOM     31  S   UNL     1       5.318  -2.179   8.265  0.00  0.00    -0.076 S 
ATOM     32  C   UNL     1       6.200  -2.811   6.861  0.00  0.00    +0.116 A 
ATOM     33  N   UNL     1       6.086  -2.658   5.544  0.00  0.00    -0.229 NA
BRANCH  29  34
ATOM     34  C   UNL     1       8.193  -4.489   9.616  0.00  0.00    -0.017 A 
ATOM     35  C   UNL     1       8.413  -5.817   9.251  0.00  0.00    +0.008 A 
ATOM     36  C   UNL     1       9.346  -6.571   9.933  0.00  0.00    +0.001 A 
ATOM     37  C   UNL     1      10.062  -6.012  10.977  0.00  0.00    +0.000 A 
ATOM     38  C   UNL     1       9.847  -4.696  11.343  0.00  0.00    +0.001 A 
ATOM     39  C   UNL     1       8.921  -3.930  10.665  0.00  0.00    +0.008 A 
ENDBRANCH  29  34
ENDBRANCH  22  23
ENDBRANCH   1  22
TORSDOF 11
