REMARK  Name = ZINC12710615
REMARK  9 active torsions:
REMARK  status: ('A' for Active; 'I' for Inactive)
REMARK    1  A    between atoms: C_8  and  C_16
REMARK    2  A    between atoms: N_18  and  C_19
REMARK    3  A    between atoms: N_18  and  C_22
REMARK    4  A    between atoms: C_19  and  C_20
REMARK    5  A    between atoms: C_20  and  O_21
REMARK    6  A    between atoms: C_22  and  C_24
REMARK    7  A    between atoms: C_22  and  C_29
REMARK    8  A    between atoms: N_31  and  C_32
REMARK    9  A    between atoms: C_32  and  C_33
REMARK                            x       y       z     vdW  Elec       q    Type
REMARK                         _______ _______ _______ _____ _____    ______ ____
ROOT
ATOM      1  C   UNL     1       5.834  -1.968  -0.331  0.00  0.00    +0.248 C 
ATOM      2  O   UNL     1       6.875  -1.881  -0.947  0.00  0.00    -0.270 OA
ATOM      3  N   UNL     1       5.656  -2.969   0.553  0.00  0.00    -0.277 N 
ENDROOT
BRANCH   1  11
ATOM      4  C   UNL     1       0.730  -0.041  -2.985  0.00  0.00    +0.001 A 
ATOM      5  C   UNL     1       0.253   0.970  -2.025  0.00  0.00    +0.004 A 
ATOM      6  C   UNL     1       0.900   1.158  -0.896  0.00  0.00    +0.047 A 
ATOM      7  C   UNL     1       2.103   0.359  -0.588  0.00  0.00    +0.136 A 
ATOM      8  C   UNL     1       2.515  -0.557  -1.433  0.00  0.00    +0.018 A 
ATOM      9  C   UNL     1       1.795  -0.759  -2.705  0.00  0.00    +0.011 A 
ATOM     10  C   UNL     1       3.684  -1.390  -1.130  0.00  0.00    +0.025 C 
ATOM     11  C   UNL     1       4.765  -0.979  -0.549  0.00  0.00    +0.048 C 
ATOM     12  C   UNL     1       5.011   0.393  -0.091  0.00  0.00    +0.029 A 
ATOM     13  C   UNL     1       6.357   0.978  -0.254  0.00  0.00    +0.012 A 
ATOM     14  C   UNL     1       6.606   2.195   0.174  0.00  0.00    +0.001 A 
ATOM     15  C   UNL     1       5.539   2.980   0.818  0.00  0.00    +0.004 A 
ATOM     16  C   UNL     1       4.337   2.464   0.954  0.00  0.00    +0.047 A 
ATOM     17  C   UNL     1       4.054   1.102   0.462  0.00  0.00    +0.136 A 
ATOM     18  O   UNL     1       2.790   0.615   0.554  0.00  0.00    -0.455 OA
ENDBRANCH   1  11
BRANCH   3  19
ATOM     19  C   UNL     1       4.367  -3.125   1.233  0.00  0.00    +0.137 C 
BRANCH  19  20
ATOM     20  C   UNL     1       4.353  -2.269   2.500  0.00  0.00    +0.175 C 
BRANCH  20  21
ATOM     21  O   UNL     1       4.432  -0.887   2.143  0.00  0.00    -0.393 OA
ATOM     22  H   UNL     1       4.505  -0.289   2.899  0.00  0.00    +0.209 HD
ENDBRANCH  20  21
ENDBRANCH  19  20
ENDBRANCH   3  19
BRANCH   3  23
ATOM     23  C   UNL     1       6.750  -3.902   0.834  0.00  0.00    +0.228 C 
BRANCH  23  24
ATOM     24  C   UNL     1       7.013  -3.935   2.317  0.00  0.00    +0.134 A 
ATOM     25  C   UNL     1       8.159  -3.570   2.921  0.00  0.00    +0.047 A 
ATOM     26  C   UNL     1       7.967  -3.758   4.309  0.00  0.00    +0.041 A 
ATOM     27  C   UNL     1       6.719  -4.234   4.470  0.00  0.00    +0.195 A 
ATOM     28  O   UNL     1       6.146  -4.339   3.260  0.00  0.00    -0.465 OA
ENDBRANCH  23  24
BRANCH  23  29
ATOM     29  C   UNL     1       6.369  -5.281   0.360  0.00  0.00    +0.241 C 
ATOM     30  O   UNL     1       5.213  -5.531   0.090  0.00  0.00    -0.273 OA
ATOM     31  N   UNL     1       7.312  -6.236   0.237  0.00  0.00    -0.311 N 
ATOM     32  H   UNL     1       8.236  -6.035   0.453  0.00  0.00    +0.149 HD
BRANCH  31  33
ATOM     33  C   UNL     1       6.941  -7.576  -0.223  0.00  0.00    +0.135 C 
BRANCH  33  34
ATOM     34  C   UNL     1       8.188  -8.461  -0.274  0.00  0.00    +0.135 C 
ATOM     35  C   UNL     1       7.809  -9.874  -0.757  0.00  0.00    +0.035 C 
ATOM     36  C   UNL     1       8.670 -10.085  -2.026  0.00  0.00    +0.031 C 
ATOM     37  C   UNL     1       9.804  -9.048  -1.825  0.00  0.00    +0.160 C 
ATOM     38  O   UNL     1       9.130  -7.925  -1.218  0.00  0.00    -0.375 OA
ENDBRANCH  33  34
ENDBRANCH  31  33
ENDBRANCH  23  29
ENDBRANCH   3  23
TORSDOF 9
