REMARK  Name = ZINC33810138
REMARK  9 active torsions:
REMARK  status: ('A' for Active; 'I' for Inactive)
REMARK    1  A    between atoms: C_1  and  C_2
REMARK    2  A    between atoms: C_2  and  C_3
REMARK    3  A    between atoms: C_3  and  S_4
REMARK    4  A    between atoms: S_4  and  C_5
REMARK    5  A    between atoms: C_12  and  C_22
REMARK    6  A    between atoms: C_25  and  O_31
REMARK    7  A    between atoms: C_26  and  O_28
REMARK    8  A    between atoms: O_28  and  C_29
REMARK    9  A    between atoms: C_29  and  C_30
REMARK                            x       y       z     vdW  Elec       q    Type
REMARK                         _______ _______ _______ _____ _____    ______ ____
ROOT
ATOM      1  C   UNL     1       4.521   3.064  -3.576  0.00  0.00    +0.171 A 
ATOM      2  N   UNL     1       4.929   2.487  -2.412  0.00  0.00    -0.208 NA
ATOM      3  C   UNL     1       4.270   2.760  -1.242  0.00  0.00    +0.135 A 
ATOM      4  C   UNL     1       3.209   3.612  -1.258  0.00  0.00    +0.069 A 
ATOM      5  C   UNL     1       2.822   4.194  -2.484  0.00  0.00    +0.258 A 
ATOM      6  O   UNL     1       1.876   4.967  -2.526  0.00  0.00    -0.267 OA
ATOM      7  N   UNL     1       3.498   3.893  -3.604  0.00  0.00    -0.302 N 
ATOM      8  C   UNL     1       2.458   3.932   0.000  0.00  0.00    +0.093 C 
ATOM      9  C   UNL     1       3.256   3.563   1.225  0.00  0.00    +0.024 C 
ATOM     10  C   UNL     1       4.303   2.715   1.142  0.00  0.00    +0.017 C 
ATOM     11  N   UNL     1       4.675   2.181  -0.062  0.00  0.00    -0.302 N 
ATOM     12  C   UNL     1       5.094   2.333   2.369  0.00  0.00    +0.051 C 
ATOM     13  C   UNL     1       5.085   3.493   3.368  0.00  0.00    +0.014 C 
ATOM     14  C   UNL     1       3.630   3.819   3.720  0.00  0.00    +0.080 C 
ATOM     15  C   UNL     1       2.878   4.129   2.455  0.00  0.00    +0.162 C 
ATOM     16  O   UNL     1       1.926   4.883   2.497  0.00  0.00    -0.292 OA
ATOM     17  H   UNL     1       5.303   1.279  -0.080  0.00  0.00    +0.153 HD
ATOM     18  H   UNL     1       3.186   4.351  -4.554  0.00  0.00    +0.171 HD
ENDROOT
BRANCH   8  19
ATOM     19  C   UNL     1       1.160   3.166   0.008  0.00  0.00    -0.032 A 
ATOM     20  C   UNL     1       1.175   1.783   0.000  0.00  0.00    +0.008 A 
ATOM     21  C   UNL     1      -0.013   1.076   0.008  0.00  0.00    +0.049 A 
ATOM     22  C   UNL     1      -1.222   1.752   0.017  0.00  0.00    +0.158 A 
ATOM     23  C   UNL     1      -1.237   3.144   0.030  0.00  0.00    +0.162 A 
ATOM     24  C   UNL     1      -0.043   3.847   0.023  0.00  0.00    +0.054 A 
BRANCH  22  25
ATOM     25  O   UNL     1      -2.391   1.058   0.020  0.00  0.00    -0.503 OA
ATOM     26  H   UNL     1      -3.350   1.596   0.027  0.00  0.00    +0.292 HD
ENDBRANCH  22  25
BRANCH  23  27
ATOM     27  O   UNL     1      -2.421   3.812   0.045  0.00  0.00    -0.489 OA
BRANCH  27  28
ATOM     28  C   UNL     1      -2.361   5.240   0.053  0.00  0.00    +0.226 C 
ATOM     29  C   UNL     1      -3.780   5.811   0.069  0.00  0.00    +0.048 C 
ENDBRANCH  27  28
ENDBRANCH  23  27
ENDBRANCH   8  19
BRANCH   1  30
ATOM     30  S   UNL     1       5.378   2.697  -5.071  0.00  0.00    -0.088 S 
BRANCH  30  31
ATOM     31  C   UNL     1       4.431   3.710  -6.234  0.00  0.00    +0.077 C 
BRANCH  31  33
ATOM     32  C   UNL     1       4.208   4.404  -8.624  0.00  0.00    +0.004 C 
ATOM     33  C   UNL     1       5.010   3.548  -7.641  0.00  0.00    +0.008 C 
ENDBRANCH  31  33
ENDBRANCH  30  31
ENDBRANCH   1  30
TORSDOF 7
