REMARK  Name = ZINC15619412
REMARK  10 active torsions:
REMARK  status: ('A' for Active; 'I' for Inactive)
REMARK    1  A    between atoms: C_1  and  C_2
REMARK    2  A    between atoms: C_2  and  O_3
REMARK    3  A    between atoms: O_3  and  C_4
REMARK    4  A    between atoms: C_9  and  C_10
REMARK    5  A    between atoms: C_11  and  C_12
REMARK    6  A    between atoms: N_14  and  C_15
REMARK    7  A    between atoms: C_15  and  C_16
REMARK    8  A    between atoms: N_18  and  C_19
REMARK    9  A    between atoms: C_24  and  C_25
REMARK   10  A    between atoms: C_28  and  C_31
REMARK                            x       y       z     vdW  Elec       q    Type
REMARK                         _______ _______ _______ _____ _____    ______ ____
ROOT
ATOM      1  C   UNL     1      -6.382  -1.206   0.017  0.00  0.00    +0.237 C 
ATOM      2  O   UNL     1      -6.246   0.004   0.010  0.00  0.00    -0.271 OA
ATOM      3  N   UNL     1      -7.617  -1.745   0.036  0.00  0.00    -0.303 N 
ATOM      4  H   UNL     1      -7.725  -2.709   0.043  0.00  0.00    +0.149 HD
ENDROOT
BRANCH   1   6
ATOM      5  C   UNL     1      -3.968  -1.533  -0.013  0.00  0.00    +0.017 C 
ATOM      6  C   UNL     1      -5.205  -2.074   0.006  0.00  0.00    +0.068 C 
BRANCH   5  12
ATOM      7  C   UNL     1      -1.498  -1.845  -0.043  0.00  0.00    +0.128 A 
ATOM      8  C   UNL     1      -0.391  -2.679  -0.054  0.00  0.00    +0.053 A 
ATOM      9  C   UNL     1      -0.556  -4.047  -0.048  0.00  0.00    +0.001 A 
ATOM     10  C   UNL     1      -1.825  -4.620  -0.025  0.00  0.00    +0.125 A 
ATOM     11  C   UNL     1      -2.939  -3.794  -0.020  0.00  0.00    +0.057 A 
ATOM     12  C   UNL     1      -2.785  -2.405  -0.024  0.00  0.00    +0.020 A 
ATOM     13  O   UNL     1      -1.749  -5.980   0.001  0.00  0.00    -0.488 OA
ATOM     14  C   UNL     1      -0.448  -6.391  -0.452  0.00  0.00    +0.175 C 
ATOM     15  C   UNL     1       0.445  -5.188  -0.068  0.00  0.00    +0.083 C 
ATOM     16  C   UNL     1      -0.446  -6.611  -1.966  0.00  0.00    +0.052 C 
BRANCH   7  17
ATOM     17  O   UNL     1      -1.339  -0.497  -0.046  0.00  0.00    -0.492 OA
BRANCH  17  19
ATOM     18  C   UNL     1      -0.020   1.528  -0.067  0.00  0.00    +0.048 C 
ATOM     19  C   UNL     1       0.001  -0.002  -0.067  0.00  0.00    +0.226 C 
ENDBRANCH  17  19
ENDBRANCH   7  17
ENDBRANCH   5  12
ENDBRANCH   1   6
BRANCH   3  20
ATOM     20  C   UNL     1      -8.796  -0.876   0.047  0.00  0.00    +0.200 C 
BRANCH  20  21
ATOM     21  C   UNL     1     -10.043  -1.721   0.068  0.00  0.00    +0.234 C 
ATOM     22  O   UNL     1      -9.956  -2.931   0.073  0.00  0.00    -0.274 OA
ATOM     23  N   UNL     1     -11.256  -1.133   0.081  0.00  0.00    -0.284 N 
ATOM     24  H   UNL     1     -11.326  -0.169   0.158  0.00  0.00    +0.155 HD
BRANCH  23  25
ATOM     25  C   UNL     1     -12.413  -1.914  -0.017  0.00  0.00    +0.036 A 
ATOM     26  C   UNL     1     -12.361  -3.162  -0.624  0.00  0.00    +0.024 A 
ATOM     27  C   UNL     1     -13.505  -3.930  -0.719  0.00  0.00    +0.017 A 
ATOM     28  C   UNL     1     -14.702  -3.457  -0.209  0.00  0.00    +0.018 A 
ATOM     29  C   UNL     1     -14.756  -2.215   0.397  0.00  0.00    +0.020 A 
ATOM     30  C   UNL     1     -13.614  -1.444   0.499  0.00  0.00    -0.028 A 
ATOM     31  C   UNL     1     -13.672  -0.094   1.164  0.00  0.00    +0.046 C 
ATOM     32 BR   UNL     1     -16.266  -4.512  -0.341  0.00  0.00    -0.050 Br
ENDBRANCH  23  25
ENDBRANCH  20  21
ENDBRANCH   3  20
TORSDOF 7
