REMARK  Name = ZINC15797569
REMARK  7 active torsions:
REMARK  status: ('A' for Active; 'I' for Inactive)
REMARK    1  A    between atoms: C_3  and  C_18
REMARK    2  A    between atoms: C_5  and  N_7
REMARK    3  A    between atoms: N_7  and  S_8
REMARK    4  A    between atoms: S_8  and  C_11
REMARK    5  A    between atoms: N_20  and  C_21
REMARK    6  A    between atoms: C_24  and  O_27
REMARK    7  A    between atoms: O_27  and  C_28
REMARK                            x       y       z     vdW  Elec       q    Type
REMARK                         _______ _______ _______ _____ _____    ______ ____
ROOT
ATOM      1  C   UNL     1       4.684  -2.497  -2.781  0.00  0.00    +0.003 A 
ATOM      2  C   UNL     1       4.478  -2.016  -4.058  0.00  0.00    +0.013 A 
ATOM      3  C   UNL     1       3.178  -1.829  -4.532  0.00  0.00    +0.039 A 
ATOM      4  C   UNL     1       2.091  -2.134  -3.712  0.00  0.00    +0.037 A 
ATOM      5  C   UNL     1       2.309  -2.611  -2.429  0.00  0.00    +0.049 A 
ATOM      6  C   UNL     1       3.607  -2.794  -1.967  0.00  0.00    +0.024 A 
ENDROOT
BRANCH   3   7
ATOM      7  C   UNL     1       2.954  -1.315  -5.900  0.00  0.00    +0.248 C 
ATOM      8  O   UNL     1       1.821  -1.153  -6.310  0.00  0.00    -0.270 OA
ATOM      9  N   UNL     1       4.006  -1.025  -6.691  0.00  0.00    -0.281 N 
ATOM     10  H   UNL     1       4.908  -1.090  -6.342  0.00  0.00    +0.155 HD
BRANCH   9  11
ATOM     11  C   UNL     1       3.796  -0.630  -8.018  0.00  0.00    +0.034 A 
ATOM     12  C   UNL     1       4.696  -1.006  -9.006  0.00  0.00    +0.027 A 
ATOM     13  C   UNL     1       4.486  -0.621 -10.315  0.00  0.00    +0.047 A 
ATOM     14  C   UNL     1       3.381   0.151 -10.642  0.00  0.00    +0.127 A 
ATOM     15  C   UNL     1       2.483   0.531  -9.655  0.00  0.00    +0.047 A 
ATOM     16  C   UNL     1       2.689   0.142  -8.346  0.00  0.00    +0.027 A 
BRANCH  14  17
ATOM     17  O   UNL     1       3.177   0.535 -11.930  0.00  0.00    -0.434 OA
BRANCH  17  18
ATOM     18  C   UNL     1       4.141   0.108 -12.895  0.00  0.00    +0.541 C 
ATOM     19  F   UNL     1       5.401   0.609 -12.548  0.00  0.00    -0.166 F 
ATOM     20  F   UNL     1       4.186  -1.290 -12.922  0.00  0.00    -0.166 F 
ENDBRANCH  17  18
ENDBRANCH  14  17
ENDBRANCH   9  11
ENDBRANCH   3   7
BRANCH   5  21
ATOM     21  N   UNL     1       1.224  -2.913  -1.602  0.00  0.00    -0.216 N 
ATOM     22  H   UNL     1       0.469  -3.410  -1.955  0.00  0.00    +0.174 HD
BRANCH  21  23
ATOM     23  S   UNL     1       1.227  -2.424  -0.020  0.00  0.00    +0.072 S 
ATOM     24  O   UNL     1       2.484  -2.807   0.521  0.00  0.00    -0.150 OA
ATOM     25  O   UNL     1      -0.006  -2.854   0.540  0.00  0.00    -0.150 OA
BRANCH  23  26
ATOM     26  C   UNL     1       1.194  -0.663  -0.020  0.00  0.00    +0.109 A 
ATOM     27  C   UNL     1      -0.016   0.006  -0.010  0.00  0.00    +0.030 A 
ATOM     28  C   UNL     1      -0.042   1.388  -0.009  0.00  0.00    +0.017 A 
ATOM     29  C   UNL     1       1.143   2.102  -0.018  0.00  0.00    +0.018 A 
ATOM     30  C   UNL     1       2.353   1.433  -0.028  0.00  0.00    +0.017 A 
ATOM     31  C   UNL     1       2.378   0.051  -0.029  0.00  0.00    +0.030 A 
ATOM     32 BR   UNL     1       1.107   3.993  -0.017  0.00  0.00    -0.050 Br
ENDBRANCH  23  26
ENDBRANCH  21  23
ENDBRANCH   5  21
TORSDOF 7
