REMARK  Name = ZINC08919972
REMARK  5 active torsions:
REMARK  status: ('A' for Active; 'I' for Inactive)
REMARK    1  A    between atoms: C_6  and  C_7
REMARK    2  A    between atoms: N_14  and  C_17
REMARK    3  A    between atoms: C_17  and  C_18
REMARK    4  A    between atoms: N_20  and  C_21
REMARK    5  A    between atoms: C_22  and  C_30
REMARK                            x       y       z     vdW  Elec       q    Type
REMARK                         _______ _______ _______ _____ _____    ______ ____
ROOT
ATOM      1  C   UNL     1      -2.446   0.951   0.019  0.00  0.00    +0.222 C 
ENDROOT
BRANCH   1   9
ATOM      2  C   UNL     1       0.146   5.267   0.029  0.00  0.00    +0.004 A 
ATOM      3  C   UNL     1       1.410   5.755   0.019  0.00  0.00    +0.056 A 
ATOM      4  S   UNL     1       2.420   4.287   0.002  0.00  0.00    -0.076 S 
ATOM      5  C   UNL     1       1.135   3.063   0.008  0.00  0.00    +0.116 A 
ATOM      6  C   UNL     1      -0.047   3.822   0.023  0.00  0.00    +0.080 A 
ATOM      7  C   UNL     1      -1.266   3.071   0.031  0.00  0.00    +0.263 A 
ATOM      8  O   UNL     1      -2.344   3.641   0.044  0.00  0.00    -0.267 OA
ATOM      9  N   UNL     1      -1.204   1.727   0.017  0.00  0.00    -0.290 N 
ATOM     10  C   UNL     1      -0.013   1.076   0.008  0.00  0.00    +0.203 A 
ATOM     11  N   UNL     1       1.116   1.733   0.001  0.00  0.00    -0.230 NA
BRANCH   2  17
ATOM     12  C   UNL     1      -2.053   6.018  -0.873  0.00  0.00    +0.010 A 
ATOM     13  C   UNL     1      -3.137   6.872  -0.850  0.00  0.00    +0.020 A 
ATOM     14  C   UNL     1      -3.192   7.899   0.076  0.00  0.00    +0.041 A 
ATOM     15  C   UNL     1      -2.164   8.073   0.987  0.00  0.00    +0.020 A 
ATOM     16  C   UNL     1      -1.078   7.221   0.976  0.00  0.00    +0.010 A 
ATOM     17  C   UNL     1      -1.018   6.185   0.045  0.00  0.00    -0.016 A 
ATOM     18 CL   UNL     1      -4.555   8.974   0.096  0.00  0.00    -0.084 Cl
ENDBRANCH   2  17
ENDBRANCH   1   9
BRANCH   1  19
ATOM     19  C   UNL     1      -2.866   0.677   1.440  0.00  0.00    +0.237 C 
ATOM     20  O   UNL     1      -2.193   1.089   2.361  0.00  0.00    -0.273 OA
ATOM     21  N   UNL     1      -3.988  -0.026   1.688  0.00  0.00    -0.278 N 
ATOM     22  H   UNL     1      -4.526  -0.356   0.952  0.00  0.00    +0.155 HD
BRANCH  21  23
ATOM     23  C   UNL     1      -4.374  -0.279   2.996  0.00  0.00    +0.084 A 
ATOM     24  C   UNL     1      -5.488  -0.972   3.448  0.00  0.00    +0.068 A 
ATOM     25  C   UNL     1      -5.663  -1.098   4.885  0.00  0.00    -0.023 A 
ATOM     26  C   UNL     1      -4.707  -0.507   5.635  0.00  0.00    -0.004 A 
ATOM     27  S   UNL     1      -3.586   0.202   4.462  0.00  0.00    -0.077 S 
ATOM     28  C   UNL     1      -4.628  -0.468   7.130  0.00  0.00    +0.043 C 
ATOM     29  C   UNL     1      -5.994  -0.880   7.698  0.00  0.00    +0.005 C 
ATOM     30  C   UNL     1      -6.461  -2.152   6.986  0.00  0.00    +0.005 C 
ATOM     31  C   UNL     1      -6.829  -1.832   5.536  0.00  0.00    +0.037 C 
BRANCH  24  32
ATOM     32  C   UNL     1      -6.451  -1.558   2.511  0.00  0.00    +0.244 C 
ATOM     33  O   UNL     1      -6.297  -2.697   2.113  0.00  0.00    -0.270 OA
ATOM     34  N   UNL     1      -7.507  -0.834   2.089  0.00  0.00    -0.325 N 
ATOM     35  H   UNL     1      -7.630   0.074   2.406  0.00  0.00    +0.145 HD
ATOM     36  H   UNL     1      -8.144  -1.222   1.469  0.00  0.00    +0.145 HD
ENDBRANCH  24  32
ENDBRANCH  21  23
ENDBRANCH   1  19
TORSDOF 5
