REMARK  Name = ZINC21936911
REMARK  9 active torsions:
REMARK  status: ('A' for Active; 'I' for Inactive)
REMARK    1  A    between atoms: C_1  and  C_2
REMARK    2  A    between atoms: C_2  and  C_4
REMARK    3  A    between atoms: C_2  and  S_17
REMARK    4  A    between atoms: N_6  and  C_7
REMARK    5  A    between atoms: S_17  and  C_18
REMARK    6  A    between atoms: C_28  and  C_33
REMARK    7  A    between atoms: C_33  and  C_34
REMARK    8  A    between atoms: C_34  and  C_35
REMARK    9  A    between atoms: C_34  and  C_36
REMARK                            x       y       z     vdW  Elec       q    Type
REMARK                         _______ _______ _______ _____ _____    ______ ____
ROOT
ATOM      1  C   UNL     1      -0.136  -0.101   2.817  0.00  0.00    +0.170 C 
ATOM      2  N   UNL     1      -1.238   0.546   2.553  0.00  0.00    -0.225 NA
ATOM      3  C   UNL     1      -2.078   0.972   3.530  0.00  0.00    +0.077 A 
ATOM      4  C   UNL     1      -3.253   1.663   3.226  0.00  0.00    +0.028 A 
ATOM      5  C   UNL     1      -4.082   2.080   4.244  0.00  0.00    +0.002 A 
ATOM      6  C   UNL     1      -3.764   1.823   5.570  0.00  0.00    +0.001 A 
ATOM      7  C   UNL     1      -2.608   1.143   5.893  0.00  0.00    +0.013 A 
ATOM      8  C   UNL     1      -1.759   0.713   4.879  0.00  0.00    +0.041 A 
ATOM      9  C   UNL     1      -0.509  -0.019   5.176  0.00  0.00    +0.139 C 
ATOM     10  N   UNL     1       0.007  -0.380   6.317  0.00  0.00    -0.255 NA
ATOM     11  C   UNL     1       1.265  -1.086   6.039  0.00  0.00    +0.194 C 
ATOM     12  C   UNL     1       1.373  -1.062   4.529  0.00  0.00    +0.251 C 
ATOM     13  O   UNL     1       2.260  -1.531   3.849  0.00  0.00    -0.272 OA
ATOM     14  N   UNL     1       0.268  -0.411   4.099  0.00  0.00    -0.200 N 
ENDROOT
BRANCH   1  15
ATOM     15  S   UNL     1       0.882  -0.609   1.471  0.00  0.00    -0.077 S 
BRANCH  15  17
ATOM     16  C   UNL     1      -0.032   1.519   0.015  0.00  0.00    +0.029 C 
ATOM     17  C   UNL     1      -0.000  -0.010   0.003  0.00  0.00    +0.137 C 
BRANCH  17  18
ATOM     18  C   UNL     1       0.708  -0.488  -1.238  0.00  0.00    +0.230 C 
ATOM     19  O   UNL     1       1.867  -0.839  -1.178  0.00  0.00    -0.274 OA
ATOM     20  N   UNL     1       0.053  -0.526  -2.415  0.00  0.00    -0.284 N 
ATOM     21  H   UNL     1      -0.892  -0.310  -2.452  0.00  0.00    +0.155 HD
BRANCH  20  22
ATOM     22  C   UNL     1       0.736  -0.877  -3.587  0.00  0.00    +0.037 A 
ATOM     23  C   UNL     1       0.406  -0.272  -4.792  0.00  0.00    +0.027 A 
ATOM     24  C   UNL     1       1.079  -0.619  -5.947  0.00  0.00    +0.051 A 
ATOM     25  C   UNL     1       2.087  -1.571  -5.907  0.00  0.00    +0.162 A 
ATOM     26  C   UNL     1       2.422  -2.177  -4.702  0.00  0.00    +0.164 A 
ATOM     27  C   UNL     1       1.748  -1.826  -3.542  0.00  0.00    +0.072 A 
ATOM     28  O   UNL     1       3.413  -3.108  -4.641  0.00  0.00    -0.485 OA
ATOM     29  C   UNL     1       3.815  -3.702  -5.881  0.00  0.00    +0.270 C 
ATOM     30  C   UNL     1       3.990  -2.582  -6.915  0.00  0.00    +0.270 C 
ATOM     31  O   UNL     1       2.737  -1.903  -7.057  0.00  0.00    -0.485 OA
ENDBRANCH  20  22
ENDBRANCH  17  18
ENDBRANCH  15  17
ENDBRANCH   1  15
BRANCH  11  32
ATOM     32  C   UNL     1       1.198  -2.526   6.552  0.00  0.00    +0.039 C 
BRANCH  32  33
ATOM     33  C   UNL     1       1.118  -2.520   8.080  0.00  0.00    -0.015 C 
ATOM     34  C   UNL     1      -0.197  -1.872   8.519  0.00  0.00    +0.007 C 
ATOM     35  C   UNL     1       1.176  -3.958   8.599  0.00  0.00    +0.007 C 
ENDBRANCH  32  33
ENDBRANCH  11  32
TORSDOF 6
