REMARK  Name = ZINC35848687
REMARK  6 active torsions:
REMARK  status: ('A' for Active; 'I' for Inactive)
REMARK    1  A    between atoms: C_1  and  C_2
REMARK    2  A    between atoms: C_2  and  O_3
REMARK    3  A    between atoms: O_3  and  C_4
REMARK    4  A    between atoms: C_16  and  C_18
REMARK    5  A    between atoms: N_19  and  N_20
REMARK    6  A    between atoms: C_21  and  C_22
REMARK                            x       y       z     vdW  Elec       q    Type
REMARK                         _______ _______ _______ _____ _____    ______ ____
ROOT
ATOM      1  C   UNL     1       0.754  -1.999  -1.254  0.00  0.00    +0.403 C 
ATOM      2  O   UNL     1       0.460  -2.732  -0.331  0.00  0.00    -0.226 OA
ATOM      3  N   UNL     1       1.373  -2.500  -2.341  0.00  0.00    -0.264 N 
ATOM      4  C   UNL     1       1.741  -1.624  -3.463  0.00  0.00    +0.130 C 
ATOM      5  C   UNL     1       3.243  -1.774  -3.731  0.00  0.00    +0.125 C 
ATOM      6  N   UNL     1       3.564  -3.206  -3.816  0.00  0.00    -0.311 N 
ATOM      7  C   UNL     1       3.197  -4.082  -2.694  0.00  0.00    +0.125 C 
ATOM      8  C   UNL     1       1.699  -3.930  -2.424  0.00  0.00    +0.130 C 
ATOM      9  C   UNL     1       4.202  -3.723  -4.937  0.00  0.00    +0.140 A 
ATOM     10  C   UNL     1       4.745  -2.860  -5.891  0.00  0.00    +0.154 A 
ATOM     11  N   UNL     1       5.352  -3.348  -6.956  0.00  0.00    -0.258 NA
ATOM     12  C   UNL     1       5.450  -4.654  -7.126  0.00  0.00    +0.142 A 
ATOM     13  C   UNL     1       4.911  -5.524  -6.177  0.00  0.00    +0.123 A 
ATOM     14  N   UNL     1       4.301  -5.033  -5.098  0.00  0.00    -0.226 NA
ENDROOT
BRANCH  13  15
ATOM     15  C   UNL     1       5.019  -6.984  -6.366  0.00  0.00    +0.137 C 
ATOM     16  N   UNL     1       5.624  -7.467  -7.430  0.00  0.00    -0.263 N 
ATOM     17  N   UNL     1       4.486  -7.842  -5.428  0.00  0.00    -0.342 N 
ATOM     18  H   UNL     1       4.040  -7.487  -4.644  0.00  0.00    +0.144 HD
ATOM     19  H   UNL     1       4.557  -8.802  -5.552  0.00  0.00    +0.144 HD
ATOM     20  H   UNL     1       6.000  -6.863  -8.090  0.00  0.00    +0.190 HD
BRANCH  16  21
ATOM     21  N   UNL     1       5.719  -8.743  -7.595  0.00  0.00    -0.180 NA
ATOM     22  C   UNL     1       6.320  -9.222  -8.652  0.00  0.00    +0.140 C 
BRANCH  22  23
ATOM     23  C   UNL     1       6.428 -10.677  -8.840  0.00  0.00    -0.005 A 
ATOM     24  C   UNL     1       5.883 -11.550  -7.892  0.00  0.00    +0.011 A 
ATOM     25  C   UNL     1       5.988 -12.913  -8.076  0.00  0.00    +0.020 A 
ATOM     26  C   UNL     1       6.631 -13.417  -9.194  0.00  0.00    +0.041 A 
ATOM     27  C   UNL     1       7.173 -12.558 -10.136  0.00  0.00    +0.020 A 
ATOM     28  C   UNL     1       7.071 -11.194  -9.970  0.00  0.00    +0.011 A 
ATOM     29 CL   UNL     1       6.759 -15.134  -9.416  0.00  0.00    -0.084 Cl
ENDBRANCH  22  23
ENDBRANCH  16  21
ENDBRANCH  13  15
BRANCH   1  30
ATOM     30  O   UNL     1       0.462  -0.686  -1.191  0.00  0.00    -0.451 OA
BRANCH  30  32
ATOM     31  C   UNL     1      -0.444   1.282  -0.119  0.00  0.00    +0.048 C 
ATOM     32  C   UNL     1      -0.195  -0.224  -0.009  0.00  0.00    +0.230 C 
ENDBRANCH  30  32
ENDBRANCH   1  30
TORSDOF 5
