REMARK  Name = ZINC23599672
REMARK  9 active torsions:
REMARK  status: ('A' for Active; 'I' for Inactive)
REMARK    1  A    between atoms: C_1  and  C_2
REMARK    2  A    between atoms: C_2  and  C_4
REMARK    3  A    between atoms: C_2  and  S_16
REMARK    4  A    between atoms: N_6  and  C_7
REMARK    5  A    between atoms: C_10  and  N_13
REMARK    6  A    between atoms: S_16  and  C_17
REMARK    7  A    between atoms: C_20  and  C_29
REMARK    8  A    between atoms: N_21  and  C_22
REMARK    9  A    between atoms: C_22  and  C_23
REMARK                            x       y       z     vdW  Elec       q    Type
REMARK                         _______ _______ _______ _____ _____    ______ ____
ROOT
ATOM      1  C   UNL     1      -2.861  -0.255   2.287  0.00  0.00    +0.193 A 
ATOM      2  N   UNL     1      -3.044   0.240   3.490  0.00  0.00    -0.122 NA
ATOM      3  N   UNL     1      -3.597   1.398   3.412  0.00  0.00    -0.128 NA
ATOM      4  C   UNL     1      -3.796   1.715   2.154  0.00  0.00    +0.165 A 
ATOM      5  N   UNL     1      -3.327   0.668   1.394  0.00  0.00    -0.298 N 
ENDROOT
BRANCH   4   6
ATOM      6  C   UNL     1      -4.408   2.962   1.648  0.00  0.00    +0.019 A 
ATOM      7  C   UNL     1      -3.994   3.502   0.429  0.00  0.00    +0.014 A 
ATOM      8  C   UNL     1      -4.571   4.663  -0.040  0.00  0.00    +0.039 A 
ATOM      9  C   UNL     1      -5.554   5.300   0.701  0.00  0.00    +0.123 A 
ATOM     10  C   UNL     1      -5.965   4.771   1.915  0.00  0.00    +0.039 A 
ATOM     11  C   UNL     1      -5.398   3.608   2.391  0.00  0.00    +0.014 A 
ATOM     12  F   UNL     1      -6.113   6.439   0.240  0.00  0.00    -0.205 F 
ENDBRANCH   4   6
BRANCH   1  13
ATOM     13  S   UNL     1      -2.145  -1.817   1.897  0.00  0.00    -0.073 S 
BRANCH  13  15
ATOM     14  C   UNL     1      -3.111  -2.640   4.316  0.00  0.00    +0.029 C 
ATOM     15  C   UNL     1      -1.795  -2.427   3.565  0.00  0.00    +0.137 C 
BRANCH  15  16
ATOM     16  C   UNL     1      -1.050  -3.734   3.476  0.00  0.00    +0.230 C 
ATOM     17  O   UNL     1      -1.092  -4.388   2.455  0.00  0.00    -0.274 OA
ATOM     18  N   UNL     1      -0.337  -4.176   4.531  0.00  0.00    -0.285 N 
ATOM     19  H   UNL     1      -0.236  -3.549   5.429  0.00  0.00    +0.155 HD
BRANCH  18  20
ATOM     20  C   UNL     1       0.275  -5.434   4.484  0.00  0.00    +0.034 A 
ATOM     21  C   UNL     1       0.362  -6.209   5.633  0.00  0.00    +0.025 A 
ATOM     22  C   UNL     1       0.963  -7.452   5.582  0.00  0.00    +0.034 A 
ATOM     23  C   UNL     1       1.486  -7.920   4.391  0.00  0.00    +0.126 A 
ATOM     24  C   UNL     1       1.405  -7.149   3.246  0.00  0.00    +0.034 A 
ATOM     25  C   UNL     1       0.801  -5.907   3.289  0.00  0.00    +0.025 A 
BRANCH  23  26
ATOM     26  N   UNL     1       2.133  -9.250   4.341  0.00  0.00    +0.056 N 
ATOM     27  O   UNL     1       2.594  -9.665   3.292  0.00  0.00    -0.126 OA
ATOM     28  O   UNL     1       2.205  -9.931   5.348  0.00  0.00    -0.126 OA
ENDBRANCH  23  26
ENDBRANCH  18  20
ENDBRANCH  15  16
ENDBRANCH  13  15
ENDBRANCH   1  13
BRANCH   5  29
ATOM     29  C   UNL     1      -3.333   0.562  -0.067  0.00  0.00    +0.161 C 
BRANCH  29  30
ATOM     30  C   UNL     1      -4.726   0.233  -0.541  0.00  0.00    -0.028 A 
ATOM     31  C   UNL     1      -5.621   1.250  -0.814  0.00  0.00    +0.005 A 
ATOM     32  C   UNL     1      -6.896   0.949  -1.255  0.00  0.00    +0.000 A 
ATOM     33  C   UNL     1      -7.278  -0.370  -1.417  0.00  0.00    +0.000 A 
ATOM     34  C   UNL     1      -6.384  -1.387  -1.138  0.00  0.00    +0.000 A 
ATOM     35  C   UNL     1      -5.109  -1.086  -0.698  0.00  0.00    +0.005 A 
ENDBRANCH  29  30
ENDBRANCH   5  29
TORSDOF 8
