REMARK  Name = ZINC03864257
REMARK  9 active torsions:
REMARK  status: ('A' for Active; 'I' for Inactive)
REMARK    1  A    between atoms: C_1  and  C_2
REMARK    2  A    between atoms: C_2  and  O_3
REMARK    3  A    between atoms: O_3  and  C_4
REMARK    4  A    between atoms: C_4  and  C_6
REMARK    5  A    between atoms: C_7  and  C_24
REMARK    6  A    between atoms: C_10  and  N_11
REMARK    7  A    between atoms: C_12  and  C_14
REMARK    8  A    between atoms: C_20  and  C_22
REMARK    9  A    between atoms: C_27  and  C_30
REMARK                            x       y       z     vdW  Elec       q    Type
REMARK                         _______ _______ _______ _____ _____    ______ ____
ROOT
ATOM      1  C   UNL     1       1.957   1.678  -4.926  0.00  0.00    +0.095 A 
ATOM      2  C   UNL     1       2.820   1.086  -5.930  0.00  0.00    +0.005 A 
ATOM      3  C   UNL     1       3.875   0.362  -5.478  0.00  0.00    +0.056 A 
ATOM      4  S   UNL     1       3.722   0.476  -3.708  0.00  0.00    -0.080 S 
ATOM      5  C   UNL     1       2.294   1.448  -3.598  0.00  0.00    +0.086 A 
ENDROOT
BRANCH   2   6
ATOM      6  C   UNL     1       2.561   1.261  -7.379  0.00  0.00    -0.017 A 
ATOM      7  C   UNL     1       1.293   1.005  -7.899  0.00  0.00    +0.009 A 
ATOM      8  C   UNL     1       1.056   1.176  -9.248  0.00  0.00    +0.004 A 
ATOM      9  C   UNL     1       2.077   1.589 -10.085  0.00  0.00    -0.050 A 
ATOM     10  C   UNL     1       3.339   1.839  -9.576  0.00  0.00    +0.004 A 
ATOM     11  C   UNL     1       3.586   1.677  -8.228  0.00  0.00    +0.009 A 
ATOM     12  C   UNL     1       1.814   1.768 -11.558  0.00  0.00    +0.044 C 
ENDBRANCH   2   6
BRANCH   5  13
ATOM     13  N   UNL     1       1.646   1.895  -2.458  0.00  0.00    -0.279 N 
ATOM     14  C   UNL     1       2.122   1.569  -1.240  0.00  0.00    +0.221 C 
ATOM     15  O   UNL     1       3.119   0.885  -1.142  0.00  0.00    -0.275 OA
ATOM     16  H   UNL     1       0.849   2.443  -2.537  0.00  0.00    +0.155 HD
BRANCH  14  17
ATOM     17  C   UNL     1       1.417   2.055  -0.000  0.00  0.00    +0.089 C 
ATOM     18  C   UNL     1      -0.019   1.526   0.010  0.00  0.00    +0.013 C 
ATOM     19  C   UNL     1       0.002  -0.004   0.002  0.00  0.00    +0.001 C 
ATOM     20  C   UNL     1       0.742  -0.511   1.242  0.00  0.00    +0.001 C 
ATOM     21  C   UNL     1       2.178   0.019   1.231  0.00  0.00    +0.015 C 
ATOM     22  C   UNL     1       2.157   1.548   1.239  0.00  0.00    +0.114 C 
BRANCH  22  23
ATOM     23  C   UNL     1       3.571   2.070   1.228  0.00  0.00    +0.360 C 
ATOM     24  O   UNL     1       3.948   2.775   0.322  0.00  0.00    -0.246 OA
ATOM     25  O   UNL     1       4.411   1.752   2.225  0.00  0.00    -0.246 OA
ENDBRANCH  22  23
ENDBRANCH  14  17
ENDBRANCH   5  13
BRANCH   1  26
ATOM     26  C   UNL     1       0.789   2.479  -5.293  0.00  0.00    +0.342 C 
ATOM     27  O   UNL     1       0.899   3.681  -5.447  0.00  0.00    -0.245 OA
BRANCH  26  28
ATOM     28  O   UNL     1      -0.410   1.884  -5.461  0.00  0.00    -0.461 OA
BRANCH  28  30
ATOM     29  C   UNL     1      -2.792   1.894  -5.970  0.00  0.00    +0.048 C 
ATOM     30  C   UNL     1      -1.525   2.740  -5.825  0.00  0.00    +0.229 C 
ENDBRANCH  28  30
ENDBRANCH  26  28
ENDBRANCH   1  26
TORSDOF 7
