REMARK  Name = ZINC05102828
REMARK  6 active torsions:
REMARK  status: ('A' for Active; 'I' for Inactive)
REMARK    1  A    between atoms: C_1  and  C_2
REMARK    2  A    between atoms: C_5  and  S_11
REMARK    3  A    between atoms: C_7  and  N_8
REMARK    4  A    between atoms: S_11  and  N_14
REMARK    5  A    between atoms: N_14  and  C_15
REMARK    6  A    between atoms: C_15  and  C_16
REMARK                            x       y       z     vdW  Elec       q    Type
REMARK                         _______ _______ _______ _____ _____    ______ ____
ROOT
ATOM      1  S   UNL     1      -2.764   4.014   0.026  0.00  0.00    +0.059 S 
ATOM      2  O   UNL     1      -3.655   3.264   0.841  0.00  0.00    -0.153 OA
ATOM      3  O   UNL     1      -2.455   5.376   0.289  0.00  0.00    -0.153 OA
ENDROOT
BRANCH   1   8
ATOM      4  C   UNL     1       2.480   1.028   0.005  0.00  0.00    +0.046 C 
ATOM      5  C   UNL     1       1.170   1.774   0.010  0.00  0.00    -0.020 A 
ATOM      6  C   UNL     1      -0.007   1.101   0.279  0.00  0.00    +0.007 A 
ATOM      7  C   UNL     1      -1.209   1.784   0.278  0.00  0.00    +0.029 A 
ATOM      8  C   UNL     1      -1.232   3.142   0.020  0.00  0.00    +0.107 A 
ATOM      9  C   UNL     1      -0.055   3.815  -0.248  0.00  0.00    +0.061 A 
ATOM     10  C   UNL     1       1.146   3.131  -0.253  0.00  0.00    +0.131 A 
BRANCH  10  11
ATOM     11  N   UNL     1       2.407   3.851  -0.540  0.00  0.00    +0.057 N 
ATOM     12  O   UNL     1       2.402   5.064  -0.657  0.00  0.00    -0.126 OA
ATOM     13  O   UNL     1       3.449   3.232  -0.661  0.00  0.00    -0.126 OA
ENDBRANCH  10  11
ENDBRANCH   1   8
BRANCH   1  14
ATOM     14  N   UNL     1      -3.368   3.954  -1.515  0.00  0.00    -0.186 NA
ATOM     15  H   UNL     1      -3.461   4.769  -2.031  0.00  0.00    +0.148 HD
BRANCH  14  16
ATOM     16  C   UNL     1      -3.761   2.669  -2.098  0.00  0.00    +0.141 C 
BRANCH  16  17
ATOM     17  C   UNL     1      -4.601   2.910  -3.325  0.00  0.00    -0.032 A 
ATOM     18  C   UNL     1      -5.976   3.012  -3.213  0.00  0.00    +0.006 A 
ATOM     19  C   UNL     1      -6.746   3.239  -4.337  0.00  0.00    +0.020 A 
ATOM     20  C   UNL     1      -6.143   3.354  -5.577  0.00  0.00    +0.041 A 
ATOM     21  C   UNL     1      -4.769   3.247  -5.690  0.00  0.00    +0.020 A 
ATOM     22  C   UNL     1      -3.998   3.025  -4.564  0.00  0.00    +0.006 A 
ATOM     23 CL   UNL     1      -7.111   3.633  -6.991  0.00  0.00    -0.084 Cl
ENDBRANCH  16  17
ENDBRANCH  14  16
ENDBRANCH   1  14
TORSDOF 5
