REMARK  Name = ZINC63375318
REMARK  8 active torsions:
REMARK  status: ('A' for Active; 'I' for Inactive)
REMARK    1  A    between atoms: C_1  and  C_2
REMARK    2  A    between atoms: C_5  and  C_8
REMARK    3  A    between atoms: N_26  and  C_29
REMARK    4  A    between atoms: C_34  and  C_35
REMARK    5  A    between atoms: N_37  and  C_38
REMARK    6  A    between atoms: C_38  and  C_39
REMARK    7  A    between atoms: C_39  and  O_40
REMARK    8  A    between atoms: O_40  and  C_41
REMARK                            x       y       z     vdW  Elec       q    Type
REMARK                         _______ _______ _______ _____ _____    ______ ____
ROOT
ATOM      1  C   UNL     1       0.059  -4.275  -0.021  0.00  0.00    +0.135 C 
ATOM      2  C   UNL     1       1.484  -4.780   0.243  0.00  0.00    +0.131 C 
ATOM      3  C   UNL     1       1.756  -4.600   1.731  0.00  0.00    -0.034 C 
ATOM      4  C   UNL     1       2.839  -3.836   1.824  0.00  0.00    -0.001 A 
ATOM      5  C   UNL     1       3.611  -3.371   2.989  0.00  0.00    +0.010 A 
ATOM      6  C   UNL     1       4.680  -2.575   2.720  0.00  0.00    +0.001 A 
ATOM      7  C   UNL     1       5.054  -2.201   1.426  0.00  0.00    +0.002 A 
ATOM      8  C   UNL     1       4.406  -2.587   0.298  0.00  0.00    +0.026 A 
ATOM      9  C   UNL     1       3.266  -3.429   0.451  0.00  0.00    +0.043 A 
ATOM     10  N   UNL     1       2.477  -3.956  -0.452  0.00  0.00    -0.375 N 
ATOM     11  C   UNL     1       0.861  -5.165   2.808  0.00  0.00    +0.065 C 
ATOM     12  C   UNL     1      -0.368  -5.753   2.092  0.00  0.00    +0.169 C 
ATOM     13  N   UNL     1      -0.797  -4.792   1.054  0.00  0.00    -0.264 N 
ATOM     14  C   UNL     1      -2.076  -4.487   1.310  0.00  0.00    +0.317 C 
ATOM     15  O   UNL     1      -2.769  -3.805   0.581  0.00  0.00    -0.252 OA
ATOM     16  N   UNL     1      -2.502  -5.022   2.462  0.00  0.00    -0.192 N 
ATOM     17  C   UNL     1      -1.541  -5.810   3.047  0.00  0.00    +0.248 C 
ATOM     18  O   UNL     1      -1.603  -6.416   4.095  0.00  0.00    -0.273 OA
ATOM     19  H   UNL     1       2.533  -3.825  -1.412  0.00  0.00    +0.160 HD
ENDROOT
BRANCH   1  24
ATOM     20  C   UNL     1      -0.018   1.503   0.010  0.00  0.00    +0.044 C 
ATOM     21  C   UNL     1       0.002  -0.004   0.002  0.00  0.00    -0.050 A 
ATOM     22  C   UNL     1       0.006  -0.689  -1.199  0.00  0.00    +0.004 A 
ATOM     23  C   UNL     1       0.025  -2.071  -1.206  0.00  0.00    +0.006 A 
ATOM     24  C   UNL     1       0.040  -2.768  -0.013  0.00  0.00    -0.025 A 
ATOM     25  C   UNL     1       0.037  -2.084   1.188  0.00  0.00    +0.006 A 
ATOM     26  C   UNL     1       0.023  -0.702   1.195  0.00  0.00    +0.004 A 
ENDBRANCH   1  24
BRANCH  16  27
ATOM     27  C   UNL     1      -3.774  -4.814   3.000  0.00  0.00    +0.058 A 
ATOM     28  C   UNL     1      -4.817  -5.671   2.678  0.00  0.00    +0.025 A 
ATOM     29  C   UNL     1      -6.073  -5.463   3.211  0.00  0.00    +0.002 A 
ATOM     30  C   UNL     1      -6.303  -4.401   4.071  0.00  0.00    +0.001 A 
ATOM     31  C   UNL     1      -5.279  -3.540   4.402  0.00  0.00    +0.015 A 
ATOM     32  C   UNL     1      -4.002  -3.741   3.874  0.00  0.00    +0.059 A 
BRANCH  32  33
ATOM     33  C   UNL     1      -2.899  -2.826   4.229  0.00  0.00    +0.246 C 
ATOM     34  O   UNL     1      -1.790  -3.002   3.763  0.00  0.00    -0.270 OA
ATOM     35  N   UNL     1      -3.123  -1.796   5.069  0.00  0.00    -0.309 N 
ATOM     36  H   UNL     1      -4.008  -1.656   5.440  0.00  0.00    +0.149 HD
BRANCH  35  37
ATOM     37  C   UNL     1      -2.029  -0.888   5.421  0.00  0.00    +0.132 C 
BRANCH  37  38
ATOM     38  C   UNL     1      -2.546   0.185   6.382  0.00  0.00    +0.178 C 
BRANCH  38  39
ATOM     39  O   UNL     1      -2.940  -0.427   7.611  0.00  0.00    -0.381 OA
ATOM     40  C   UNL     1      -3.441   0.493   8.584  0.00  0.00    +0.194 C 
ENDBRANCH  38  39
ENDBRANCH  37  38
ENDBRANCH  35  37
ENDBRANCH  32  33
ENDBRANCH  16  27
TORSDOF 6
