REMARK  Name = ZINC01893996
REMARK  7 active torsions:
REMARK  status: ('A' for Active; 'I' for Inactive)
REMARK    1  A    between atoms: C_3  and  C_6
REMARK    2  A    between atoms: C_12  and  C_13
REMARK    3  A    between atoms: C_16  and  O_19
REMARK    4  A    between atoms: O_19  and  C_20
REMARK    5  A    between atoms: C_20  and  C_21
REMARK    6  A    between atoms: C_21  and  O_22
REMARK    7  A    between atoms: O_22  and  C_23
REMARK                            x       y       z     vdW  Elec       q    Type
REMARK                         _______ _______ _______ _____ _____    ______ ____
ROOT
ATOM      1  C   UNL     1       4.465   2.649  -1.799  0.00  0.00    +0.136 C 
ATOM      2  N   UNL     1       5.243   1.815  -1.146  0.00  0.00    -0.164 NA
ATOM      3  N   UNL     1       6.608   2.003  -1.107  0.00  0.00    -0.152 N 
ATOM      4  C   UNL     1       7.543   1.125  -0.519  0.00  0.00    +0.153 C 
ATOM      5  N   UNL     1       7.306  -0.144  -0.315  0.00  0.00    -0.283 NA
ATOM      6  C   UNL     1       8.827   1.787  -0.153  0.00  0.00    +0.081 C 
ATOM      7  C   UNL     1       9.560   1.392   0.943  0.00  0.00    +0.024 C 
ATOM      8  C   UNL     1       9.273   2.894  -1.035  0.00  0.00    +0.273 C 
ATOM      9  O   UNL     1      10.454   3.192  -1.121  0.00  0.00    -0.268 OA
ATOM     10  N   UNL     1       8.337   3.561  -1.738  0.00  0.00    -0.152 NA
ATOM     11  C   UNL     1       7.098   3.135  -1.721  0.00  0.00    +0.181 C 
ATOM     12  S   UNL     1       5.637   3.834  -2.443  0.00  0.00    -0.032 S 
ATOM     13  H   UNL     1       6.452  -0.525  -0.572  0.00  0.00    +0.188 HD
ENDROOT
BRANCH   7  14
ATOM     14  C   UNL     1      10.713   2.185   1.377  0.00  0.00    -0.024 A 
ATOM     15  C   UNL     1      10.678   3.584   1.289  0.00  0.00    +0.011 A 
ATOM     16  C   UNL     1      11.756   4.318   1.696  0.00  0.00    +0.046 A 
ATOM     17  C   UNL     1      12.887   3.680   2.195  0.00  0.00    +0.121 A 
ATOM     18  C   UNL     1      12.928   2.293   2.285  0.00  0.00    +0.046 A 
ATOM     19  C   UNL     1      11.853   1.548   1.887  0.00  0.00    +0.011 A 
BRANCH  17  20
ATOM     20  O   UNL     1      13.955   4.415   2.596  0.00  0.00    -0.489 OA
BRANCH  20  21
ATOM     21  C   UNL     1      15.084   3.697   3.099  0.00  0.00    +0.270 C 
BRANCH  21  22
ATOM     22  C   UNL     1      16.181   4.686   3.499  0.00  0.00    +0.270 C 
BRANCH  22  23
ATOM     23  O   UNL     1      15.725   5.487   4.591  0.00  0.00    -0.489 OA
BRANCH  23  24
ATOM     24  C   UNL     1      16.585   6.424   5.071  0.00  0.00    +0.121 A 
ATOM     25  C   UNL     1      17.840   6.572   4.498  0.00  0.00    +0.047 A 
ATOM     26  C   UNL     1      18.713   7.524   4.987  0.00  0.00    +0.019 A 
ATOM     27  C   UNL     1      18.337   8.330   6.047  0.00  0.00    +0.018 A 
ATOM     28  C   UNL     1      17.086   8.183   6.620  0.00  0.00    +0.019 A 
ATOM     29  C   UNL     1      16.208   7.236   6.130  0.00  0.00    +0.047 A 
ATOM     30 BR   UNL     1      19.534   9.633   6.715  0.00  0.00    -0.050 Br
ENDBRANCH  23  24
ENDBRANCH  22  23
ENDBRANCH  21  22
ENDBRANCH  20  21
ENDBRANCH  17  20
ENDBRANCH   7  14
BRANCH   1  33
ATOM     31  C   UNL     1       0.832   3.238  -2.663  0.00  0.00    +0.008 A 
ATOM     32  C   UNL     1       2.187   3.477  -2.648  0.00  0.00    +0.018 A 
ATOM     33  C   UNL     1       3.002   2.612  -1.963  0.00  0.00    +0.046 A 
ATOM     34  S   UNL     1       1.827   1.430  -1.323  0.00  0.00    -0.095 S 
ATOM     35  C   UNL     1       0.344   2.156  -2.001  0.00  0.00    +0.046 A 
ENDBRANCH   1  33
TORSDOF 7
