REMARK  Name = ZINC10040849
REMARK  11 active torsions:
REMARK  status: ('A' for Active; 'I' for Inactive)
REMARK    1  A    between atoms: C_1  and  C_2
REMARK    2  A    between atoms: C_2  and  O_3
REMARK    3  A    between atoms: O_3  and  C_4
REMARK    4  A    between atoms: C_7  and  C_11
REMARK    5  A    between atoms: N_12  and  N_13
REMARK    6  A    between atoms: C_14  and  C_16
REMARK    7  A    between atoms: C_16  and  C_18
REMARK    8  A    between atoms: C_16  and  N_21
REMARK    9  A    between atoms: C_18  and  C_19
REMARK   10  A    between atoms: C_18  and  C_20
REMARK   11  A    between atoms: C_22  and  C_24
REMARK                            x       y       z     vdW  Elec       q    Type
REMARK                         _______ _______ _______ _____ _____    ______ ____
ROOT
ATOM      1  N   UNL     1      -2.593   4.231   0.784  0.00  0.00    -0.205 N 
ATOM      2  C   UNL     1      -2.611   5.403   0.119  0.00  0.00    +0.253 C 
ATOM      3  O   UNL     1      -1.586   5.851  -0.349  0.00  0.00    -0.272 OA
ATOM      4  H   UNL     1      -3.398   3.905   1.216  0.00  0.00    +0.177 HD
ENDROOT
BRANCH   1   6
ATOM      5  C   UNL     1      -1.393   2.353   1.491  0.00  0.00    +0.138 C 
ATOM      6  N   UNL     1      -1.411   3.482   0.851  0.00  0.00    -0.188 NA
BRANCH   5  10
ATOM      7  C   UNL     1       2.187   0.078   1.683  0.00  0.00    +0.134 A 
ATOM      8  C   UNL     1       2.170   1.286   0.998  0.00  0.00    +0.047 A 
ATOM      9  C   UNL     1       1.010   2.028   0.934  0.00  0.00    +0.013 A 
ATOM     10  C   UNL     1      -0.149   1.565   1.561  0.00  0.00    -0.004 A 
ATOM     11  C   UNL     1      -0.128   0.349   2.249  0.00  0.00    +0.028 A 
ATOM     12  C   UNL     1       1.036  -0.387   2.308  0.00  0.00    +0.060 A 
ATOM     13 BR   UNL     1       1.067  -2.033   3.239  0.00  0.00    -0.046 Br
BRANCH   7  14
ATOM     14  O   UNL     1       3.332  -0.651   1.742  0.00  0.00    -0.491 OA
BRANCH  14  16
ATOM     15  C   UNL     1       5.662  -1.067   1.253  0.00  0.00    +0.048 C 
ATOM     16  C   UNL     1       4.478  -0.114   1.078  0.00  0.00    +0.226 C 
ENDBRANCH  14  16
ENDBRANCH   7  14
ENDBRANCH   5  10
ENDBRANCH   1   6
BRANCH   2  17
ATOM     17  C   UNL     1      -3.906   6.157  -0.043  0.00  0.00    +0.163 C 
BRANCH  17  18
ATOM     18  N   UNL     1      -3.625   7.589  -0.165  0.00  0.00    -0.300 N 
ATOM     19  C   UNL     1      -4.564   8.492   0.179  0.00  0.00    +0.245 C 
ATOM     20  O   UNL     1      -5.645   8.118   0.590  0.00  0.00    -0.270 OA
ATOM     21  H   UNL     1      -2.762   7.888  -0.494  0.00  0.00    +0.150 HD
BRANCH  19  22
ATOM     22  C   UNL     1      -4.281   9.938   0.056  0.00  0.00    +0.038 A 
ATOM     23  C   UNL     1      -3.038  10.370  -0.411  0.00  0.00    +0.014 A 
ATOM     24  C   UNL     1      -2.780  11.720  -0.529  0.00  0.00    +0.022 A 
ATOM     25  C   UNL     1      -3.747  12.646  -0.175  0.00  0.00    +0.059 A 
ATOM     26  C   UNL     1      -4.981  12.223   0.294  0.00  0.00    +0.060 A 
ATOM     27  C   UNL     1      -5.252  10.875   0.411  0.00  0.00    +0.034 A 
ATOM     28 CL   UNL     1      -6.187  13.391   0.735  0.00  0.00    -0.082 Cl
ATOM     29 CL   UNL     1      -3.413  14.344  -0.320  0.00  0.00    -0.082 Cl
ENDBRANCH  19  22
ENDBRANCH  17  18
BRANCH  17  30
ATOM     30  C   UNL     1      -4.626   5.669  -1.302  0.00  0.00    +0.012 C 
ATOM     31  C   UNL     1      -4.965   4.185  -1.153  0.00  0.00    +0.009 C 
ATOM     32  C   UNL     1      -5.915   6.470  -1.495  0.00  0.00    +0.009 C 
ENDBRANCH  17  30
ENDBRANCH   2  17
TORSDOF 8
