REMARK  Name = ZINC08596778
REMARK  8 active torsions:
REMARK  status: ('A' for Active; 'I' for Inactive)
REMARK    1  A    between atoms: C_1  and  C_2
REMARK    2  A    between atoms: C_5  and  C_8
REMARK    3  A    between atoms: C_8  and  N_9
REMARK    4  A    between atoms: C_10  and  C_12
REMARK    5  A    between atoms: C_21  and  C_24
REMARK    6  A    between atoms: C_24  and  S_25
REMARK    7  A    between atoms: S_25  and  C_28
REMARK    8  A    between atoms: C_28  and  C_29
REMARK                            x       y       z     vdW  Elec       q    Type
REMARK                         _______ _______ _______ _____ _____    ______ ____
ROOT
ATOM      1  C   UNL     1       3.107  -6.541  -0.051  0.00  0.00    +0.039 A 
ATOM      2  C   UNL     1       4.158  -5.619  -0.046  0.00  0.00    +0.015 A 
ATOM      3  C   UNL     1       5.463  -6.061  -0.051  0.00  0.00    +0.025 A 
ATOM      4  C   UNL     1       5.734  -7.421  -0.064  0.00  0.00    +0.049 A 
ATOM      5  C   UNL     1       4.690  -8.351  -0.076  0.00  0.00    +0.055 A 
ATOM      6  C   UNL     1       3.380  -7.912  -0.060  0.00  0.00    +0.038 A 
ATOM      7  N   UNL     1       4.980  -9.720  -0.114  0.00  0.00    -0.282 N 
ATOM      8  C   UNL     1       6.235 -10.153  -0.332  0.00  0.00    +0.239 C 
ATOM      9  O   UNL     1       6.487 -11.336  -0.240  0.00  0.00    -0.273 OA
ATOM     10  C   UNL     1       7.332  -9.183  -0.690  0.00  0.00    +0.178 C 
ATOM     11  N   UNL     1       7.051  -7.886  -0.057  0.00  0.00    -0.330 N 
ATOM     12  H   UNL     1       4.267 -10.365   0.019  0.00  0.00    +0.155 HD
ATOM     13  H   UNL     1       7.760  -7.368   0.354  0.00  0.00    +0.147 HD
ENDROOT
BRANCH   1  15
ATOM     14  N   UNL     1       1.447  -4.746  -0.032  0.00  0.00    -0.307 N 
ATOM     15  C   UNL     1       1.710  -6.067  -0.040  0.00  0.00    +0.244 C 
ATOM     16  O   UNL     1       0.796  -6.870  -0.040  0.00  0.00    -0.270 OA
ATOM     17  H   UNL     1       2.176  -4.106  -0.032  0.00  0.00    +0.149 HD
BRANCH  14  18
ATOM     18  C   UNL     1       0.059  -4.275  -0.021  0.00  0.00    +0.139 C 
BRANCH  18  23
ATOM     19  C   UNL     1      -0.018   1.503   0.010  0.00  0.00    +0.044 C 
ATOM     20  C   UNL     1       0.002  -0.004   0.002  0.00  0.00    -0.050 A 
ATOM     21  C   UNL     1       0.006  -0.689  -1.199  0.00  0.00    +0.003 A 
ATOM     22  C   UNL     1       0.025  -2.071  -1.206  0.00  0.00    +0.005 A 
ATOM     23  C   UNL     1       0.040  -2.768  -0.013  0.00  0.00    -0.030 A 
ATOM     24  C   UNL     1       0.037  -2.084   1.188  0.00  0.00    +0.005 A 
ATOM     25  C   UNL     1       0.023  -0.702   1.195  0.00  0.00    +0.003 A 
ENDBRANCH  18  23
ENDBRANCH  14  18
ENDBRANCH   1  15
BRANCH  10  26
ATOM     26  C   UNL     1       7.387  -9.011  -2.210  0.00  0.00    +0.198 C 
BRANCH  26  27
ATOM     27  S   UNL     1       8.799  -7.960  -2.648  0.00  0.00    -0.025 S 
ATOM     28  O   UNL     1       8.570  -6.658  -2.126  0.00  0.00    -0.174 OA
ATOM     29  O   UNL     1       9.994  -8.644  -2.299  0.00  0.00    -0.174 OA
BRANCH  27  30
ATOM     30  C   UNL     1       8.692  -7.879  -4.457  0.00  0.00    +0.201 C 
BRANCH  30  31
ATOM     31  C   UNL     1       9.815  -7.027  -4.989  0.00  0.00    -0.026 A 
ATOM     32  C   UNL     1       9.636  -5.665  -5.143  0.00  0.00    +0.008 A 
ATOM     33  C   UNL     1      10.665  -4.882  -5.631  0.00  0.00    +0.038 A 
ATOM     34  C   UNL     1      11.877  -5.463  -5.965  0.00  0.00    +0.123 A 
ATOM     35  C   UNL     1      12.055  -6.827  -5.810  0.00  0.00    +0.038 A 
ATOM     36  C   UNL     1      11.026  -7.607  -5.318  0.00  0.00    +0.008 A 
ATOM     37  F   UNL     1      12.884  -4.699  -6.442  0.00  0.00    -0.205 F 
ENDBRANCH  30  31
ENDBRANCH  27  30
ENDBRANCH  26  27
ENDBRANCH  10  26
TORSDOF 7
