REMARK  Name = ZINC36492762
REMARK  17 active torsions:
REMARK  status: ('A' for Active; 'I' for Inactive)
REMARK    1  A    between atoms: C_1  and  C_2
REMARK    2  A    between atoms: C_2  and  C_3
REMARK    3  A    between atoms: C_2  and  C_4
REMARK    4  A    between atoms: C_2  and  C_5
REMARK    5  A    between atoms: C_5  and  C_6
REMARK    6  A    between atoms: C_6  and  C_7
REMARK    7  A    between atoms: C_6  and  C_8
REMARK    8  A    between atoms: C_6  and  N_9
REMARK    9  A    between atoms: C_10  and  C_12
REMARK   10  A    between atoms: C_12  and  C_14
REMARK   11  A    between atoms: C_12  and  N_23
REMARK   12  A    between atoms: C_17  and  N_20
REMARK   13  A    between atoms: N_20  and  C_21
REMARK   14  A    between atoms: N_20  and  C_22
REMARK   15  A    between atoms: N_23  and  C_24
REMARK   16  A    between atoms: C_30  and  C_32
REMARK   17  A    between atoms: C_35  and  N_38
REMARK                            x       y       z     vdW  Elec       q    Type
REMARK                         _______ _______ _______ _____ _____    ______ ____
ROOT
ATOM      1  C   UNL     1       5.477  -0.342  -3.633  0.00  0.00    +0.193 C 
ENDROOT
BRANCH   1   2
ATOM      2  C   UNL     1       4.686   0.210  -4.791  0.00  0.00    -0.018 A 
ATOM      3  C   UNL     1       3.619   1.058  -4.556  0.00  0.00    +0.008 A 
ATOM      4  C   UNL     1       2.892   1.565  -5.615  0.00  0.00    +0.023 A 
ATOM      5  C   UNL     1       3.234   1.223  -6.917  0.00  0.00    +0.029 A 
ATOM      6  C   UNL     1       4.306   0.371  -7.150  0.00  0.00    +0.023 A 
ATOM      7  C   UNL     1       5.032  -0.128  -6.086  0.00  0.00    +0.008 A 
BRANCH   5   8
ATOM      8  N   UNL     1       2.501   1.734  -7.991  0.00  0.00    -0.336 N 
ATOM      9  C   UNL     1       1.370   2.632  -7.744  0.00  0.00    +0.129 C 
ATOM     10  C   UNL     1       2.862   1.372  -9.363  0.00  0.00    +0.129 C 
ENDBRANCH   5   8
ENDBRANCH   1   2
BRANCH   1  12
ATOM     11  N   UNL     1       3.599  -0.321  -2.024  0.00  0.00    -0.308 N 
ATOM     12  C   UNL     1       4.842   0.094  -2.338  0.00  0.00    +0.239 C 
ATOM     13  O   UNL     1       5.449   0.818  -1.578  0.00  0.00    -0.273 OA
ATOM     14  H   UNL     1       3.139  -0.953  -2.599  0.00  0.00    +0.149 HD
BRANCH  11  15
ATOM     15  C   UNL     1       2.942   0.182  -0.815  0.00  0.00    +0.030 C 
ATOM     16  C   UNL     1       3.046   1.708  -0.775  0.00  0.00    +0.031 C 
ATOM     17  C   UNL     1       3.626  -0.408   0.420  0.00  0.00    +0.031 C 
BRANCH  15  18
ATOM     18  C   UNL     1       1.468  -0.229  -0.827  0.00  0.00    +0.031 C 
BRANCH  18  20
ATOM     19  C   UNL     1       1.236  -0.909  -3.220  0.00  0.00    +0.010 C 
ATOM     20  C   UNL     1       0.847   0.140  -2.176  0.00  0.00    -0.036 C 
ATOM     21  C   UNL     1       1.360   1.512  -2.616  0.00  0.00    +0.010 C 
ATOM     22  C   UNL     1      -0.677   0.184  -2.041  0.00  0.00    +0.010 C 
ENDBRANCH  18  20
ENDBRANCH  15  18
ENDBRANCH  11  15
ENDBRANCH   1  12
BRANCH   1  23
ATOM     23  N   UNL     1       6.851   0.162  -3.696  0.00  0.00    -0.279 N 
ATOM     24  C   UNL     1       7.882  -0.702  -3.794  0.00  0.00    +0.248 C 
ATOM     25  O   UNL     1       7.668  -1.885  -3.976  0.00  0.00    -0.270 OA
BRANCH  23  26
ATOM     26  C   UNL     1       7.106   1.604  -3.653  0.00  0.00    +0.077 C 
ATOM     27  C   UNL     1       7.591   1.994  -2.256  0.00  0.00    +0.022 C 
ATOM     28  C   UNL     1       7.857   3.500  -2.211  0.00  0.00    +0.002 C 
ATOM     29  C   UNL     1       6.566   4.256  -2.532  0.00  0.00    +0.000 C 
ATOM     30  C   UNL     1       6.081   3.865  -3.929  0.00  0.00    +0.002 C 
ATOM     31  C   UNL     1       5.815   2.359  -3.975  0.00  0.00    +0.022 C 
ENDBRANCH  23  26
BRANCH  24  32
ATOM     32  C   UNL     1       9.271  -0.211  -3.680  0.00  0.00    +0.037 A 
ATOM     33  C   UNL     1       9.522   1.153  -3.520  0.00  0.00    +0.015 A 
ATOM     34  C   UNL     1      10.821   1.605  -3.413  0.00  0.00    +0.033 A 
ATOM     35  C   UNL     1      11.874   0.709  -3.466  0.00  0.00    +0.126 A 
ATOM     36  C   UNL     1      11.633  -0.644  -3.626  0.00  0.00    +0.033 A 
ATOM     37  C   UNL     1      10.338  -1.109  -3.727  0.00  0.00    +0.015 A 
BRANCH  35  38
ATOM     38  N   UNL     1      13.266   1.201  -3.352  0.00  0.00    +0.056 N 
ATOM     39  O   UNL     1      13.480   2.383  -3.213  0.00  0.00    -0.126 OA
ATOM     40  O   UNL     1      14.188   0.421  -3.398  0.00  0.00    -0.126 OA
ENDBRANCH  35  38
ENDBRANCH  24  32
ENDBRANCH   1  23
TORSDOF 10
