REMARK  Name = ZINC57991966
REMARK  3 active torsions:
REMARK  status: ('A' for Active; 'I' for Inactive)
REMARK    1  A    between atoms: C_6  and  N_7
REMARK    2  A    between atoms: C_8  and  C_10
REMARK    3  A    between atoms: C_13  and  N_16
REMARK                            x       y       z     vdW  Elec       q    Type
REMARK                         _______ _______ _______ _____ _____    ______ ____
ROOT
ATOM      1  C   UNL     1      -2.480  -2.828  -0.204  0.00  0.00    +0.075 C 
ATOM      2  C   UNL     1      -3.245  -2.365  -1.445  0.00  0.00    +0.014 C 
ATOM      3  C   UNL     1      -4.560  -3.140  -1.552  0.00  0.00    +0.023 C 
ATOM      4  C   UNL     1      -4.263  -4.637  -1.664  0.00  0.00    +0.074 C 
ATOM      5  C   UNL     1      -3.498  -5.099  -0.422  0.00  0.00    +0.023 C 
ATOM      6  C   UNL     1      -2.182  -4.324  -0.316  0.00  0.00    +0.014 C 
ENDROOT
BRANCH   4   7
ATOM      7  N   UNL     1      -3.452  -4.885  -2.858  0.00  0.00    -0.297 N 
ATOM      8  C   UNL     1      -3.478  -6.095  -3.451  0.00  0.00    +0.297 C 
ATOM      9  O   UNL     1      -4.176  -6.980  -2.995  0.00  0.00    -0.253 OA
ATOM     10  N   UNL     1      -2.732  -6.324  -4.550  0.00  0.00    -0.313 N 
ATOM     11  H   UNL     1      -2.896  -4.179  -3.223  0.00  0.00    +0.151 HD
ATOM     12  H   UNL     1      -2.176  -5.617  -4.914  0.00  0.00    +0.146 HD
ATOM     13  H   UNL     1      -2.752  -7.194  -4.977  0.00  0.00    +0.146 HD
ENDBRANCH   4   7
BRANCH   1  15
ATOM     14  N   UNL     1      -1.200  -0.722   0.010  0.00  0.00    -0.285 N 
ATOM     15  C   UNL     1      -1.184  -2.065  -0.099  0.00  0.00    +0.220 C 
ATOM     16  O   UNL     1      -0.127  -2.660  -0.113  0.00  0.00    -0.275 OA
ATOM     17  H   UNL     1      -2.045  -0.252   0.098  0.00  0.00    +0.155 HD
BRANCH  14  23
ATOM     18  C   UNL     1       1.071  -0.454  -0.766  0.00  0.00    +0.026 A 
ATOM     19  C   UNL     1       2.256   0.256  -0.779  0.00  0.00    +0.040 A 
ATOM     20  C   UNL     1       2.378   1.416  -0.032  0.00  0.00    +0.124 A 
ATOM     21  C   UNL     1       1.312   1.866   0.730  0.00  0.00    +0.040 A 
ATOM     22  C   UNL     1       0.126   1.159   0.745  0.00  0.00    +0.026 A 
ATOM     23  C   UNL     1       0.002  -0.004  -0.004  0.00  0.00    +0.034 A 
ATOM     24  F   UNL     1       3.538   2.108  -0.045  0.00  0.00    -0.205 F 
ENDBRANCH  14  23
ENDBRANCH   1  15
TORSDOF 3
