REMARK  Name = ZINC05033194
REMARK  5 active torsions:
REMARK  status: ('A' for Active; 'I' for Inactive)
REMARK    1  A    between atoms: C_1  and  C_2
REMARK    2  A    between atoms: C_3  and  C_17
REMARK    3  A    between atoms: C_5  and  C_7
REMARK    4  A    between atoms: C_12  and  N_13
REMARK    5  A    between atoms: N_19  and  C_20
REMARK                            x       y       z     vdW  Elec       q    Type
REMARK                         _______ _______ _______ _____ _____    ______ ____
ROOT
ATOM      1  C   UNL     1       2.834  -0.029   0.501  0.00  0.00    +0.087 C 
ATOM      2  C   UNL     1       2.504   1.428   0.302  0.00  0.00    +0.115 A 
ATOM      3  C   UNL     1       1.248   1.948   0.162  0.00  0.00    +0.078 A 
ATOM      4  C   UNL     1       1.432   3.393  -0.011  0.00  0.00    +0.063 A 
ATOM      5  C   UNL     1       2.770   3.606   0.050  0.00  0.00    +0.138 A 
ATOM      6  O   UNL     1       3.390   2.426   0.233  0.00  0.00    -0.459 OA
ENDROOT
BRANCH   5   7
ATOM      7  C   UNL     1       3.438   4.919  -0.072  0.00  0.00    +0.048 A 
ATOM      8  C   UNL     1       3.124   5.770  -1.133  0.00  0.00    +0.015 A 
ATOM      9  C   UNL     1       3.747   6.996  -1.239  0.00  0.00    +0.021 A 
ATOM     10  C   UNL     1       4.691   7.379  -0.301  0.00  0.00    +0.043 A 
ATOM     11  C   UNL     1       5.011   6.537   0.751  0.00  0.00    +0.053 A 
ATOM     12  C   UNL     1       4.390   5.311   0.870  0.00  0.00    +0.138 A 
ATOM     13 CL   UNL     1       5.477   8.920  -0.445  0.00  0.00    -0.083 Cl
BRANCH  12  14
ATOM     14  N   UNL     1       4.734   4.412   1.995  0.00  0.00    +0.057 N 
ATOM     15  O   UNL     1       5.565   4.755   2.817  0.00  0.00    -0.126 OA
ATOM     16  O   UNL     1       4.185   3.330   2.099  0.00  0.00    -0.126 OA
ENDBRANCH  12  14
ENDBRANCH   5   7
BRANCH   3  17
ATOM     17  C   UNL     1      -0.027   1.209   0.175  0.00  0.00    +0.252 C 
ATOM     18  O   UNL     1      -0.029   0.002   0.323  0.00  0.00    -0.270 OA
ATOM     19  N   UNL     1      -1.191   1.870   0.018  0.00  0.00    -0.281 N 
ATOM     20  H   UNL     1      -1.196   2.839  -0.023  0.00  0.00    +0.155 HD
BRANCH  19  21
ATOM     21  C   UNL     1      -2.392   1.158  -0.086  0.00  0.00    +0.034 A 
ATOM     22  C   UNL     1      -2.412  -0.085  -0.704  0.00  0.00    +0.026 A 
ATOM     23  C   UNL     1      -3.596  -0.788  -0.800  0.00  0.00    +0.040 A 
ATOM     24  C   UNL     1      -4.766  -0.249  -0.292  0.00  0.00    +0.124 A 
ATOM     25  C   UNL     1      -4.749   0.994   0.320  0.00  0.00    +0.040 A 
ATOM     26  C   UNL     1      -3.565   1.697   0.424  0.00  0.00    +0.026 A 
ATOM     27  F   UNL     1      -5.925  -0.936  -0.392  0.00  0.00    -0.205 F 
ENDBRANCH  19  21
ENDBRANCH   3  17
TORSDOF 4
