REMARK  Name = ZINC07957655
REMARK  6 active torsions:
REMARK  status: ('A' for Active; 'I' for Inactive)
REMARK    1  A    between atoms: C_5  and  C_7
REMARK    2  A    between atoms: N_9  and  N_10
REMARK    3  A    between atoms: C_11  and  C_13
REMARK    4  A    between atoms: C_13  and  C_14
REMARK    5  A    between atoms: C_14  and  C_15
REMARK    6  A    between atoms: C_17  and  C_20
REMARK                            x       y       z     vdW  Elec       q    Type
REMARK                         _______ _______ _______ _____ _____    ______ ____
ROOT
ATOM      1  N   UNL     1       0.121  -4.256  -0.024  0.00  0.00    -0.234 N 
ATOM      2  C   UNL     1      -1.033  -4.952  -0.016  0.00  0.00    +0.230 C 
ATOM      3  O   UNL     1      -2.094  -4.365  -0.002  0.00  0.00    -0.274 OA
ATOM      4  H   UNL     1       0.970  -4.725  -0.035  0.00  0.00    +0.173 HD
ENDROOT
BRANCH   1   7
ATOM      5  C   UNL     1       1.250  -2.160  -0.023  0.00  0.00    +0.263 C 
ATOM      6  O   UNL     1       2.314  -2.748  -0.037  0.00  0.00    -0.269 OA
ATOM      7  N   UNL     1       0.095  -2.855  -0.015  0.00  0.00    -0.230 N 
ATOM      8  H   UNL     1      -0.753  -2.386  -0.004  0.00  0.00    +0.173 HD
BRANCH   5  13
ATOM      9  C   UNL     1      -0.017   1.374   0.010  0.00  0.00    +0.001 A 
ATOM     10  C   UNL     1       1.170   2.087   0.002  0.00  0.00    +0.003 A 
ATOM     11  C   UNL     1       2.383   1.425  -0.013  0.00  0.00    +0.039 A 
ATOM     12  C   UNL     1       2.418   0.042  -0.022  0.00  0.00    +0.136 A 
ATOM     13  C   UNL     1       1.222  -0.683  -0.014  0.00  0.00    +0.073 A 
ATOM     14  C   UNL     1       0.002  -0.004   0.002  0.00  0.00    +0.016 A 
ATOM     15  F   UNL     1       3.603  -0.606  -0.038  0.00  0.00    -0.205 F 
ENDBRANCH   5  13
ENDBRANCH   1   7
BRANCH   2  16
ATOM     16  C   UNL     1      -1.005  -6.458  -0.025  0.00  0.00    +0.107 C 
BRANCH  16  17
ATOM     17  C   UNL     1      -2.438  -6.995  -0.014  0.00  0.00    +0.108 C 
BRANCH  17  18
ATOM     18  C   UNL     1      -2.410  -8.502  -0.023  0.00  0.00    +0.228 A 
ATOM     19  N   UNL     1      -2.390  -9.268   1.029  0.00  0.00    -0.191 NA
ATOM     20  C   UNL     1      -2.368 -10.562   0.657  0.00  0.00    +0.209 A 
ATOM     21  N   UNL     1      -2.373 -10.620  -0.655  0.00  0.00    -0.056 NA
ATOM     22  O   UNL     1      -2.407  -9.277  -1.115  0.00  0.00    -0.338 OA
BRANCH  20  23
ATOM     23  C   UNL     1      -2.341 -11.723   1.571  0.00  0.00    +0.060 A 
ATOM     24  C   UNL     1      -2.312 -13.059   1.269  0.00  0.00    +0.019 A 
ATOM     25  C   UNL     1      -2.291 -13.970   2.301  0.00  0.00    +0.008 A 
ATOM     26  C   UNL     1      -2.298 -13.519   3.583  0.00  0.00    +0.046 A 
ATOM     27  S   UNL     1      -2.331 -11.748   3.356  0.00  0.00    -0.093 S 
ENDBRANCH  20  23
ENDBRANCH  17  18
ENDBRANCH  16  17
ENDBRANCH   2  16
TORSDOF 6
