REMARK  Name = ZINC66620642
REMARK  6 active torsions:
REMARK  status: ('A' for Active; 'I' for Inactive)
REMARK    1  A    between atoms: C_1  and  C_2
REMARK    2  A    between atoms: C_6  and  C_8
REMARK    3  A    between atoms: C_11  and  N_14
REMARK    4  A    between atoms: C_15  and  C_17
REMARK    5  A    between atoms: C_21  and  O_23
REMARK    6  A    between atoms: O_23  and  C_24
REMARK                            x       y       z     vdW  Elec       q    Type
REMARK                         _______ _______ _______ _____ _____    ______ ____
ROOT
ATOM      1  N   UNL     1       0.605  -2.758   6.028  0.00  0.00    -0.172 NA
ATOM      2  C   UNL     1       0.574  -1.524   6.473  0.00  0.00    +0.281 C 
ATOM      3  O   UNL     1       0.768  -0.493   5.621  0.00  0.00    -0.265 OA
ENDROOT
BRANCH   1   7
ATOM      4  C   UNL     1       1.226  -2.690   2.595  0.00  0.00    +0.201 A 
ATOM      5  N   UNL     1       1.037  -2.089   3.776  0.00  0.00    -0.188 NA
ATOM      6  H   UNL     1       0.778  -5.086   4.549  0.00  0.00    +0.192 HD
ATOM      7  C   UNL     1       0.832  -3.000   4.710  0.00  0.00    +0.250 A 
ATOM      8  N   UNL     1       0.890  -4.225   4.117  0.00  0.00    -0.243 N 
ATOM      9  N   UNL     1       1.139  -3.992   2.754  0.00  0.00    -0.149 NA
BRANCH   4  15
ATOM     10  C   UNL     1       1.829   1.489   0.173  0.00  0.00    +0.065 C 
ATOM     11  C   UNL     1       1.771  -0.017   0.157  0.00  0.00    +0.039 A 
ATOM     12  C   UNL     1       1.958  -0.694  -1.035  0.00  0.00    +0.023 A 
ATOM     13  C   UNL     1       1.905  -2.080  -1.046  0.00  0.00    +0.004 A 
ATOM     14  C   UNL     1       1.664  -2.741   0.146  0.00  0.00    +0.031 A 
ATOM     15  C   UNL     1       1.485  -1.996   1.310  0.00  0.00    +0.110 A 
ATOM     16  N   UNL     1       1.548  -0.671   1.278  0.00  0.00    -0.249 NA
ENDBRANCH   4  15
ENDBRANCH   1   7
BRANCH   2  17
ATOM     17  C   UNL     1       0.327  -1.261   7.904  0.00  0.00    +0.045 A 
ATOM     18  C   UNL     1       0.131  -2.325   8.789  0.00  0.00    +0.013 A 
ATOM     19  C   UNL     1      -0.100  -2.076  10.126  0.00  0.00    +0.004 A 
ATOM     20  C   UNL     1      -0.138  -0.775  10.595  0.00  0.00    +0.046 A 
ATOM     21  C   UNL     1       0.054   0.288   9.724  0.00  0.00    +0.122 A 
ATOM     22  C   UNL     1       0.293   0.050   8.381  0.00  0.00    +0.059 A 
BRANCH  21  23
ATOM     23  O   UNL     1       0.015   1.564  10.191  0.00  0.00    -0.489 OA
BRANCH  23  24
ATOM     24  C   UNL     1       0.100   2.612   9.223  0.00  0.00    +0.173 C 
ATOM     25  C   UNL     1       1.578   2.947   8.936  0.00  0.00    +0.044 C 
ATOM     26  C   UNL     1       1.590   4.484   8.748  0.00  0.00    +0.004 C 
ATOM     27  C   UNL     1       0.569   4.966   9.809  0.00  0.00    +0.004 C 
ATOM     28  C   UNL     1      -0.542   3.896   9.778  0.00  0.00    +0.044 C 
ENDBRANCH  23  24
ENDBRANCH  21  23
ENDBRANCH   2  17
TORSDOF 5
