REMARK  Name = ZINC35774382
REMARK  2 active torsions:
REMARK  status: ('A' for Active; 'I' for Inactive)
REMARK    1  A    between atoms: C_1  and  C_2
REMARK    2  A    between atoms: N_8  and  C_9
REMARK                            x       y       z     vdW  Elec       q    Type
REMARK                         _______ _______ _______ _____ _____    ______ ____
ROOT
ATOM      1  C   UNL     1       1.577   0.383   1.904  0.00  0.00    +0.049 A 
ATOM      2  C   UNL     1       1.415   0.436   3.288  0.00  0.00    +0.028 A 
ATOM      3  C   UNL     1       2.200   1.318   4.009  0.00  0.00    +0.045 A 
ATOM      4  C   UNL     1       3.117   2.116   3.335  0.00  0.00    +0.116 A 
ATOM      5  N   UNL     1       3.244   2.039   2.020  0.00  0.00    -0.239 NA
ATOM      6  C   UNL     1       2.516   1.205   1.301  0.00  0.00    +0.136 A 
ATOM      7  N   UNL     1       3.912   3.008   4.052  0.00  0.00    -0.343 N 
ATOM      8  H   UNL     1       3.824   3.069   5.016  0.00  0.00    +0.144 HD
ATOM      9  H   UNL     1       4.554   3.567   3.587  0.00  0.00    +0.144 HD
ENDROOT
BRANCH   1  16
ATOM     10  C   UNL     1      -0.816   1.345   1.016  0.00  0.00    +0.030 C 
ATOM     11  C   UNL     1      -0.444  -0.046   0.498  0.00  0.00    +0.096 C 
ATOM     12  C   UNL     1      -1.554  -1.042   0.852  0.00  0.00    +0.182 C 
ATOM     13  O   UNL     1      -1.119  -2.366   0.531  0.00  0.00    -0.376 OA
ATOM     14  C   UNL     1       0.025  -2.801   1.270  0.00  0.00    +0.178 C 
ATOM     15  C   UNL     1       1.216  -1.894   0.938  0.00  0.00    +0.133 C 
ATOM     16  N   UNL     1       0.804  -0.495   1.134  0.00  0.00    -0.322 N 
ENDBRANCH   1  16
TORSDOF 1
