REMARK  Name = ZINC38782994
REMARK  5 active torsions:
REMARK  status: ('A' for Active; 'I' for Inactive)
REMARK    1  A    between atoms: C_4  and  N_24
REMARK    2  A    between atoms: C_6  and  C_7
REMARK    3  A    between atoms: C_7  and  O_9
REMARK    4  A    between atoms: O_9  and  C_10
REMARK    5  A    between atoms: C_10  and  C_11
REMARK                            x       y       z     vdW  Elec       q    Type
REMARK                         _______ _______ _______ _____ _____    ______ ____
ROOT
ATOM      1  C   UNL     1      -3.608  -0.562  -0.129  0.00  0.00    +0.328 C 
ENDROOT
BRANCH   1   2
ATOM      2  C   UNL     1      -4.929   0.161  -0.068  0.00  0.00    +0.255 C 
ATOM      3  O   UNL     1      -4.962   1.371  -0.134  0.00  0.00    -0.272 OA
ATOM      4  N   UNL     1      -6.075  -0.538   0.059  0.00  0.00    -0.283 N 
ATOM      5  C   UNL     1      -6.897  -0.281   1.058  0.00  0.00    +0.036 C 
ATOM      6  C   UNL     1      -6.509   0.678   2.100  0.00  0.00    +0.025 C 
ATOM      7  C   UNL     1      -7.343   0.947   3.123  0.00  0.00    +0.032 C 
ATOM      8  C   UNL     1      -8.647   0.281   3.202  0.00  0.00    +0.095 C 
ATOM      9  N   UNL     1      -9.655   0.330   4.052  0.00  0.00    -0.190 NA
ATOM     10  C   UNL     1     -10.624  -0.503   3.638  0.00  0.00    +0.369 C 
ATOM     11  O   UNL     1     -11.798  -0.689   4.288  0.00  0.00    -0.243 OA
ATOM     12  N   UNL     1     -10.292  -1.114   2.525  0.00  0.00    -0.190 NA
ATOM     13  C   UNL     1      -9.049  -0.684   2.160  0.00  0.00    +0.097 C 
ATOM     14  C   UNL     1      -8.212  -0.953   1.125  0.00  0.00    +0.053 C 
ATOM     15  H   UNL     1      -6.295  -1.230  -0.584  0.00  0.00    +0.155 HD
ENDBRANCH   1   2
BRANCH   1  16
ATOM     16  O   UNL     1      -2.551   0.389  -0.264  0.00  0.00    -0.452 OA
BRANCH  16  17
ATOM     17  C   UNL     1      -1.296  -0.097  -0.333  0.00  0.00    +0.340 C 
ATOM     18  O   UNL     1      -1.105  -1.296  -0.280  0.00  0.00    -0.245 OA
BRANCH  17  24
ATOM     19  C   UNL     1      -0.369   2.205  -0.534  0.00  0.00    +0.016 A 
ATOM     20  C   UNL     1       0.700   3.066  -0.664  0.00  0.00    +0.022 A 
ATOM     21  C   UNL     1       1.990   2.570  -0.735  0.00  0.00    +0.062 A 
ATOM     22  C   UNL     1       2.216   1.198  -0.675  0.00  0.00    +0.044 A 
ATOM     23  C   UNL     1       1.148   0.325  -0.544  0.00  0.00    +0.039 A 
ATOM     24  C   UNL     1      -0.153   0.827  -0.473  0.00  0.00    +0.061 A 
ATOM     25 CL   UNL     1       3.329   3.662  -0.899  0.00  0.00    -0.082 Cl
BRANCH  22  26
ATOM     26  N   UNL     1       3.520   0.701  -0.748  0.00  0.00    -0.357 N 
ATOM     27  H   UNL     1       4.268   1.312  -0.840  0.00  0.00    +0.142 HD
ATOM     28  H   UNL     1       3.678  -0.255  -0.707  0.00  0.00    +0.142 HD
ENDBRANCH  22  26
ENDBRANCH  17  24
ENDBRANCH  16  17
ENDBRANCH   1  16
TORSDOF 5
