REMARK  Name = ZINC39670493
REMARK  6 active torsions:
REMARK  status: ('A' for Active; 'I' for Inactive)
REMARK    1  A    between atoms: C_1  and  C_2
REMARK    2  A    between atoms: C_7  and  C_11
REMARK    3  A    between atoms: C_11  and  N_12
REMARK    4  A    between atoms: C_13  and  C_15
REMARK    5  A    between atoms: C_26  and  C_28
REMARK    6  A    between atoms: C_32  and  C_35
REMARK                            x       y       z     vdW  Elec       q    Type
REMARK                         _______ _______ _______ _____ _____    ______ ____
ROOT
ATOM      1  C   UNL     1       3.158  -7.609   3.255  0.00  0.00    +0.100 C 
ATOM      2  C   UNL     1       4.014  -6.555   3.992  0.00  0.00    +0.121 C 
ATOM      3  N   UNL     1       4.000  -6.986   5.410  0.00  0.00    -0.296 N 
ATOM      4  C   UNL     1       4.100  -8.464   5.347  0.00  0.00    +0.115 C 
ATOM      5  C   UNL     1       3.220  -8.862   4.145  0.00  0.00    -0.004 C 
ATOM      6  C   UNL     1       3.857 -10.020   3.384  0.00  0.00    -0.010 C 
ATOM      7  C   UNL     1       3.855 -11.270   4.269  0.00  0.00    -0.082 C 
ATOM      8  N   UNL     1       2.475 -11.604   4.644  0.00  0.00    +0.379 N 
ATOM      9  C   UNL     1       1.902 -10.523   5.456  0.00  0.00    -0.082 C 
ATOM     10  C   UNL     1       1.821  -9.242   4.620  0.00  0.00    -0.010 C 
ATOM     11  C   UNL     1       3.915  -6.210   6.508  0.00  0.00    +0.251 C 
ATOM     12  O   UNL     1       3.916  -6.718   7.613  0.00  0.00    -0.270 OA
ATOM     13  H   UNL     1       1.922 -11.726   3.810  0.00  0.00    -0.086 HD
ATOM     14  H   UNL     1       2.471 -12.461   5.176  0.00  0.00    -0.086 HD
ENDROOT
BRANCH  11  15
ATOM     15  C   UNL     1       3.821  -4.743   6.370  0.00  0.00    +0.091 A 
ATOM     16  C   UNL     1       2.570  -4.125   6.274  0.00  0.00    +0.056 A 
ATOM     17  C   UNL     1       2.490  -2.753   6.146  0.00  0.00    +0.021 A 
ATOM     18  C   UNL     1       3.644  -1.989   6.112  0.00  0.00    +0.007 A 
ATOM     19  C   UNL     1       4.884  -2.591   6.205  0.00  0.00    -0.014 A 
ATOM     20  C   UNL     1       4.981  -3.964   6.341  0.00  0.00    +0.140 A 
ATOM     21  F   UNL     1       6.194  -4.551   6.438  0.00  0.00    -0.204 F 
ATOM     22  C   UNL     1       6.134  -1.749   6.167  0.00  0.00    +0.047 C 
ATOM     23 CL   UNL     1       1.122  -5.081   6.316  0.00  0.00    -0.083 Cl
ENDBRANCH  11  15
BRANCH   1  25
ATOM     24  N   UNL     1       0.956  -7.599   2.128  0.00  0.00    -0.309 N 
ATOM     25  C   UNL     1       1.735  -7.130   3.123  0.00  0.00    +0.219 C 
ATOM     26  O   UNL     1       1.291  -6.322   3.911  0.00  0.00    -0.275 OA
ATOM     27  H   UNL     1       1.310  -8.246   1.498  0.00  0.00    +0.149 HD
BRANCH  24  28
ATOM     28  C   UNL     1      -0.427  -7.134   1.999  0.00  0.00    +0.159 C 
BRANCH  28  35
ATOM     29  C   UNL     1      -3.232  -9.284  -4.492  0.00  0.00    +0.045 C 
ATOM     30  C   UNL     1      -2.841  -9.286  -3.036  0.00  0.00    -0.034 A 
ATOM     31  C   UNL     1      -3.164 -10.388  -2.227  0.00  0.00    +0.008 A 
ATOM     32  C   UNL     1      -2.810 -10.387  -0.914  0.00  0.00    +0.045 A 
ATOM     33  C   UNL     1      -2.122  -9.276  -0.386  0.00  0.00    +0.115 A 
ATOM     34  N   UNL     1      -1.662  -9.006   0.828  0.00  0.00    -0.342 N 
ATOM     35  C   UNL     1      -1.076  -7.806   0.817  0.00  0.00    +0.051 A 
ATOM     36  C   UNL     1      -1.161  -7.295  -0.431  0.00  0.00    +0.115 A 
ATOM     37  N   UNL     1      -1.820  -8.216  -1.200  0.00  0.00    -0.308 N 
ATOM     38  C   UNL     1      -2.177  -8.232  -2.518  0.00  0.00    +0.096 A 
ATOM     39  H   UNL     1      -1.739  -9.587   1.601  0.00  0.00    +0.167 HD
ENDBRANCH  28  35
ENDBRANCH  24  28
ENDBRANCH   1  25
TORSDOF 4
