REMARK  Name = ZINC39974397
REMARK  12 active torsions:
REMARK  status: ('A' for Active; 'I' for Inactive)
REMARK    1  A    between atoms: C_1  and  C_2
REMARK    2  A    between atoms: C_3  and  N_16
REMARK    3  A    between atoms: C_4  and  C_15
REMARK    4  A    between atoms: N_5  and  C_7
REMARK    5  A    between atoms: C_7  and  C_8
REMARK    6  A    between atoms: N_16  and  C_17
REMARK    7  A    between atoms: C_17  and  N_19
REMARK    8  A    between atoms: N_19  and  C_20
REMARK    9  A    between atoms: C_23  and  S_26
REMARK   10  A    between atoms: S_26  and  N_29
REMARK   11  A    between atoms: C_30  and  C_38
REMARK   12  A    between atoms: C_35  and  C_37
REMARK                            x       y       z     vdW  Elec       q    Type
REMARK                         _______ _______ _______ _____ _____    ______ ____
ROOT
ATOM      1  C   UNL     1       1.051  -0.121  -3.190  0.00  0.00    +0.139 C 
ATOM      2  S   UNL     1       0.596   0.989  -1.968  0.00  0.00    -0.018 S 
ENDROOT
BRANCH   1   3
ATOM      3  N   UNL     1       0.971  -1.447  -2.960  0.00  0.00    -0.294 N 
ATOM      4  H   UNL     1       1.269  -2.075  -3.636  0.00  0.00    +0.154 HD
BRANCH   3   7
ATOM      5  C   UNL     1      -1.599  -0.349  -1.585  0.00  0.00    +0.069 C 
ATOM      6  C   UNL     1      -0.696  -1.450  -1.091  0.00  0.00    +0.081 A 
ATOM      7  C   UNL     1       0.456  -1.919  -1.738  0.00  0.00    +0.076 A 
ATOM      8  C   UNL     1       0.986  -2.911  -0.977  0.00  0.00    +0.058 A 
ATOM      9  N   UNL     1       0.190  -3.059   0.114  0.00  0.00    -0.262 N 
ATOM     10  N   UNL     1      -0.851  -2.127   0.018  0.00  0.00    -0.174 NA
ATOM     11  C   UNL     1       2.230  -3.703  -1.287  0.00  0.00    +0.067 C 
BRANCH   9  12
ATOM     12  C   UNL     1       0.390  -4.020   1.202  0.00  0.00    +0.181 C 
BRANCH  12  13
ATOM     13  C   UNL     1       1.241  -3.393   2.276  0.00  0.00    +0.009 A 
ATOM     14  C   UNL     1       2.608  -3.597   2.281  0.00  0.00    +0.008 A 
ATOM     15  C   UNL     1       3.390  -3.022   3.266  0.00  0.00    +0.000 A 
ATOM     16  C   UNL     1       2.805  -2.243   4.247  0.00  0.00    +0.003 A 
ATOM     17  C   UNL     1       1.438  -2.037   4.244  0.00  0.00    +0.039 A 
ATOM     18  C   UNL     1       0.655  -2.608   3.254  0.00  0.00    +0.128 A 
ATOM     19  F   UNL     1      -0.680  -2.404   3.247  0.00  0.00    -0.205 F 
ENDBRANCH  12  13
ENDBRANCH   9  12
ENDBRANCH   3   7
ENDBRANCH   1   3
BRANCH   1  20
ATOM     20  N   UNL     1       1.488   0.331  -4.382  0.00  0.00    -0.297 N 
ATOM     21  H   UNL     1       1.807  -0.295  -5.051  0.00  0.00    +0.154 HD
BRANCH  20  22
ATOM     22  C   UNL     1       1.483   1.703  -4.655  0.00  0.00    +0.033 A 
ATOM     23  C   UNL     1       1.966   2.601  -3.712  0.00  0.00    +0.025 A 
ATOM     24  C   UNL     1       1.959   3.955  -3.984  0.00  0.00    +0.030 A 
ATOM     25  C   UNL     1       1.472   4.417  -5.194  0.00  0.00    +0.106 A 
ATOM     26  C   UNL     1       0.991   3.525  -6.134  0.00  0.00    +0.030 A 
ATOM     27  C   UNL     1       1.000   2.169  -5.871  0.00  0.00    +0.025 A 
BRANCH  25  28
ATOM     28  S   UNL     1       1.465   6.145  -5.537  0.00  0.00    +0.061 S 
ATOM     29  O   UNL     1       0.457   6.361  -6.514  0.00  0.00    -0.153 OA
ATOM     30  O   UNL     1       1.462   6.808  -4.280  0.00  0.00    -0.153 OA
BRANCH  28  31
ATOM     31  N   UNL     1       2.910   6.507  -6.259  0.00  0.00    -0.171 NA
ATOM     32  C   UNL     1       4.074   6.897  -5.452  0.00  0.00    +0.077 C 
ATOM     33  C   UNL     1       4.614   8.231  -5.978  0.00  0.00    +0.020 C 
ATOM     34  C   UNL     1       4.902   8.105  -7.476  0.00  0.00    +0.003 C 
ATOM     35  C   UNL     1       3.605   7.781  -8.221  0.00  0.00    +0.020 C 
ATOM     36  C   UNL     1       3.055   6.437  -7.720  0.00  0.00    +0.077 C 
ATOM     37  C   UNL     1       1.691   6.168  -8.358  0.00  0.00    +0.026 C 
ATOM     38  C   UNL     1       3.655   7.052  -3.989  0.00  0.00    +0.026 C 
ENDBRANCH  28  31
ENDBRANCH  25  28
ENDBRANCH  20  22
ENDBRANCH   1  20
TORSDOF 8
