REMARK  Name = ZINC34999709
REMARK  12 active torsions:
REMARK  status: ('A' for Active; 'I' for Inactive)
REMARK    1  A    between atoms: C_1  and  C_2
REMARK    2  A    between atoms: C_2  and  C_38
REMARK    3  A    between atoms: C_7  and  C_11
REMARK    4  A    between atoms: C_11  and  N_12
REMARK    5  A    between atoms: N_12  and  C_13
REMARK    6  A    between atoms: C_13  and  C_14
REMARK    7  A    between atoms: C_14  and  N_15
REMARK    8  A    between atoms: C_21  and  C_23
REMARK    9  A    between atoms: C_23  and  C_24
REMARK   10  A    between atoms: C_23  and  C_25
REMARK   11  A    between atoms: C_23  and  C_26
REMARK   12  A    between atoms: N_30  and  C_31
REMARK                            x       y       z     vdW  Elec       q    Type
REMARK                         _______ _______ _______ _____ _____    ______ ____
ROOT
ATOM      1  N   UNL     1       2.097   0.854   4.716  0.00  0.00    -0.280 N 
ATOM      2  C   UNL     1       2.863   1.963   4.718  0.00  0.00    +0.307 C 
ATOM      3  O   UNL     1       2.457   2.981   5.243  0.00  0.00    -0.252 OA
ATOM      4  N   UNL     1       4.080   1.942   4.138  0.00  0.00    -0.269 N 
ATOM      5  H   UNL     1       4.377   1.150   3.664  0.00  0.00    +0.156 HD
ENDROOT
BRANCH   4   6
ATOM      6  C   UNL     1       4.913   3.063   4.221  0.00  0.00    +0.036 A 
ATOM      7  C   UNL     1       6.287   2.900   4.345  0.00  0.00    +0.023 A 
ATOM      8  C   UNL     1       7.108   4.008   4.426  0.00  0.00    +0.003 A 
ATOM      9  C   UNL     1       6.564   5.279   4.385  0.00  0.00    +0.020 A 
ATOM     10  C   UNL     1       5.195   5.444   4.263  0.00  0.00    +0.043 A 
ATOM     11  C   UNL     1       4.369   4.339   4.175  0.00  0.00    +0.043 A 
ATOM     12 CL   UNL     1       4.516   7.041   4.213  0.00  0.00    -0.083 Cl
ENDBRANCH   4   6
BRANCH   1  13
ATOM     13  C   UNL     1       2.586  -0.374   4.084  0.00  0.00    +0.140 C 
BRANCH  13  19
ATOM     14  C   UNL     1       0.450   1.509   1.425  0.00  0.00    +0.012 C 
ATOM     15  C   UNL     1       0.164   0.029   1.166  0.00  0.00    -0.025 C 
ATOM     16  C   UNL     1       1.132  -0.628   0.161  0.00  0.00    -0.000 C 
ATOM     17  C   UNL     1       2.526   0.009   0.251  0.00  0.00    +0.031 C 
ATOM     18  C   UNL     1       2.981   0.035   1.690  0.00  0.00    -0.025 C 
ATOM     19  C   UNL     1       2.174  -0.391   2.634  0.00  0.00    -0.053 C 
ATOM     20  C   UNL     1       0.793  -0.919   2.204  0.00  0.00    +0.022 C 
ATOM     21  C   UNL     1       0.977  -1.897   1.017  0.00  0.00    +0.012 C 
ATOM     22  C   UNL     1      -1.313  -0.255   0.883  0.00  0.00    +0.012 C 
ENDBRANCH  13  19
ENDBRANCH   1  13
BRANCH   1  23
ATOM     23  C   UNL     1       0.774   0.876   5.346  0.00  0.00    +0.125 C 
BRANCH  23  24
ATOM     24  C   UNL     1       0.903   0.475   6.817  0.00  0.00    +0.103 C 
BRANCH  24  25
ATOM     25  N   UNL     1      -0.423   0.497   7.448  0.00  0.00    -0.298 NA
ATOM     26  C   UNL     1      -0.959   1.864   7.498  0.00  0.00    +0.103 C 
ATOM     27  C   UNL     1      -2.409   1.822   7.994  0.00  0.00    +0.123 C 
ATOM     28  N   UNL     1      -2.445   1.094   9.271  0.00  0.00    -0.299 N 
ATOM     29  C   UNL     1      -1.804  -0.229   9.336  0.00  0.00    +0.123 C 
ATOM     30  C   UNL     1      -0.379  -0.106   8.787  0.00  0.00    +0.103 C 
ATOM     31  C   UNL     1      -3.049   1.623  10.353  0.00  0.00    +0.222 C 
ATOM     32  O   UNL     1      -3.494   2.751  10.308  0.00  0.00    -0.275 OA
BRANCH  31  33
ATOM     33  C   UNL     1      -3.172   0.815  11.618  0.00  0.00    +0.055 C 
ATOM     34  C   UNL     1      -3.797  -0.544  11.297  0.00  0.00    +0.022 C 
ATOM     35  C   UNL     1      -1.784   0.607  12.228  0.00  0.00    +0.022 C 
BRANCH  33  36
ATOM     36  C   UNL     1      -4.060   1.561  12.616  0.00  0.00    +0.124 C 
ATOM     37 CL   UNL     1      -4.208   0.594  14.130  0.00  0.00    -0.124 Cl
ENDBRANCH  33  36
ENDBRANCH  31  33
ENDBRANCH  24  25
ENDBRANCH  23  24
ENDBRANCH   1  23
TORSDOF 8
