REMARK  Name = ZINC12570573
REMARK  7 active torsions:
REMARK  status: ('A' for Active; 'I' for Inactive)
REMARK    1  A    between atoms: C_1  and  C_2
REMARK    2  A    between atoms: C_2  and  C_24
REMARK    3  A    between atoms: N_3  and  N_4
REMARK    4  A    between atoms: C_5  and  C_7
REMARK    5  A    between atoms: C_11  and  S_13
REMARK    6  A    between atoms: S_13  and  N_16
REMARK    7  A    between atoms: N_16  and  C_17
REMARK                            x       y       z     vdW  Elec       q    Type
REMARK                         _______ _______ _______ _____ _____    ______ ____
ROOT
ATOM      1  C   UNL     1       3.664   1.310   4.560  0.00  0.00    +0.040 A 
ATOM      2  C   UNL     1       3.038   2.394   5.180  0.00  0.00    +0.013 A 
ATOM      3  C   UNL     1       2.632   3.475   4.426  0.00  0.00    +0.003 A 
ATOM      4  C   UNL     1       2.848   3.490   3.059  0.00  0.00    +0.029 A 
ATOM      5  C   UNL     1       3.463   2.417   2.438  0.00  0.00    +0.109 A 
ATOM      6  C   UNL     1       3.875   1.329   3.180  0.00  0.00    +0.042 A 
ENDROOT
BRANCH   1   8
ATOM      7  N   UNL     1       3.899   0.134   6.694  0.00  0.00    -0.203 N 
ATOM      8  C   UNL     1       4.103   0.149   5.362  0.00  0.00    +0.263 C 
ATOM      9  O   UNL     1       4.649  -0.793   4.820  0.00  0.00    -0.268 OA
ATOM     10  H   UNL     1       3.464   0.885   7.127  0.00  0.00    +0.178 HD
BRANCH   7  13
ATOM     11  C   UNL     1       3.442   0.186   9.409  0.00  0.00    +0.068 C 
ATOM     12  C   UNL     1       4.118  -0.982   8.737  0.00  0.00    +0.065 C 
ATOM     13  N   UNL     1       4.315  -0.967   7.454  0.00  0.00    -0.184 NA
BRANCH  12  14
ATOM     14  C   UNL     1       4.555  -2.140   9.537  0.00  0.00    +0.016 A 
ATOM     15  C   UNL     1       4.350  -2.157  10.919  0.00  0.00    +0.012 A 
ATOM     16  C   UNL     1       4.757  -3.246  11.660  0.00  0.00    +0.021 A 
ATOM     17  C   UNL     1       5.378  -4.318  11.040  0.00  0.00    +0.042 A 
ATOM     18  C   UNL     1       5.590  -4.306   9.672  0.00  0.00    +0.040 A 
ATOM     19  C   UNL     1       5.183  -3.225   8.917  0.00  0.00    +0.051 A 
ATOM     20 CL   UNL     1       5.450  -3.212   7.202  0.00  0.00    -0.083 Cl
ATOM     21 CL   UNL     1       5.893  -5.681  11.983  0.00  0.00    -0.083 Cl
ENDBRANCH  12  14
ENDBRANCH   7  13
ENDBRANCH   1   8
BRANCH   5  22
ATOM     22  S   UNL     1       3.728   2.443   0.696  0.00  0.00    +0.072 S 
ATOM     23  O   UNL     1       4.815   1.566   0.437  0.00  0.00    -0.150 OA
ATOM     24  O   UNL     1       3.742   3.810   0.308  0.00  0.00    -0.150 OA
BRANCH  22  25
ATOM     25  N   UNL     1       2.393   1.764  -0.012  0.00  0.00    -0.215 N 
ATOM     26  H   UNL     1       2.485   0.966  -0.555  0.00  0.00    +0.174 HD
BRANCH  25  27
ATOM     27  C   UNL     1       1.134   2.342   0.173  0.00  0.00    +0.066 A 
ATOM     28  C   UNL     1       1.007   3.723   0.257  0.00  0.00    +0.026 A 
ATOM     29  C   UNL     1      -0.238   4.291   0.439  0.00  0.00    +0.002 A 
ATOM     30  C   UNL     1      -1.359   3.487   0.538  0.00  0.00    +0.002 A 
ATOM     31  C   UNL     1      -1.238   2.112   0.450  0.00  0.00    +0.022 A 
ATOM     32  C   UNL     1       0.006   1.537   0.273  0.00  0.00    +0.063 A 
ATOM     33 CL   UNL     1       0.159  -0.190   0.170  0.00  0.00    -0.082 Cl
ENDBRANCH  25  27
ENDBRANCH  22  25
ENDBRANCH   5  22
TORSDOF 6
