REMARK  Name = ZINC14623800
REMARK  13 active torsions:
REMARK  status: ('A' for Active; 'I' for Inactive)
REMARK    1  A    between atoms: C_1  and  C_2
REMARK    2  A    between atoms: C_2  and  C_3
REMARK    3  A    between atoms: C_3  and  C_4
REMARK    4  A    between atoms: C_4  and  N_5
REMARK    5  A    between atoms: C_6  and  N_32
REMARK    6  A    between atoms: C_7  and  N_14
REMARK    7  A    between atoms: N_14  and  C_15
REMARK    8  A    between atoms: C_15  and  C_16
REMARK    9  A    between atoms: C_16  and  C_17
REMARK   10  A    between atoms: C_17  and  C_18
REMARK   11  A    between atoms: C_19  and  C_21
REMARK   12  A    between atoms: C_21  and  C_22
REMARK   13  A    between atoms: C_29  and  C_31
REMARK                            x       y       z     vdW  Elec       q    Type
REMARK                         _______ _______ _______ _____ _____    ______ ____
ROOT
ATOM      1  N   UNL     1       0.161  -2.901  -2.315  0.00  0.00    -0.264 N 
ATOM      2  C   UNL     1       0.075  -2.293  -3.517  0.00  0.00    +0.224 C 
ATOM      3  O   UNL     1      -0.183  -1.110  -3.580  0.00  0.00    -0.275 OA
ENDROOT
BRANCH   1   6
ATOM      4  N   UNL     1       0.994  -1.264   0.867  0.00  0.00    -0.280 N 
ATOM      5  C   UNL     1       1.133  -2.007  -0.282  0.00  0.00    +0.127 A 
ATOM      6  C   UNL     1       0.053  -2.142  -1.131  0.00  0.00    +0.140 A 
ATOM      7  C   UNL     1      -1.157  -1.505  -0.797  0.00  0.00    +0.277 A 
ATOM      8  O   UNL     1      -2.126  -1.605  -1.531  0.00  0.00    -0.266 OA
ATOM      9  N   UNL     1      -1.238  -0.785   0.339  0.00  0.00    -0.273 N 
ATOM     10  H   UNL     1      -2.098  -0.333   0.577  0.00  0.00    +0.173 HD
ATOM     11  C   UNL     1      -0.177  -0.668   1.156  0.00  0.00    +0.331 A 
ATOM     12  O   UNL     1      -0.277  -0.013   2.175  0.00  0.00    -0.246 OA
BRANCH   5  13
ATOM     13  N   UNL     1       2.331  -2.611  -0.580  0.00  0.00    -0.343 N 
ATOM     14  H   UNL     1       3.052  -2.602   0.068  0.00  0.00    +0.144 HD
ATOM     15  H   UNL     1       2.454  -3.046  -1.438  0.00  0.00    +0.144 HD
ENDBRANCH   5  13
BRANCH   4  16
ATOM     16  C   UNL     1       2.131  -1.116   1.779  0.00  0.00    +0.128 C 
BRANCH  16  17
ATOM     17  C   UNL     1       2.105  -2.242   2.814  0.00  0.00    +0.021 C 
BRANCH  17  19
ATOM     18  C   UNL     1       3.266  -3.214   4.802  0.00  0.00    +0.004 C 
ATOM     19  C   UNL     1       3.292  -2.087   3.767  0.00  0.00    -0.002 C 
ENDBRANCH  17  19
ENDBRANCH  16  17
ENDBRANCH   4  16
ENDBRANCH   1   6
BRANCH   1  20
ATOM     20  C   UNL     1       0.367  -4.350  -2.240  0.00  0.00    +0.114 C 
BRANCH  20  21
ATOM     21  C   UNL     1      -0.987  -5.061  -2.297  0.00  0.00    +0.019 C 
BRANCH  21  22
ATOM     22  C   UNL     1      -0.772  -6.574  -2.219  0.00  0.00    -0.002 C 
ATOM     23  C   UNL     1      -2.125  -7.285  -2.276  0.00  0.00    +0.004 C 
ENDBRANCH  21  22
ENDBRANCH  20  21
ENDBRANCH   1  20
BRANCH   2  24
ATOM     24  C   UNL     1       0.300  -3.085  -4.779  0.00  0.00    +0.135 C 
BRANCH  24  25
ATOM     25  C   UNL     1       0.148  -2.179  -5.974  0.00  0.00    +0.007 A 
ATOM     26  C   UNL     1      -0.956  -1.995  -6.710  0.00  0.00    +0.200 A 
ATOM     27  O   UNL     1      -0.716  -1.112  -7.695  0.00  0.00    -0.463 OA
ATOM     28  C   UNL     1       0.559  -0.676  -7.649  0.00  0.00    +0.135 A 
ATOM     29  C   UNL     1       1.179  -1.314  -6.561  0.00  0.00    +0.024 A 
ATOM     30  C   UNL     1       2.514  -1.049  -6.262  0.00  0.00    +0.012 A 
ATOM     31  C   UNL     1       3.221  -0.156  -7.037  0.00  0.00    +0.004 A 
ATOM     32  C   UNL     1       2.609   0.477  -8.109  0.00  0.00    -0.047 A 
ATOM     33  C   UNL     1       1.291   0.217  -8.420  0.00  0.00    +0.050 A 
ATOM     34  C   UNL     1       3.395   1.451  -8.948  0.00  0.00    +0.044 C 
ENDBRANCH  24  25
ENDBRANCH   2  24
TORSDOF 10
