REMARK  Name = ZINC25210150
REMARK  5 active torsions:
REMARK  status: ('A' for Active; 'I' for Inactive)
REMARK    1  A    between atoms: C_1  and  C_2
REMARK    2  A    between atoms: C_9  and  C_11
REMARK    3  A    between atoms: C_11  and  N_12
REMARK    4  A    between atoms: C_15  and  C_19
REMARK    5  A    between atoms: C_15  and  C_20
REMARK                            x       y       z     vdW  Elec       q    Type
REMARK                         _______ _______ _______ _____ _____    ______ ____
ROOT
ATOM      1  N   UNL     1      -2.359   0.999  -0.740  0.00  0.00    -0.215 N 
ATOM      2  C   UNL     1      -3.095   0.522   0.284  0.00  0.00    +0.251 C 
ATOM      3  O   UNL     1      -2.980   0.798   1.459  0.00  0.00    -0.272 OA
ATOM      4  C   UNL     1      -4.097  -0.429  -0.340  0.00  0.00    +0.135 C 
ATOM      5  N   UNL     1      -3.780  -0.373  -1.777  0.00  0.00    -0.281 N 
ATOM      6  C   UNL     1      -2.756   0.490  -1.912  0.00  0.00    +0.310 C 
ATOM      7  O   UNL     1      -2.247   0.773  -2.979  0.00  0.00    -0.252 OA
ATOM      8  C   UNL     1      -5.527   0.052  -0.085  0.00  0.00    +0.047 C 
ATOM      9  H   UNL     1      -4.356  -0.978  -2.492  0.00  0.00    +0.152 HD
ENDROOT
BRANCH   4  10
ATOM     10  C   UNL     1      -3.906  -1.825   0.195  0.00  0.00    -0.015 A 
ATOM     11  C   UNL     1      -3.417  -2.015   1.474  0.00  0.00    +0.006 A 
ATOM     12  C   UNL     1      -3.248  -3.296   1.963  0.00  0.00    +0.004 A 
ATOM     13  C   UNL     1      -3.555  -4.391   1.173  0.00  0.00    -0.044 A 
ATOM     14  C   UNL     1      -4.038  -4.200  -0.108  0.00  0.00    -0.044 A 
ATOM     15  C   UNL     1      -4.213  -2.915  -0.595  0.00  0.00    +0.010 A 
ATOM     16  C   UNL     1      -4.296  -5.540  -0.763  0.00  0.00    +0.036 C 
ATOM     17  C   UNL     1      -4.334  -6.556   0.399  0.00  0.00    +0.009 C 
ATOM     18  C   UNL     1      -3.455  -5.872   1.466  0.00  0.00    +0.036 C 
ENDBRANCH   4  10
BRANCH   1  19
ATOM     19  C   UNL     1      -1.264   1.960  -0.589  0.00  0.00    +0.213 C 
BRANCH  19  27
ATOM     20  C   UNL     1       2.201  -0.312   0.031  0.00  0.00    +0.028 C 
ATOM     21  C   UNL     1       2.432   1.199   0.096  0.00  0.00    +0.073 C 
ATOM     22  C   UNL     1       3.495   1.603  -0.931  0.00  0.00    +0.022 C 
ATOM     23  C   UNL     1       3.620   3.129  -0.956  0.00  0.00    +0.003 C 
ATOM     24  C   UNL     1       2.283   3.745  -1.375  0.00  0.00    +0.019 C 
ATOM     25  C   UNL     1       1.208   3.364  -0.359  0.00  0.00    +0.108 C 
ATOM     26  N   UNL     1       1.181   1.902  -0.217  0.00  0.00    -0.297 N 
ATOM     27  C   UNL     1       0.030   1.218  -0.376  0.00  0.00    +0.234 C 
ATOM     28  O   UNL     1       0.037   0.006  -0.353  0.00  0.00    -0.274 OA
ENDBRANCH  19  27
ENDBRANCH   1  19
TORSDOF 3
