REMARK  Name = ZINC40825383
REMARK  7 active torsions:
REMARK  status: ('A' for Active; 'I' for Inactive)
REMARK    1  A    between atoms: C_1  and  C_2
REMARK    2  A    between atoms: C_2  and  O_3
REMARK    3  A    between atoms: O_3  and  C_4
REMARK    4  A    between atoms: N_6  and  N_7
REMARK    5  A    between atoms: C_14  and  C_25
REMARK    6  A    between atoms: C_15  and  C_17
REMARK    7  A    between atoms: N_19  and  C_20
REMARK                            x       y       z     vdW  Elec       q    Type
REMARK                         _______ _______ _______ _____ _____    ______ ____
ROOT
ATOM      1  N   UNL     1       1.930  -1.433  -3.385  0.00  0.00    -0.182 NA
ATOM      2  C   UNL     1       2.526  -1.915  -4.431  0.00  0.00    +0.070 C 
ATOM      3  C   UNL     1       2.670  -3.410  -4.672  0.00  0.00    +0.058 C 
ATOM      4  C   UNL     1       4.088  -3.679  -5.187  0.00  0.00    +0.014 C 
ATOM      5  C   UNL     1       4.302  -3.015  -6.550  0.00  0.00    +0.075 C 
ATOM      6  C   UNL     1       3.934  -1.556  -6.460  0.00  0.00    +0.115 A 
ATOM      7  C   UNL     1       3.110  -1.050  -5.481  0.00  0.00    +0.042 A 
ATOM      8  C   UNL     1       2.985   0.327  -5.704  0.00  0.00    +0.009 A 
ATOM      9  C   UNL     1       3.733   0.603  -6.814  0.00  0.00    +0.193 A 
ATOM     10  O   UNL     1       4.300  -0.548  -7.249  0.00  0.00    -0.454 OA
ATOM     11  C   UNL     1       2.187   1.307  -4.883  0.00  0.00    +0.048 C 
ENDROOT
BRANCH   1  14
ATOM     12  C   UNL     1       0.776  -1.798  -1.335  0.00  0.00    +0.420 C 
ATOM     13  O   UNL     1       0.312  -2.549  -0.499  0.00  0.00    -0.225 OA
ATOM     14  N   UNL     1       1.395  -2.299  -2.422  0.00  0.00    -0.172 N 
ATOM     15  H   UNL     1       1.471  -3.259  -2.538  0.00  0.00    +0.181 HD
BRANCH  12  16
ATOM     16  O   UNL     1       0.671  -0.465  -1.174  0.00  0.00    -0.450 OA
BRANCH  16  18
ATOM     17  C   UNL     1      -0.019   1.526   0.010  0.00  0.00    +0.048 C 
ATOM     18  C   UNL     1       0.002  -0.004   0.002  0.00  0.00    +0.230 C 
ENDBRANCH  16  18
ENDBRANCH  12  16
ENDBRANCH   1  14
BRANCH   9  19
ATOM     19  C   UNL     1       3.902   1.926  -7.426  0.00  0.00    +0.280 C 
ATOM     20  O   UNL     1       3.349   2.896  -6.941  0.00  0.00    -0.267 OA
ATOM     21  N   UNL     1       4.669   2.068  -8.525  0.00  0.00    -0.306 N 
ATOM     22  H   UNL     1       5.109   1.295  -8.911  0.00  0.00    +0.149 HD
BRANCH  21  23
ATOM     23  C   UNL     1       4.838   3.389  -9.135  0.00  0.00    +0.073 C 
ATOM     24  C   UNL     1       3.710   3.647 -10.155  0.00  0.00    +0.022 C 
ATOM     25  C   UNL     1       4.405   4.420 -11.303  0.00  0.00    +0.002 C 
ATOM     26  C   UNL     1       5.790   3.731 -11.389  0.00  0.00    +0.002 C 
ATOM     27  C   UNL     1       6.160   3.442  -9.920  0.00  0.00    +0.022 C 
ENDBRANCH  21  23
ENDBRANCH   9  19
TORSDOF 5
