REMARK  Name = ZINC36552861
REMARK  7 active torsions:
REMARK  status: ('A' for Active; 'I' for Inactive)
REMARK    1  A    between atoms: C_3  and  N_8
REMARK    2  A    between atoms: N_8  and  C_9
REMARK    3  A    between atoms: C_9  and  C_11
REMARK    4  A    between atoms: C_9  and  C_21
REMARK    5  A    between atoms: C_14  and  C_17
REMARK    6  A    between atoms: N_23  and  C_24
REMARK    7  A    between atoms: C_30  and  C_32
REMARK                            x       y       z     vdW  Elec       q    Type
REMARK                         _______ _______ _______ _____ _____    ______ ____
ROOT
ATOM      1  C   UNL     1       4.936   1.654  -0.154  0.00  0.00    +0.197 C 
ENDROOT
BRANCH   1   2
ATOM      2  C   UNL     1       5.074   0.937   1.164  0.00  0.00    -0.018 A 
ATOM      3  C   UNL     1       3.962   0.382   1.769  0.00  0.00    +0.006 A 
ATOM      4  C   UNL     1       4.090  -0.276   2.978  0.00  0.00    +0.013 A 
ATOM      5  C   UNL     1       5.329  -0.379   3.582  0.00  0.00    +0.055 A 
ATOM      6  C   UNL     1       6.441   0.176   2.977  0.00  0.00    +0.013 A 
ATOM      7  C   UNL     1       6.314   0.830   1.766  0.00  0.00    +0.006 A 
BRANCH   5   8
ATOM      8  C   UNL     1       5.467  -1.095   4.901  0.00  0.00    +0.417 C 
ATOM      9  F   UNL     1       5.728  -2.450   4.671  0.00  0.00    -0.166 F 
ATOM     10  F   UNL     1       6.523  -0.534   5.628  0.00  0.00    -0.166 F 
ATOM     11  F   UNL     1       4.280  -0.965   5.629  0.00  0.00    -0.166 F 
ENDBRANCH   5   8
ENDBRANCH   1   2
BRANCH   1  12
ATOM     12  C   UNL     1       4.468   0.683  -1.207  0.00  0.00    +0.239 C 
ATOM     13  O   UNL     1       3.422   0.877  -1.789  0.00  0.00    -0.273 OA
ATOM     14  N   UNL     1       5.213  -0.400  -1.503  0.00  0.00    -0.311 N 
ATOM     15  H   UNL     1       6.050  -0.555  -1.038  0.00  0.00    +0.149 HD
BRANCH  14  16
ATOM     16  C   UNL     1       4.759  -1.345  -2.527  0.00  0.00    +0.073 C 
ATOM     17  C   UNL     1       3.800  -2.357  -1.898  0.00  0.00    +0.022 C 
ATOM     18  C   UNL     1       3.326  -3.343  -2.967  0.00  0.00    +0.002 C 
ATOM     19  C   UNL     1       4.532  -4.079  -3.553  0.00  0.00    +0.000 C 
ATOM     20  C   UNL     1       5.491  -3.067  -4.183  0.00  0.00    +0.002 C 
ATOM     21  C   UNL     1       5.965  -2.081  -3.113  0.00  0.00    +0.022 C 
ENDBRANCH  14  16
ENDBRANCH   1  12
BRANCH   1  22
ATOM     22  N   UNL     1       3.958   2.737  -0.020  0.00  0.00    -0.254 N 
ATOM     23  C   UNL     1       3.762   3.597  -1.039  0.00  0.00    +0.241 C 
ATOM     24  O   UNL     1       4.351   3.440  -2.088  0.00  0.00    -0.273 OA
BRANCH  22  27
ATOM     25  C   UNL     1       1.188   2.601   2.394  0.00  0.00    +0.003 A 
ATOM     26  C   UNL     1       1.906   2.460   1.222  0.00  0.00    +0.023 A 
ATOM     27  C   UNL     1       3.229   2.879   1.165  0.00  0.00    +0.039 A 
ATOM     28  C   UNL     1       3.826   3.438   2.287  0.00  0.00    +0.043 A 
ATOM     29  C   UNL     1       3.103   3.576   3.457  0.00  0.00    +0.043 A 
ATOM     30  C   UNL     1       1.785   3.158   3.510  0.00  0.00    +0.020 A 
ATOM     31 CL   UNL     1       3.849   4.274   4.861  0.00  0.00    -0.083 Cl
ENDBRANCH  22  27
BRANCH  23  32
ATOM     32  C   UNL     1       2.810   4.755  -0.876  0.00  0.00    +0.160 C 
ATOM     33  C   UNL     1       1.363   4.303  -1.173  0.00  0.00    +0.041 C 
ATOM     34  C   UNL     1       1.223   4.657  -2.671  0.00  0.00    +0.098 C 
ATOM     35  C   UNL     1       2.233   5.763  -2.887  0.00  0.00    +0.214 C 
ATOM     36  O   UNL     1       2.252   6.510  -3.842  0.00  0.00    -0.276 OA
ATOM     37  N   UNL     1       3.107   5.799  -1.863  0.00  0.00    -0.304 N 
ATOM     38  H   UNL     1       3.837   6.433  -1.787  0.00  0.00    +0.149 HD
ENDBRANCH  23  32
ENDBRANCH   1  22
TORSDOF 7
