REMARK  Name = ZINC39750116
REMARK  9 active torsions:
REMARK  status: ('A' for Active; 'I' for Inactive)
REMARK    1  A    between atoms: C_1  and  C_2
REMARK    2  A    between atoms: C_2  and  C_3
REMARK    3  A    between atoms: C_9  and  C_11
REMARK    4  A    between atoms: C_11  and  C_13
REMARK    5  A    between atoms: C_11  and  S_14
REMARK    6  A    between atoms: S_14  and  C_15
REMARK    7  A    between atoms: C_18  and  C_21
REMARK    8  A    between atoms: N_19  and  C_20
REMARK    9  A    between atoms: C_24  and  O_27
REMARK                            x       y       z     vdW  Elec       q    Type
REMARK                         _______ _______ _______ _____ _____    ______ ____
ROOT
ATOM      1  S   UNL     1      -8.626  -2.296  -0.794  0.00  0.00    -0.074 S 
ENDROOT
BRANCH   1   2
ATOM      2  C   UNL     1     -10.104  -2.920  -0.067  0.00  0.00    +0.192 A 
ATOM      3  N   UNL     1     -10.217  -3.471   1.121  0.00  0.00    -0.122 NA
ATOM      4  N   UNL     1     -11.437  -3.813   1.335  0.00  0.00    -0.128 NA
ATOM      5  C   UNL     1     -12.179  -3.501   0.298  0.00  0.00    +0.165 A 
ATOM      6  N   UNL     1     -11.349  -2.914  -0.630  0.00  0.00    -0.305 N 
ATOM      7  C   UNL     1     -11.722  -2.394  -1.948  0.00  0.00    +0.153 C 
BRANCH   5   8
ATOM      8  C   UNL     1     -13.632  -3.732   0.155  0.00  0.00    +0.019 A 
ATOM      9  C   UNL     1     -14.223  -3.709  -1.109  0.00  0.00    +0.015 A 
ATOM     10  C   UNL     1     -15.579  -3.925  -1.237  0.00  0.00    +0.046 A 
ATOM     11  C   UNL     1     -16.355  -4.166  -0.111  0.00  0.00    +0.117 A 
ATOM     12  C   UNL     1     -15.770  -4.190   1.148  0.00  0.00    +0.046 A 
ATOM     13  C   UNL     1     -14.415  -3.980   1.284  0.00  0.00    +0.015 A 
BRANCH  11  14
ATOM     14  O   UNL     1     -17.691  -4.378  -0.242  0.00  0.00    -0.507 OA
ATOM     15  H   UNL     1     -17.932  -5.307  -0.365  0.00  0.00    +0.292 HD
ENDBRANCH  11  14
ENDBRANCH   5   8
ENDBRANCH   1   2
BRANCH   1  16
ATOM     16  C   UNL     1      -7.354  -2.608   0.462  0.00  0.00    +0.137 C 
ATOM     17  C   UNL     1      -7.183  -4.117   0.650  0.00  0.00    +0.029 C 
BRANCH  16  24
ATOM     18  C   UNL     1      -1.520  -0.171   0.072  0.00  0.00    +0.103 A 
ATOM     19  N   UNL     1      -2.349  -0.353  -0.936  0.00  0.00    -0.145 NA
ATOM     20  N   UNL     1      -3.488  -0.852  -0.713  0.00  0.00    -0.126 NA
ATOM     21  C   UNL     1      -3.872  -1.195   0.501  0.00  0.00    +0.188 A 
ATOM     22  S   UNL     1      -2.517  -0.792   1.419  0.00  0.00    -0.035 S 
ATOM     23  N   UNL     1      -5.078  -1.750   0.915  0.00  0.00    -0.262 N 
ATOM     24  C   UNL     1      -6.047  -2.007   0.013  0.00  0.00    +0.232 C 
ATOM     25  O   UNL     1      -5.867  -1.753  -1.159  0.00  0.00    -0.274 OA
ATOM     26  H   UNL     1      -5.223  -1.953   1.852  0.00  0.00    +0.157 HD
BRANCH  18  28
ATOM     27  C   UNL     1      -0.188   1.909   0.300  0.00  0.00    +0.011 C 
ATOM     28  C   UNL     1      -0.123   0.396   0.085  0.00  0.00    +0.061 C 
ENDBRANCH  18  28
ENDBRANCH  16  24
ENDBRANCH   1  16
TORSDOF 6
