REMARK  Name = ZINC36926846
REMARK  6 active torsions:
REMARK  status: ('A' for Active; 'I' for Inactive)
REMARK    1  A    between atoms: C_1  and  N_2
REMARK    2  A    between atoms: C_6  and  S_7
REMARK    3  A    between atoms: S_7  and  C_8
REMARK    4  A    between atoms: C_11  and  S_15
REMARK    5  A    between atoms: C_13  and  N_14
REMARK    6  A    between atoms: S_15  and  N_18
REMARK                            x       y       z     vdW  Elec       q    Type
REMARK                         _______ _______ _______ _____ _____    ______ ____
ROOT
ATOM      1  C   UNL     1       0.101  -1.716   3.810  0.00  0.00    +0.036 A 
ATOM      2  C   UNL     1       0.214  -2.981   3.249  0.00  0.00    +0.019 A 
ATOM      3  C   UNL     1       0.269  -4.096   4.064  0.00  0.00    +0.030 A 
ATOM      4  C   UNL     1       0.209  -3.956   5.439  0.00  0.00    +0.107 A 
ATOM      5  C   UNL     1       0.096  -2.700   6.006  0.00  0.00    +0.052 A 
ATOM      6  C   UNL     1       0.047  -1.575   5.197  0.00  0.00    +0.040 A 
ENDROOT
BRANCH   6   7
ATOM      7  N   UNL     1      -0.062  -0.303   5.769  0.00  0.00    -0.357 N 
ATOM      8  H   UNL     1      -0.101   0.483   5.201  0.00  0.00    +0.142 HD
ATOM      9  H   UNL     1      -0.100  -0.206   6.733  0.00  0.00    +0.142 HD
ENDBRANCH   6   7
BRANCH   4  10
ATOM     10  S   UNL     1       0.278  -5.383   6.470  0.00  0.00    +0.056 S 
ATOM     11  O   UNL     1      -0.344  -5.027   7.697  0.00  0.00    -0.153 OA
ATOM     12  O   UNL     1      -0.165  -6.477   5.680  0.00  0.00    -0.153 OA
BRANCH  10  13
ATOM     13  N   UNL     1       1.874  -5.662   6.813  0.00  0.00    -0.204 NA
ATOM     14  H   UNL     1       2.558  -5.076   6.453  0.00  0.00    +0.144 HD
ATOM     15  H   UNL     1       2.126  -6.412   7.375  0.00  0.00    +0.144 HD
ENDBRANCH  10  13
ENDBRANCH   4  10
BRANCH   1  16
ATOM     16  S   UNL     1       0.032  -0.293   2.773  0.00  0.00    -0.050 S 
BRANCH  16  22
ATOM     17  C   UNL     1      -1.468   2.305   1.464  0.00  0.00    +0.151 C 
ATOM     18  N   UNL     1      -2.197   1.285   2.222  0.00  0.00    -0.328 N 
ATOM     19  C   UNL     1      -3.549   1.265   2.477  0.00  0.00    +0.107 A 
ATOM     20  C   UNL     1      -3.796   0.159   3.200  0.00  0.00    +0.131 A 
ATOM     21  N   UNL     1      -2.635  -0.489   3.389  0.00  0.00    -0.230 NA
ATOM     22  C   UNL     1      -1.667   0.174   2.802  0.00  0.00    +0.173 A 
ENDBRANCH  16  22
ENDBRANCH   1  16
TORSDOF 5
