REMARK  Name = ZINC12201851
REMARK  8 active torsions:
REMARK  status: ('A' for Active; 'I' for Inactive)
REMARK    1  A    between atoms: C_1  and  C_2
REMARK    2  A    between atoms: C_10  and  C_13
REMARK    3  A    between atoms: C_18  and  C_19
REMARK    4  A    between atoms: C_18  and  N_70
REMARK    5  A    between atoms: N_21  and  C_22
REMARK    6  A    between atoms: C_22  and  C_24
REMARK    7  A    between atoms: C_22  and  C_25
REMARK    8  A    between atoms: C_34  and  O_37
REMARK                            x       y       z     vdW  Elec       q    Type
REMARK                         _______ _______ _______ _____ _____    ______ ____
ROOT
ATOM      1  C   UNL     1       0.444  -0.634   4.162  0.00  0.00    +0.019 C 
ENDROOT
BRANCH   1  13
ATOM      2  C   UNL     1       3.329  -6.754   4.782  0.00  0.00    +0.044 C 
ATOM      3  C   UNL     1       1.959  -6.131   4.700  0.00  0.00    -0.050 A 
ATOM      4  C   UNL     1       0.859  -6.816   5.183  0.00  0.00    +0.007 A 
ATOM      5  C   UNL     1      -0.398  -6.247   5.117  0.00  0.00    +0.046 A 
ATOM      6  C   UNL     1      -0.553  -4.983   4.566  0.00  0.00    +0.123 A 
ATOM      7  C   UNL     1       0.547  -4.310   4.070  0.00  0.00    -0.022 A 
ATOM      8  C   UNL     1       1.804  -4.875   4.140  0.00  0.00    +0.008 A 
ATOM      9  C   UNL     1       0.361  -2.942   3.441  0.00  0.00    -0.038 C 
ATOM     10  C   UNL     1      -1.454  -1.999   4.762  0.00  0.00    -0.028 C 
ATOM     11  C   UNL     1      -1.937  -3.273   5.422  0.00  0.00    +0.188 C 
ATOM     12  O   UNL     1      -1.778  -4.392   4.542  0.00  0.00    -0.486 OA
ATOM     13  N   UNL     1       0.004  -1.991   4.522  0.00  0.00    +0.391 N 
ATOM     14  H   UNL     1       0.482  -2.278   5.384  0.00  0.00    -0.080 HD
BRANCH  11  15
ATOM     15  C   UNL     1      -3.393  -3.124   5.779  0.00  0.00    -0.002 A 
ATOM     16  C   UNL     1      -3.766  -2.692   7.038  0.00  0.00    +0.015 A 
ATOM     17  C   UNL     1      -5.085  -2.570   7.327  0.00  0.00    +0.045 A 
ATOM     18  S   UNL     1      -5.847  -3.073   5.793  0.00  0.00    -0.105 S 
ATOM     19  C   UNL     1      -4.357  -3.407   4.869  0.00  0.00    +0.052 A 
ENDBRANCH  11  15
ENDBRANCH   1  13
BRANCH   1  20
ATOM     20  C   UNL     1      -0.285  -0.134   2.941  0.00  0.00    +0.197 C 
ATOM     21  O   UNL     1      -1.109  -0.838   2.397  0.00  0.00    -0.278 OA
ATOM     22  N   UNL     1      -0.020   1.094   2.454  0.00  0.00    -0.314 N 
ATOM     23  H   UNL     1       0.639   1.657   2.889  0.00  0.00    +0.149 HD
BRANCH  22  24
ATOM     24  C   UNL     1      -0.729   1.579   1.267  0.00  0.00    +0.076 C 
ATOM     25  C   UNL     1      -0.013   1.086   0.008  0.00  0.00    +0.028 C 
BRANCH  24  26
ATOM     26  C   UNL     1      -0.750   3.109   1.275  0.00  0.00    -0.008 C 
ATOM     27  C   UNL     1       0.686   3.639   1.264  0.00  0.00    +0.012 C 
ATOM     28  C   UNL     1       0.665   5.168   1.273  0.00  0.00    -0.007 C 
ATOM     29  C   UNL     1      -0.051   5.662   2.532  0.00  0.00    +0.007 C 
ATOM     30  C   UNL     1      -1.486   5.132   2.542  0.00  0.00    -0.007 C 
ATOM     31  C   UNL     1      -1.466   3.603   2.534  0.00  0.00    +0.012 C 
ATOM     32  C   UNL     1      -2.227   5.639   1.303  0.00  0.00    +0.038 C 
ATOM     33  C   UNL     1      -1.510   5.146   0.044  0.00  0.00    +0.067 C 
ATOM     34  C   UNL     1      -0.075   5.675   0.033  0.00  0.00    +0.038 C 
ATOM     35  C   UNL     1      -1.490   3.616   0.036  0.00  0.00    +0.043 C 
BRANCH  33  36
ATOM     36  O   UNL     1      -2.201   5.619  -1.114  0.00  0.00    -0.389 OA
ATOM     37  H   UNL     1      -2.253   6.583  -1.174  0.00  0.00    +0.210 HD
ENDBRANCH  33  36
ENDBRANCH  24  26
ENDBRANCH  22  24
ENDBRANCH   1  20
TORSDOF 6
