REMARK  Name = ZINC02260060
REMARK  8 active torsions:
REMARK  status: ('A' for Active; 'I' for Inactive)
REMARK    1  A    between atoms: C_4  and  C_7
REMARK    2  A    between atoms: C_7  and  N_8
REMARK    3  A    between atoms: C_9  and  C_27
REMARK    4  A    between atoms: C_10  and  C_21
REMARK    5  A    between atoms: C_16  and  N_17
REMARK    6  A    between atoms: N_17  and  C_18
REMARK    7  A    between atoms: C_18  and  C_19
REMARK    8  A    between atoms: C_19  and  O_20
REMARK                            x       y       z     vdW  Elec       q    Type
REMARK                         _______ _______ _______ _____ _____    ______ ____
ROOT
ATOM      1  N   UNL     1       1.479  -4.297  -0.680  0.00  0.00    -0.320 N 
ATOM      2  C   UNL     1       1.907  -3.019  -0.959  0.00  0.00    +0.059 A 
ATOM      3  C   UNL     1       1.454  -2.167   0.026  0.00  0.00    +0.020 A 
ATOM      4  C   UNL     1       0.702  -2.995   0.974  0.00  0.00    +0.067 A 
ATOM      5  C   UNL     1       0.748  -4.311   0.477  0.00  0.00    +0.147 A 
ATOM      6  N   UNL     1       0.126  -5.270   1.163  0.00  0.00    -0.218 NA
ATOM      7  C   UNL     1      -0.519  -4.992   2.275  0.00  0.00    +0.225 A 
ATOM      8  N   UNL     1      -0.592  -3.771   2.772  0.00  0.00    -0.220 NA
ATOM      9  C   UNL     1      -0.004  -2.747   2.160  0.00  0.00    +0.132 A 
ENDROOT
BRANCH   3  10
ATOM     10  C   UNL     1       1.687  -0.708   0.114  0.00  0.00    -0.015 A 
ATOM     11  C   UNL     1       0.615   0.180   0.013  0.00  0.00    +0.008 A 
ATOM     12  C   UNL     1       0.839   1.539   0.096  0.00  0.00    +0.001 A 
ATOM     13  C   UNL     1       2.123   2.022   0.278  0.00  0.00    +0.000 A 
ATOM     14  C   UNL     1       3.190   1.147   0.379  0.00  0.00    +0.001 A 
ATOM     15  C   UNL     1       2.979  -0.214   0.297  0.00  0.00    +0.008 A 
ENDBRANCH   3  10
BRANCH   2  16
ATOM     16  C   UNL     1       2.721  -2.624  -2.126  0.00  0.00    -0.001 A 
ATOM     17  C   UNL     1       3.938  -3.261  -2.381  0.00  0.00    +0.010 A 
ATOM     18  C   UNL     1       4.690  -2.891  -3.476  0.00  0.00    +0.001 A 
ATOM     19  C   UNL     1       4.247  -1.883  -4.315  0.00  0.00    +0.000 A 
ATOM     20  C   UNL     1       3.045  -1.245  -4.066  0.00  0.00    +0.001 A 
ATOM     21  C   UNL     1       2.280  -1.609  -2.977  0.00  0.00    +0.010 A 
ENDBRANCH   2  16
BRANCH   9  22
ATOM     22  N   UNL     1      -0.083  -1.469   2.683  0.00  0.00    -0.326 N 
ATOM     23  H   UNL     1       0.350  -0.730   2.227  0.00  0.00    +0.148 HD
BRANCH  22  24
ATOM     24  C   UNL     1      -0.820  -1.230   3.926  0.00  0.00    +0.130 C 
BRANCH  24  25
ATOM     25  C   UNL     1      -0.752   0.256   4.283  0.00  0.00    +0.174 C 
BRANCH  25  26
ATOM     26  O   UNL     1      -1.437   1.017   3.285  0.00  0.00    -0.393 OA
ATOM     27  H   UNL     1      -1.434   1.970   3.447  0.00  0.00    +0.209 HD
ENDBRANCH  25  26
ENDBRANCH  24  25
ENDBRANCH  22  24
ENDBRANCH   9  22
BRANCH   1  28
ATOM     28  C   UNL     1       1.765  -5.475  -1.504  0.00  0.00    +0.159 C 
BRANCH  28  32
ATOM     29  C   UNL     1      -1.472  -6.139  -4.211  0.00  0.00    +0.000 A 
ATOM     30  C   UNL     1      -0.369  -5.412  -4.618  0.00  0.00    +0.000 A 
ATOM     31  C   UNL     1       0.679  -5.197  -3.741  0.00  0.00    +0.005 A 
ATOM     32  C   UNL     1       0.623  -5.709  -2.459  0.00  0.00    -0.028 A 
ATOM     33  C   UNL     1      -0.478  -6.441  -2.054  0.00  0.00    +0.005 A 
ATOM     34  C   UNL     1      -1.527  -6.651  -2.928  0.00  0.00    +0.000 A 
ENDBRANCH  28  32
ENDBRANCH   1  28
TORSDOF 8
