REMARK  Name = ZINC39195856
REMARK  15 active torsions:
REMARK  status: ('A' for Active; 'I' for Inactive)
REMARK    1  A    between atoms: C_1  and  C_2
REMARK    2  A    between atoms: C_5  and  C_39
REMARK    3  A    between atoms: C_6  and  O_8
REMARK    4  A    between atoms: O_8  and  C_9
REMARK    5  A    between atoms: C_9  and  C_10
REMARK    6  A    between atoms: C_10  and  C_11
REMARK    7  A    between atoms: C_11  and  C_12
REMARK    8  A    between atoms: C_12  and  C_13
REMARK    9  A    between atoms: C_12  and  C_14
REMARK   10  A    between atoms: C_12  and  C_15
REMARK   11  A    between atoms: N_17  and  C_18
REMARK   12  A    between atoms: C_18  and  C_20
REMARK   13  A    between atoms: C_18  and  C_30
REMARK   14  A    between atoms: C_23  and  S_26
REMARK   15  A    between atoms: S_26  and  C_29
REMARK                            x       y       z     vdW  Elec       q    Type
REMARK                         _______ _______ _______ _____ _____    ______ ____
ROOT
ATOM      1  C   UNL     1       0.080  -2.081  10.965  0.00  0.00    +0.134 C 
ENDROOT
BRANCH   1   2
ATOM      2  C   UNL     1       1.492  -1.687  11.315  0.00  0.00    -0.022 A 
ATOM      3  C   UNL     1       2.527  -2.587  11.140  0.00  0.00    +0.009 A 
ATOM      4  C   UNL     1       3.821  -2.230  11.455  0.00  0.00    +0.046 A 
ATOM      5  C   UNL     1       4.098  -0.959  11.953  0.00  0.00    +0.124 A 
ATOM      6  C   UNL     1       3.049  -0.066  12.131  0.00  0.00    -0.002 A 
ATOM      7  C   UNL     1       1.758  -0.422  11.808  0.00  0.00    +0.013 A 
ATOM      8  C   UNL     1       3.642   1.208  12.701  0.00  0.00    +0.080 C 
ATOM      9  C   UNL     1       5.040   0.732  13.162  0.00  0.00    +0.234 C 
ATOM     10  O   UNL     1       5.286  -0.401  12.312  0.00  0.00    -0.491 OA
ENDBRANCH   1   2
BRANCH   1  11
ATOM     11  C   UNL     1      -0.505  -2.903  12.085  0.00  0.00    -0.023 A 
ATOM     12  C   UNL     1      -0.189  -4.244  12.195  0.00  0.00    +0.007 A 
ATOM     13  C   UNL     1      -0.725  -4.998  13.222  0.00  0.00    +0.027 A 
ATOM     14  C   UNL     1      -1.577  -4.410  14.139  0.00  0.00    +0.088 A 
ATOM     15  C   UNL     1      -1.892  -3.069  14.030  0.00  0.00    +0.027 A 
ATOM     16  C   UNL     1      -1.352  -2.314  13.005  0.00  0.00    +0.007 A 
BRANCH  14  17
ATOM     17  S   UNL     1      -2.261  -5.372  15.448  0.00  0.00    -0.006 S 
ATOM     18  O   UNL     1      -3.475  -4.714  15.785  0.00  0.00    -0.170 OA
ATOM     19  O   UNL     1      -2.272  -6.704  14.952  0.00  0.00    -0.170 OA
ATOM     20  C   UNL     1      -1.071  -5.222  16.808  0.00  0.00    +0.200 C 
ENDBRANCH  14  17
ENDBRANCH   1  11
BRANCH   1  23
ATOM     21  C   UNL     1       0.071  -2.250   8.534  0.00  0.00    +0.219 C 
ATOM     22  O   UNL     1       0.055  -1.038   8.479  0.00  0.00    -0.275 OA
ATOM     23  N   UNL     1       0.085  -2.870   9.731  0.00  0.00    -0.304 N 
ATOM     24  H   UNL     1       0.098  -3.839   9.775  0.00  0.00    +0.150 HD
BRANCH  21  25
ATOM     25  C   UNL     1       0.076  -3.062   7.265  0.00  0.00    +0.041 C 
ATOM     26  C   UNL     1      -1.161  -3.961   7.230  0.00  0.00    +0.020 C 
ATOM     27  C   UNL     1       1.337  -3.928   7.218  0.00  0.00    +0.020 C 
BRANCH  25  28
ATOM     28  C   UNL     1       0.058  -2.122   6.058  0.00  0.00    +0.019 C 
BRANCH  28  29
ATOM     29  C   UNL     1       0.063  -2.946   4.769  0.00  0.00    +0.042 C 
BRANCH  29  30
ATOM     30  C   UNL     1       0.045  -2.006   3.562  0.00  0.00    +0.229 C 
BRANCH  30  31
ATOM     31  O   UNL     1       0.050  -2.776   2.358  0.00  0.00    -0.492 OA
BRANCH  31  37
ATOM     32  C   UNL     1      -0.018   1.503   0.010  0.00  0.00    +0.044 C 
ATOM     33  C   UNL     1       0.002  -0.004   0.002  0.00  0.00    -0.047 A 
ATOM     34  C   UNL     1       0.006  -0.688  -1.200  0.00  0.00    +0.004 A 
ATOM     35  C   UNL     1       0.024  -2.071  -1.211  0.00  0.00    +0.007 A 
ATOM     36  C   UNL     1       0.039  -2.772  -0.020  0.00  0.00    -0.009 A 
ATOM     37  C   UNL     1       0.035  -2.088   1.186  0.00  0.00    +0.124 A 
ATOM     38  C   UNL     1       0.023  -0.700   1.195  0.00  0.00    +0.049 A 
ATOM     39  C   UNL     1       0.059  -4.279  -0.033  0.00  0.00    +0.047 C 
ENDBRANCH  31  37
ENDBRANCH  30  31
ENDBRANCH  29  30
ENDBRANCH  28  29
ENDBRANCH  25  28
ENDBRANCH  21  25
ENDBRANCH   1  23
TORSDOF 10
