REMARK  Name = ZINC32666494
REMARK  13 active torsions:
REMARK  status: ('A' for Active; 'I' for Inactive)
REMARK    1  A    between atoms: C_1  and  C_2
REMARK    2  A    between atoms: C_2  and  C_3
REMARK    3  A    between atoms: C_4  and  C_39
REMARK    4  A    between atoms: C_5  and  C_13
REMARK    5  A    between atoms: C_13  and  O_15
REMARK    6  A    between atoms: O_15  and  C_16
REMARK    7  A    between atoms: C_16  and  C_17
REMARK    8  A    between atoms: N_19  and  C_20
REMARK    9  A    between atoms: N_19  and  C_22
REMARK   10  A    between atoms: C_20  and  C_21
REMARK   11  A    between atoms: C_23  and  N_38
REMARK   12  A    between atoms: N_24  and  C_31
REMARK   13  A    between atoms: C_31  and  C_32
REMARK                            x       y       z     vdW  Elec       q    Type
REMARK                         _______ _______ _______ _____ _____    ______ ____
ROOT
ATOM      1  C   UNL     1      -0.010  -0.061  -0.283  0.00  0.00    +0.258 C 
ATOM      2  O   UNL     1       1.008  -0.636  -0.608  0.00  0.00    -0.272 OA
ATOM      3  N   UNL     1       0.008   1.270  -0.060  0.00  0.00    -0.262 N 
ENDROOT
BRANCH   3   4
ATOM      4  C   UNL     1       1.229   1.976  -0.110  0.00  0.00    +0.140 A 
ATOM      5  C   UNL     1       2.237   1.700   0.791  0.00  0.00    +0.128 A 
ATOM      6  N   UNL     1       3.417   2.401   0.715  0.00  0.00    -0.276 N 
ATOM      7  C   UNL     1       3.583   3.355  -0.220  0.00  0.00    +0.331 A 
ATOM      8  O   UNL     1       4.632   3.968  -0.268  0.00  0.00    -0.246 OA
ATOM      9  N   UNL     1       2.610   3.642  -1.103  0.00  0.00    -0.273 N 
ATOM     10  H   UNL     1       2.767   4.425  -1.859  0.00  0.00    +0.173 HD
ATOM     11  C   UNL     1       1.436   2.980  -1.074  0.00  0.00    +0.277 A 
ATOM     12  O   UNL     1       0.561   3.248  -1.879  0.00  0.00    -0.266 OA
BRANCH   5  13
ATOM     13  N   UNL     1       2.065   0.730   1.750  0.00  0.00    -0.343 N 
ATOM     14  H   UNL     1       2.873   0.515   2.465  0.00  0.00    +0.144 HD
ATOM     15  H   UNL     1       1.120   0.170   1.803  0.00  0.00    +0.144 HD
ENDBRANCH   5  13
BRANCH   6  16
ATOM     16  C   UNL     1       4.498   2.114   1.661  0.00  0.00    +0.163 C 
BRANCH  16  17
ATOM     17  C   UNL     1       4.342   2.985   2.881  0.00  0.00    -0.028 A 
ATOM     18  C   UNL     1       4.951   4.225   2.927  0.00  0.00    +0.005 A 
ATOM     19  C   UNL     1       4.804   5.026   4.045  0.00  0.00    +0.000 A 
ATOM     20  C   UNL     1       4.057   4.582   5.120  0.00  0.00    +0.000 A 
ATOM     21  C   UNL     1       3.452   3.340   5.075  0.00  0.00    +0.000 A 
ATOM     22  C   UNL     1       3.595   2.541   3.956  0.00  0.00    +0.005 A 
ENDBRANCH  16  17
ENDBRANCH   6  16
ENDBRANCH   3   4
BRANCH   3  23
ATOM     23  C   UNL     1      -1.239   1.982   0.227  0.00  0.00    +0.110 C 
ATOM     24  C   UNL     1      -1.461   2.032   1.740  0.00  0.00    +0.025 C 
ENDBRANCH   3  23
BRANCH   1  25
ATOM     25  C   UNL     1      -1.295  -0.833  -0.129  0.00  0.00    +0.328 C 
BRANCH  25  26
ATOM     26  O   UNL     1      -1.055  -2.235  -0.422  0.00  0.00    -0.452 OA
BRANCH  26  27
ATOM     27  C   UNL     1      -2.110  -3.068  -0.329  0.00  0.00    +0.341 C 
ATOM     28  O   UNL     1      -3.200  -2.635  -0.013  0.00  0.00    -0.245 OA
BRANCH  27  31
ATOM     29  C   UNL     1      -1.452  -6.755   0.092  0.00  0.00    +0.045 A 
ATOM     30  C   UNL     1      -1.599  -5.403   0.394  0.00  0.00    -0.015 A 
ATOM     31  C   UNL     1      -1.941  -4.509  -0.613  0.00  0.00    +0.073 A 
ATOM     32  C   UNL     1      -2.117  -5.024  -1.922  0.00  0.00    +0.015 A 
ATOM     33  C   UNL     1      -2.457  -4.189  -2.995  0.00  0.00    +0.011 A 
ATOM     34  C   UNL     1      -2.618  -4.721  -4.239  0.00  0.00    +0.001 A 
ATOM     35  C   UNL     1      -2.448  -6.087  -4.459  0.00  0.00    +0.002 A 
ATOM     36  C   UNL     1      -2.118  -6.926  -3.440  0.00  0.00    +0.028 A 
ATOM     37  C   UNL     1      -1.944  -6.413  -2.141  0.00  0.00    +0.072 A 
ATOM     38  N   UNL     1      -1.619  -7.214  -1.123  0.00  0.00    -0.251 NA
ATOM     39  C   UNL     1      -1.391  -4.914   1.804  0.00  0.00    +0.046 C 
BRANCH  29  41
ATOM     40  C   UNL     1       0.438  -7.822   1.292  0.00  0.00    +0.010 C 
ATOM     41  C   UNL     1      -1.086  -7.716   1.193  0.00  0.00    +0.052 C 
ENDBRANCH  29  41
ENDBRANCH  27  31
ENDBRANCH  26  27
ENDBRANCH  25  26
ENDBRANCH   1  25
TORSDOF 10
