REMARK  Name = ZINC38488923
REMARK  6 active torsions:
REMARK  status: ('A' for Active; 'I' for Inactive)
REMARK    1  A    between atoms: C_3  and  C_6
REMARK    2  A    between atoms: N_11  and  C_13
REMARK    3  A    between atoms: C_13  and  C_14
REMARK    4  A    between atoms: C_14  and  N_15
REMARK    5  A    between atoms: C_16  and  C_18
REMARK    6  A    between atoms: C_20  and  C_24
REMARK                            x       y       z     vdW  Elec       q    Type
REMARK                         _______ _______ _______ _____ _____    ______ ____
ROOT
ATOM      1  N   UNL     1       7.146   4.812  -1.468  0.00  0.00    -0.308 N 
ATOM      2  C   UNL     1       7.451   5.418  -2.633  0.00  0.00    +0.264 C 
ATOM      3  O   UNL     1       7.154   4.892  -3.688  0.00  0.00    -0.268 OA
ATOM      4  H   UNL     1       7.383   5.232  -0.627  0.00  0.00    +0.149 HD
ENDROOT
BRANCH   2   5
ATOM      5  C   UNL     1       8.148   6.721  -2.628  0.00  0.00    +0.147 A 
ATOM      6  C   UNL     1       8.525   7.472  -3.762  0.00  0.00    +0.062 A 
ATOM      7  C   UNL     1       9.134   8.593  -3.270  0.00  0.00    +0.066 A 
ATOM      8  N   UNL     1       9.108   8.491  -1.910  0.00  0.00    -0.276 N 
ATOM      9  H   UNL     1       9.472   9.147  -1.296  0.00  0.00    +0.189 HD
ATOM     10  N   UNL     1       8.526   7.400  -1.563  0.00  0.00    -0.169 NA
BRANCH   7  11
ATOM     11  C   UNL     1       9.711   9.703  -4.061  0.00  0.00    -0.000 A 
ATOM     12  C   UNL     1       9.658   9.671  -5.454  0.00  0.00    +0.013 A 
ATOM     13  C   UNL     1      10.196  10.708  -6.187  0.00  0.00    +0.039 A 
ATOM     14  C   UNL     1      10.789  11.781  -5.540  0.00  0.00    +0.123 A 
ATOM     15  C   UNL     1      10.845  11.817  -4.156  0.00  0.00    +0.039 A 
ATOM     16  C   UNL     1      10.304  10.788  -3.415  0.00  0.00    +0.013 A 
ATOM     17  F   UNL     1      11.316  12.794  -6.262  0.00  0.00    -0.205 F 
ENDBRANCH   7  11
ENDBRANCH   2   5
BRANCH   1  18
ATOM     18  C   UNL     1       6.455   3.520  -1.474  0.00  0.00    +0.128 C 
BRANCH  18  19
ATOM     19  C   UNL     1       6.230   3.056  -0.033  0.00  0.00    +0.166 C 
BRANCH  19  25
ATOM     20  C   UNL     1       3.573   0.619  -0.029  0.00  0.00    +0.126 A 
ATOM     21  C   UNL     1       4.249  -0.626  -0.048  0.00  0.00    +0.038 A 
ATOM     22  C   UNL     1       5.612  -0.619  -0.062  0.00  0.00    +0.074 A 
ATOM     23  C   UNL     1       6.268   0.633  -0.057  0.00  0.00    +0.267 A 
ATOM     24  O   UNL     1       7.487   0.687  -0.070  0.00  0.00    -0.266 OA
ATOM     25  N   UNL     1       5.539   1.764  -0.039  0.00  0.00    -0.227 N 
ATOM     26  N   UNL     1       4.255   1.742  -0.031  0.00  0.00    -0.165 NA
BRANCH  20  29
ATOM     27  C   UNL     1      -0.016   1.343   0.009  0.00  0.00    +0.042 A 
ATOM     28  C   UNL     1       1.325   1.774  -0.001  0.00  0.00    +0.051 A 
ATOM     29  C   UNL     1       2.096   0.655  -0.014  0.00  0.00    +0.155 A 
ATOM     30  O   UNL     1       1.280  -0.417  -0.012  0.00  0.00    -0.461 OA
ATOM     31  C   UNL     1       0.002  -0.004   0.002  0.00  0.00    +0.196 A 
ENDBRANCH  20  29
ENDBRANCH  19  25
ENDBRANCH  18  19
ENDBRANCH   1  18
TORSDOF 6
