REMARK  Name = ZINC39710242
REMARK  9 active torsions:
REMARK  status: ('A' for Active; 'I' for Inactive)
REMARK    1  A    between atoms: C_1  and  C_2
REMARK    2  A    between atoms: C_9  and  C_14
REMARK    3  A    between atoms: C_14  and  C_16
REMARK    4  A    between atoms: C_14  and  N_28
REMARK    5  A    between atoms: N_21  and  C_22
REMARK    6  A    between atoms: N_28  and  C_29
REMARK    7  A    between atoms: N_28  and  C_36
REMARK    8  A    between atoms: C_29  and  C_30
REMARK    9  A    between atoms: C_36  and  C_37
REMARK                            x       y       z     vdW  Elec       q    Type
REMARK                         _______ _______ _______ _____ _____    ______ ____
ROOT
ATOM      1  C   UNL     1      -0.690  -5.183   3.174  0.00  0.00    -0.008 C 
ENDROOT
BRANCH   1  10
ATOM      2  C   UNL     1       2.929   0.609   1.085  0.00  0.00    +0.044 C 
ATOM      3  C   UNL     1       2.437  -0.805   0.914  0.00  0.00    -0.050 A 
ATOM      4  C   UNL     1       2.369  -1.354  -0.367  0.00  0.00    +0.005 A 
ATOM      5  C   UNL     1       1.936  -2.621  -0.600  0.00  0.00    +0.024 A 
ATOM      6  C   UNL     1       1.531  -3.444   0.467  0.00  0.00    +0.040 A 
ATOM      7  N   UNL     1       1.109  -4.685   0.227  0.00  0.00    -0.285 N 
ATOM      8  C   UNL     1       0.714  -5.511   1.182  0.00  0.00    +0.223 C 
ATOM      9  O   UNL     1       0.339  -6.634   0.901  0.00  0.00    -0.275 OA
ATOM     10  C   UNL     1       0.732  -5.054   2.623  0.00  0.00    +0.088 C 
ATOM     11  C   UNL     1       1.212  -3.643   2.901  0.00  0.00    -0.006 C 
ATOM     12  C   UNL     1       1.592  -2.890   1.831  0.00  0.00    -0.007 A 
ATOM     13  C   UNL     1       2.074  -1.520   2.010  0.00  0.00    +0.012 A 
ATOM     14  H   UNL     1       1.090  -4.998  -0.691  0.00  0.00    +0.155 HD
ENDBRANCH   1  10
BRANCH   1  15
ATOM     15  C   UNL     1      -1.638  -4.313   2.345  0.00  0.00    +0.205 C 
ATOM     16  N   UNL     1      -1.645  -4.753   0.944  0.00  0.00    -0.152 NA
ATOM     17  N   UNL     1      -1.248  -3.827   0.233  0.00  0.00    -0.070 NA
ATOM     18  N   UNL     1      -0.926  -2.683   0.963  0.00  0.00    -0.179 N 
ATOM     19  N   UNL     1      -1.149  -2.919   2.297  0.00  0.00    -0.185 NA
ATOM     20  H   UNL     1      -0.597  -1.852   0.587  0.00  0.00    +0.191 HD
BRANCH  19  21
ATOM     21  C   UNL     1      -2.151  -1.991   2.837  0.00  0.00    +0.080 C 
ATOM     22  C   UNL     1      -3.373  -1.965   1.915  0.00  0.00    +0.021 C 
ATOM     23  C   UNL     1      -4.416  -0.998   2.479  0.00  0.00    +0.002 C 
ATOM     24  C   UNL     1      -3.815   0.406   2.568  0.00  0.00    +0.000 C 
ATOM     25  C   UNL     1      -2.594   0.380   3.490  0.00  0.00    +0.002 C 
ATOM     26  C   UNL     1      -1.550  -0.587   2.926  0.00  0.00    +0.021 C 
ENDBRANCH  19  21
ENDBRANCH   1  15
BRANCH   1  27
ATOM     27  N   UNL     1      -1.120  -6.585   3.098  0.00  0.00    +0.392 N 
ATOM     28  H   UNL     1      -1.195  -6.862   2.130  0.00  0.00    -0.080 HD
BRANCH  27  29
ATOM     29  C   UNL     1      -0.134  -7.437   3.776  0.00  0.00    -0.040 C 
BRANCH  29  30
ATOM     30  C   UNL     1      -0.502  -8.885   3.582  0.00  0.00    -0.046 A 
ATOM     31  C   UNL     1      -1.337  -9.525   4.487  0.00  0.00    +0.005 A 
ATOM     32  C   UNL     1      -1.649 -10.857   4.268  0.00  0.00    +0.020 A 
ATOM     33  C   UNL     1      -1.123 -11.500   3.163  0.00  0.00    +0.111 A 
ATOM     34  N   UNL     1      -0.332 -10.861   2.324  0.00  0.00    -0.263 NA
ATOM     35  C   UNL     1      -0.019  -9.591   2.497  0.00  0.00    +0.112 A 
ENDBRANCH  29  30
ENDBRANCH  27  29
BRANCH  27  36
ATOM     36  C   UNL     1      -2.427  -6.733   3.752  0.00  0.00    -0.002 C 
BRANCH  36  37
ATOM     37  C   UNL     1      -3.522  -6.465   2.752  0.00  0.00    +0.089 A 
ATOM     38  C   UNL     1      -4.001  -7.345   1.855  0.00  0.00    +0.042 A 
ATOM     39  C   UNL     1      -5.012  -6.678   1.126  0.00  0.00    +0.041 A 
ATOM     40  C   UNL     1      -5.090  -5.430   1.621  0.00  0.00    +0.195 A 
ATOM     41  O   UNL     1      -4.190  -5.308   2.610  0.00  0.00    -0.470 OA
ENDBRANCH  36  37
ENDBRANCH  27  36
ENDBRANCH   1  27
TORSDOF 8
