REMARK  Name = ZINC59238626
REMARK  10 active torsions:
REMARK  status: ('A' for Active; 'I' for Inactive)
REMARK    1  A    between atoms: C_1  and  C_2
REMARK    2  A    between atoms: C_3  and  C_18
REMARK    3  A    between atoms: C_4  and  C_10
REMARK    4  A    between atoms: C_13  and  S_16
REMARK    5  A    between atoms: S_16  and  C_17
REMARK    6  A    between atoms: N_20  and  C_21
REMARK    7  A    between atoms: C_23  and  O_30
REMARK    8  A    between atoms: C_26  and  O_27
REMARK    9  A    between atoms: O_27  and  C_28
REMARK   10  A    between atoms: O_30  and  C_31
REMARK                            x       y       z     vdW  Elec       q    Type
REMARK                         _______ _______ _______ _____ _____    ______ ____
ROOT
ATOM      1  C   UNL     1      -0.042   1.792   0.382  0.00  0.00    +0.061 C 
ATOM      2  C   UNL     1       0.059   0.309   0.133  0.00  0.00    +0.017 C 
ATOM      3  C   UNL     1      -1.067  -0.412  -0.048  0.00  0.00    +0.056 C 
ATOM      4  C   UNL     1      -0.920  -1.899  -0.297  0.00  0.00    +0.139 C 
ATOM      5  N   UNL     1       0.450  -2.440  -0.321  0.00  0.00    -0.315 N 
ATOM      6  C   UNL     1       1.477  -1.591  -0.124  0.00  0.00    +0.135 C 
ATOM      7  S   UNL     1       3.075  -2.204  -0.149  0.00  0.00    -0.019 S 
ATOM      8  N   UNL     1       1.290  -0.282   0.087  0.00  0.00    -0.300 N 
ATOM      9  H   UNL     1       0.608  -3.384  -0.476  0.00  0.00    +0.149 HD
ATOM     10  H   UNL     1       2.071   0.278   0.219  0.00  0.00    +0.154 HD
ENDROOT
BRANCH   4  11
ATOM     11  C   UNL     1      -1.687  -2.628   0.776  0.00  0.00    -0.023 A 
ATOM     12  C   UNL     1      -1.173  -2.709   2.058  0.00  0.00    +0.007 A 
ATOM     13  C   UNL     1      -1.873  -3.376   3.043  0.00  0.00    +0.015 A 
ATOM     14  C   UNL     1      -3.095  -3.966   2.747  0.00  0.00    +0.008 A 
ATOM     15  C   UNL     1      -3.609  -3.883   1.458  0.00  0.00    +0.015 A 
ATOM     16  C   UNL     1      -2.906  -3.210   0.479  0.00  0.00    +0.007 A 
BRANCH  14  17
ATOM     17  S   UNL     1      -3.991  -4.819   4.002  0.00  0.00    -0.129 S 
ATOM     18  C   UNL     1      -5.485  -5.403   3.154  0.00  0.00    +0.090 C 
ENDBRANCH  14  17
ENDBRANCH   4  11
BRANCH   3  19
ATOM     19  C   UNL     1      -2.344   0.201  -0.006  0.00  0.00    +0.248 C 
ATOM     20  O   UNL     1      -2.914   0.490  -1.042  0.00  0.00    -0.270 OA
ATOM     21  N   UNL     1      -2.926   0.463   1.180  0.00  0.00    -0.279 N 
ATOM     22  H   UNL     1      -2.457   0.265   2.006  0.00  0.00    +0.155 HD
BRANCH  21  23
ATOM     23  C   UNL     1      -4.210   1.022   1.222  0.00  0.00    +0.079 A 
ATOM     24  C   UNL     1      -4.944   1.164   0.053  0.00  0.00    +0.074 A 
ATOM     25  C   UNL     1      -6.214   1.718   0.096  0.00  0.00    +0.140 A 
ATOM     26  C   UNL     1      -6.751   2.130   1.308  0.00  0.00    +0.086 A 
ATOM     27  C   UNL     1      -6.021   1.990   2.474  0.00  0.00    +0.071 A 
ATOM     28  C   UNL     1      -4.754   1.432   2.437  0.00  0.00    +0.143 A 
ATOM     29 CL   UNL     1      -8.342   2.824   1.359  0.00  0.00    -0.080 Cl
BRANCH  28  30
ATOM     30  O   UNL     1      -4.039   1.289   3.585  0.00  0.00    -0.493 OA
ATOM     31  C   UNL     1      -4.659   1.730   4.795  0.00  0.00    +0.277 C 
ENDBRANCH  28  30
BRANCH  25  32
ATOM     32  O   UNL     1      -6.934   1.858  -1.049  0.00  0.00    -0.494 OA
ATOM     33  C   UNL     1      -6.320   1.413  -2.260  0.00  0.00    +0.277 C 
ENDBRANCH  25  32
ENDBRANCH  21  23
ENDBRANCH   3  19
TORSDOF 6
