REMARK  Name = ZINC40382954
REMARK  6 active torsions:
REMARK  status: ('A' for Active; 'I' for Inactive)
REMARK    1  A    between atoms: C_1  and  C_2
REMARK    2  A    between atoms: C_4  and  C_35
REMARK    3  A    between atoms: C_6  and  N_8
REMARK    4  A    between atoms: C_9  and  C_11
REMARK    5  A    between atoms: C_26  and  C_34
REMARK    6  A    between atoms: C_31  and  C_33
REMARK                            x       y       z     vdW  Elec       q    Type
REMARK                         _______ _______ _______ _____ _____    ______ ____
ROOT
ATOM      1  C   UNL     1       0.349  -3.130   5.070  0.00  0.00    +0.122 C 
ATOM      2  C   UNL     1      -0.914  -3.976   5.237  0.00  0.00    +0.114 C 
ATOM      3  C   UNL     1      -2.096  -3.077   5.488  0.00  0.00    +0.219 C 
ATOM      4  O   UNL     1      -3.175  -3.356   5.009  0.00  0.00    -0.275 OA
ATOM      5  N   UNL     1      -1.968  -1.969   6.237  0.00  0.00    -0.270 N 
ATOM      6  C   UNL     1      -0.730  -1.568   6.709  0.00  0.00    +0.138 A 
ATOM      7  C   UNL     1       0.425  -2.114   6.178  0.00  0.00    +0.069 A 
ATOM      8  C   UNL     1       1.664  -1.710   6.685  0.00  0.00    +0.258 A 
ATOM      9  O   UNL     1       2.700  -2.182   6.246  0.00  0.00    -0.267 OA
ATOM     10  N   UNL     1       1.690  -0.787   7.670  0.00  0.00    -0.295 N 
ATOM     11  H   UNL     1       2.538  -0.504   8.047  0.00  0.00    +0.172 HD
ATOM     12  C   UNL     1       0.527  -0.253   8.134  0.00  0.00    +0.200 A 
ATOM     13  N   UNL     1      -0.640  -0.634   7.662  0.00  0.00    -0.200 NA
ATOM     14  N   UNL     1       0.574   0.701   9.116  0.00  0.00    -0.295 N 
ATOM     15  C   UNL     1      -0.662   1.192   9.741  0.00  0.00    +0.073 C 
ATOM     16  C   UNL     1      -0.538   1.046  11.261  0.00  0.00    +0.022 C 
ATOM     17  C   UNL     1       0.732   1.756  11.735  0.00  0.00    +0.004 C 
ATOM     18  C   UNL     1       1.956   1.105  11.086  0.00  0.00    +0.022 C 
ATOM     19  C   UNL     1       1.860   1.247   9.568  0.00  0.00    +0.073 C 
ATOM     20  C   UNL     1       1.950   2.727   9.189  0.00  0.00    +0.028 C 
ATOM     21  C   UNL     1      -1.852   0.372   9.239  0.00  0.00    +0.028 C 
ATOM     22  H   UNL     1      -2.754  -1.442   6.450  0.00  0.00    +0.156 HD
ENDROOT
BRANCH   1  24
ATOM     23  N   UNL     1       0.237  -3.133   2.599  0.00  0.00    -0.285 N 
ATOM     24  C   UNL     1       0.306  -2.421   3.741  0.00  0.00    +0.225 C 
ATOM     25  O   UNL     1       0.333  -1.209   3.699  0.00  0.00    -0.275 OA
ATOM     26  H   UNL     1       0.138  -4.097   2.634  0.00  0.00    +0.155 HD
BRANCH  23  32
ATOM     27  C   UNL     1      -1.105  -2.859  -2.123  0.00  0.00    +0.044 C 
ATOM     28  C   UNL     1      -0.333  -2.327  -0.944  0.00  0.00    -0.048 A 
ATOM     29  C   UNL     1       0.446  -1.193  -1.082  0.00  0.00    +0.006 A 
ATOM     30  C   UNL     1       1.155  -0.701  -0.002  0.00  0.00    -0.048 A 
ATOM     31  C   UNL     1       1.088  -1.342   1.220  0.00  0.00    +0.026 A 
ATOM     32  C   UNL     1       0.307  -2.481   1.362  0.00  0.00    +0.034 A 
ATOM     33  C   UNL     1      -0.409  -2.969   0.277  0.00  0.00    +0.026 A 
ATOM     34  C   UNL     1       2.003   0.535  -0.158  0.00  0.00    +0.044 C 
ENDBRANCH  23  32
ENDBRANCH   1  24
TORSDOF 2
