REMARK  Name = ZINC12817814
REMARK  11 active torsions:
REMARK  status: ('A' for Active; 'I' for Inactive)
REMARK    1  A    between atoms: C_1  and  C_2
REMARK    2  A    between atoms: C_2  and  C_3
REMARK    3  A    between atoms: C_3  and  C_4
REMARK    4  A    between atoms: C_4  and  N_5
REMARK    5  A    between atoms: N_5  and  S_6
REMARK    6  A    between atoms: S_6  and  C_9
REMARK    7  A    between atoms: C_17  and  S_19
REMARK    8  A    between atoms: S_19  and  C_20
REMARK    9  A    between atoms: C_20  and  C_22
REMARK   10  A    between atoms: C_20  and  C_23
REMARK   11  A    between atoms: C_28  and  C_31
REMARK                            x       y       z     vdW  Elec       q    Type
REMARK                         _______ _______ _______ _____ _____    ______ ____
ROOT
ATOM      1  C   UNL     1      -2.336  -5.140   0.890  0.00  0.00    +0.107 A 
ATOM      2  C   UNL     1      -1.023  -5.561   0.740  0.00  0.00    +0.031 A 
ATOM      3  C   UNL     1      -0.421  -6.331   1.710  0.00  0.00    +0.032 A 
ATOM      4  C   UNL     1      -1.137  -6.692   2.854  0.00  0.00    +0.090 A 
ATOM      5  C   UNL     1      -2.466  -6.263   3.001  0.00  0.00    +0.069 A 
ATOM      6  C   UNL     1      -3.055  -5.483   2.017  0.00  0.00    +0.056 A 
ATOM      7  N   UNL     1      -2.903  -6.769   4.214  0.00  0.00    -0.333 N 
ATOM      8  H   UNL     1      -3.783  -6.648   4.605  0.00  0.00    +0.168 HD
ATOM      9  C   UNL     1      -1.864  -7.470   4.758  0.00  0.00    +0.168 A 
ATOM     10  N   UNL     1      -0.828  -7.423   3.956  0.00  0.00    -0.222 NA
ENDROOT
BRANCH   1  11
ATOM     11  S   UNL     1      -3.088  -4.155  -0.362  0.00  0.00    +0.058 S 
ATOM     12  O   UNL     1      -4.491  -4.342  -0.238  0.00  0.00    -0.153 OA
ATOM     13  O   UNL     1      -2.386  -4.426  -1.568  0.00  0.00    -0.153 OA
BRANCH  11  14
ATOM     14  N   UNL     1      -2.787  -2.571   0.015  0.00  0.00    -0.190 NA
ATOM     15  H   UNL     1      -3.521  -1.978   0.242  0.00  0.00    +0.148 HD
BRANCH  14  16
ATOM     16  C   UNL     1      -1.413  -2.063   0.004  0.00  0.00    +0.106 C 
BRANCH  16  17
ATOM     17  C   UNL     1      -1.433  -0.534   0.013  0.00  0.00    +0.017 C 
BRANCH  17  19
ATOM     18  C   UNL     1      -0.019   1.526   0.010  0.00  0.00    +0.004 C 
ATOM     19  C   UNL     1       0.002  -0.004   0.002  0.00  0.00    -0.002 C 
ENDBRANCH  17  19
ENDBRANCH  16  17
ENDBRANCH  14  16
ENDBRANCH  11  14
ENDBRANCH   1  11
BRANCH   9  20
ATOM     20  S   UNL     1      -1.910  -8.311   6.306  0.00  0.00    -0.075 S 
BRANCH  20  21
ATOM     21  C   UNL     1      -0.254  -9.034   6.461  0.00  0.00    +0.137 C 
ATOM     22  C   UNL     1       0.784  -7.915   6.567  0.00  0.00    +0.029 C 
BRANCH  21  23
ATOM     23  C   UNL     1      -0.194  -9.893   7.698  0.00  0.00    +0.229 C 
ATOM     24  O   UNL     1      -1.006  -9.735   8.585  0.00  0.00    -0.274 OA
ATOM     25  N   UNL     1       0.761 -10.836   7.819  0.00  0.00    -0.301 N 
ATOM     26  C   UNL     1       1.755 -11.034   6.756  0.00  0.00    +0.108 C 
ATOM     27  C   UNL     1       1.750 -12.510   6.345  0.00  0.00    +0.022 C 
ATOM     28  C   UNL     1       1.972 -13.381   7.584  0.00  0.00    -0.011 C 
ATOM     29  C   UNL     1       0.833 -13.153   8.581  0.00  0.00    +0.022 C 
ATOM     30  C   UNL     1       0.831 -11.681   9.019  0.00  0.00    +0.108 C 
ATOM     31  C   UNL     1       2.002 -14.854   7.173  0.00  0.00    +0.007 C 
ENDBRANCH  21  23
ENDBRANCH  20  21
ENDBRANCH   9  20
TORSDOF 8
