REMARK  Name = ZINC05130263
REMARK  8 active torsions:
REMARK  status: ('A' for Active; 'I' for Inactive)
REMARK    1  A    between atoms: C_1  and  O_2
REMARK    2  A    between atoms: O_2  and  C_3
REMARK    3  A    between atoms: C_5  and  C_11
REMARK    4  A    between atoms: C_7  and  O_9
REMARK    5  A    between atoms: O_9  and  C_10
REMARK    6  A    between atoms: C_14  and  C_25
REMARK    7  A    between atoms: C_20  and  N_24
REMARK    8  A    between atoms: C_21  and  C_22
REMARK                            x       y       z     vdW  Elec       q    Type
REMARK                         _______ _______ _______ _____ _____    ______ ____
ROOT
ATOM      1  C   UNL     1      -2.533  -4.175   0.015  0.00  0.00    +0.102 C 
ATOM      2  C   UNL     1      -3.266  -4.658   1.240  0.00  0.00    +0.054 A 
ATOM      3  C   UNL     1      -2.869  -4.666   2.535  0.00  0.00    +0.074 A 
ATOM      4  N   UNL     1      -3.890  -5.204   3.268  0.00  0.00    -0.273 N 
ATOM      5  H   UNL     1      -3.895  -5.338   4.228  0.00  0.00    +0.189 HD
ATOM      6  N   UNL     1      -4.931  -5.528   2.383  0.00  0.00    -0.135 NA
ATOM      7  C   UNL     1      -4.562  -5.205   1.176  0.00  0.00    +0.245 A 
ATOM      8  O   UNL     1      -5.233  -5.333  -0.001  0.00  0.00    -0.421 OA
ATOM      9  C   UNL     1      -4.527  -5.177  -1.138  0.00  0.00    +0.201 C 
ATOM     10  C   UNL     1      -3.284  -4.654  -1.202  0.00  0.00    +0.098 C 
ENDROOT
BRANCH   3  11
ATOM     11  C   UNL     1      -1.572  -4.184   3.060  0.00  0.00    +0.000 A 
ATOM     12  C   UNL     1      -0.386  -4.518   2.407  0.00  0.00    +0.013 A 
ATOM     13  C   UNL     1       0.821  -4.065   2.899  0.00  0.00    +0.039 A 
ATOM     14  C   UNL     1       0.855  -3.280   4.040  0.00  0.00    +0.123 A 
ATOM     15  C   UNL     1      -0.321  -2.946   4.693  0.00  0.00    +0.039 A 
ATOM     16  C   UNL     1      -1.533  -3.389   4.205  0.00  0.00    +0.013 A 
ATOM     17  F   UNL     1       2.039  -2.839   4.519  0.00  0.00    -0.205 F 
ENDBRANCH   3  11
BRANCH   1  20
ATOM     18  C   UNL     1      -1.200  -0.637   0.010  0.00  0.00    +0.124 A 
ATOM     19  C   UNL     1      -1.255  -2.024   0.009  0.00  0.00    +0.050 A 
ATOM     20  C   UNL     1      -2.477  -2.669   0.017  0.00  0.00    -0.028 A 
ATOM     21  C   UNL     1      -3.647  -1.935   0.025  0.00  0.00    +0.050 A 
ATOM     22  C   UNL     1      -3.598  -0.548   0.027  0.00  0.00    +0.124 A 
ATOM     23  C   UNL     1      -2.373   0.101   0.025  0.00  0.00    +0.091 A 
BRANCH  18  25
ATOM     24  C   UNL     1      -0.017   1.425   0.010  0.00  0.00    +0.277 C 
ATOM     25  O   UNL     1       0.002  -0.004   0.002  0.00  0.00    -0.495 OA
ENDBRANCH  18  25
BRANCH  22  26
ATOM     26  O   UNL     1      -4.750   0.173   0.036  0.00  0.00    -0.495 OA
ATOM     27  C   UNL     1      -4.624   1.597   0.037  0.00  0.00    +0.277 C 
ENDBRANCH  22  26
ENDBRANCH   1  20
BRANCH   9  28
ATOM     28  N   UNL     1      -5.113  -5.576  -2.314  0.00  0.00    -0.328 N 
ATOM     29  H   UNL     1      -6.005  -5.956  -2.306  0.00  0.00    +0.145 HD
ATOM     30  H   UNL     1      -4.634  -5.478  -3.152  0.00  0.00    +0.145 HD
ENDBRANCH   9  28
BRANCH  10  31
ATOM     31  C   UNL     1      -2.649  -4.551  -2.481  0.00  0.00    +0.101 C 
ATOM     32  N   UNL     1      -2.145  -4.469  -3.496  0.00  0.00    -0.191 NA
ENDBRANCH  10  31
TORSDOF 6
