REMARK  Name = ZINC17115411
REMARK  6 active torsions:
REMARK  status: ('A' for Active; 'I' for Inactive)
REMARK    1  A    between atoms: C_1  and  C_2
REMARK    2  A    between atoms: C_4  and  S_9
REMARK    3  A    between atoms: S_9  and  N_12
REMARK    4  A    between atoms: N_12  and  C_13
REMARK    5  A    between atoms: C_16  and  C_19
REMARK    6  A    between atoms: N_21  and  N_22
REMARK                            x       y       z     vdW  Elec       q    Type
REMARK                         _______ _______ _______ _____ _____    ______ ____
ROOT
ATOM      1  C   UNL     1       1.125   2.395  -0.183  0.00  0.00    +0.048 A 
ATOM      2  C   UNL     1       2.310   2.002   0.431  0.00  0.00    +0.025 A 
ATOM      3  C   UNL     1       3.461   2.733   0.242  0.00  0.00    +0.015 A 
ATOM      4  C   UNL     1       3.436   3.878  -0.559  0.00  0.00    +0.038 A 
ATOM      5  C   UNL     1       2.242   4.274  -1.170  0.00  0.00    +0.015 A 
ATOM      6  C   UNL     1       1.096   3.535  -0.982  0.00  0.00    +0.025 A 
ENDROOT
BRANCH   4   7
ATOM      7  C   UNL     1       4.665   4.668  -0.759  0.00  0.00    +0.261 C 
ATOM      8  O   UNL     1       4.642   5.664  -1.456  0.00  0.00    -0.269 OA
ATOM      9  N   UNL     1       5.815   4.285  -0.170  0.00  0.00    -0.220 N 
ATOM     10  H   UNL     1       5.834   3.490   0.386  0.00  0.00    +0.174 HD
BRANCH   9  11
ATOM     11  N   UNL     1       6.983   5.035  -0.359  0.00  0.00    -0.137 N 
ATOM     12  C   UNL     1       7.518   5.854   0.570  0.00  0.00    +0.263 C 
ATOM     13  O   UNL     1       7.095   6.074   1.685  0.00  0.00    -0.271 OA
ATOM     14  C   UNL     1       8.754   6.441  -0.072  0.00  0.00    +0.114 C 
ATOM     15  C   UNL     1       9.998   6.053   0.719  0.00  0.00    +0.035 C 
ATOM     16  C   UNL     1      11.241   6.632   0.037  0.00  0.00    +0.003 C 
ATOM     17  C   UNL     1      11.117   8.155  -0.036  0.00  0.00    +0.000 C 
ATOM     18  C   UNL     1       9.879   8.529  -0.853  0.00  0.00    +0.003 C 
ATOM     19  C   UNL     1       8.630   7.957  -0.175  0.00  0.00    +0.035 C 
ATOM     20  N   UNL     1       8.783   5.834  -1.409  0.00  0.00    -0.284 N 
ATOM     21  C   UNL     1       7.711   5.022  -1.483  0.00  0.00    +0.326 C 
ATOM     22  O   UNL     1       7.434   4.356  -2.460  0.00  0.00    -0.251 OA
ATOM     23  H   UNL     1       9.446   5.985  -2.101  0.00  0.00    +0.151 HD
ENDBRANCH   9  11
ENDBRANCH   4   7
BRANCH   1  24
ATOM     24  N   UNL     1      -0.035   1.651   0.005  0.00  0.00    -0.216 N 
ATOM     25  H   UNL     1      -0.873   2.100   0.198  0.00  0.00    +0.174 HD
BRANCH  24  26
ATOM     26  S   UNL     1       0.014  -0.000  -0.105  0.00  0.00    +0.072 S 
ATOM     27  O   UNL     1       1.068  -0.433   0.745  0.00  0.00    -0.150 OA
ATOM     28  O   UNL     1      -1.323  -0.457   0.046  0.00  0.00    -0.150 OA
BRANCH  26  32
ATOM     29  C   UNL     1       3.657  -1.248  -3.639  0.00  0.00    +0.047 C 
ATOM     30  C   UNL     1       2.209  -0.968  -3.328  0.00  0.00    -0.013 A 
ATOM     31  C   UNL     1       1.827  -0.656  -2.037  0.00  0.00    +0.035 A 
ATOM     32  C   UNL     1       0.500  -0.398  -1.752  0.00  0.00    +0.109 A 
ATOM     33  C   UNL     1      -0.449  -0.459  -2.756  0.00  0.00    +0.031 A 
ATOM     34  C   UNL     1      -0.069  -0.766  -4.048  0.00  0.00    +0.040 A 
ATOM     35  C   UNL     1       1.261  -1.024  -4.335  0.00  0.00    +0.126 A 
ATOM     36  F   UNL     1       1.633  -1.329  -5.598  0.00  0.00    -0.205 F 
ENDBRANCH  26  32
ENDBRANCH  24  26
ENDBRANCH   1  24
TORSDOF 5
