REMARK  Name = ZINC39272549
REMARK  5 active torsions:
REMARK  status: ('A' for Active; 'I' for Inactive)
REMARK    1  A    between atoms: C_4  and  C_7
REMARK    2  A    between atoms: C_7  and  C_8
REMARK    3  A    between atoms: C_8  and  C_10
REMARK    4  A    between atoms: C_8  and  N_27
REMARK    5  A    between atoms: C_28  and  C_30
REMARK                            x       y       z     vdW  Elec       q    Type
REMARK                         _______ _______ _______ _____ _____    ______ ____
ROOT
ATOM      1  C   UNL     1       4.172  -0.962   1.401  0.00  0.00    +0.164 C 
ENDROOT
BRANCH   1   2
ATOM      2  C   UNL     1       5.490  -1.693   1.424  0.00  0.00    +0.236 C 
ATOM      3  O   UNL     1       5.552  -2.817   1.875  0.00  0.00    -0.274 OA
ATOM      4  N   UNL     1       6.599  -1.097   0.942  0.00  0.00    -0.300 N 
ATOM      5  C   UNL     1       6.563   0.302   0.496  0.00  0.00    +0.106 C 
ATOM      6  C   UNL     1       7.664   1.079   1.225  0.00  0.00    +0.009 C 
ATOM      7  C   UNL     1       9.007   0.381   1.005  0.00  0.00    -0.037 C 
ATOM      8  C   UNL     1       8.954  -1.036   1.577  0.00  0.00    +0.009 C 
ATOM      9  C   UNL     1       7.868  -1.833   0.859  0.00  0.00    +0.106 C 
ATOM     10  C   UNL     1      10.118   1.175   1.696  0.00  0.00    +0.140 C 
ATOM     11  C   UNL     1      10.179   2.515   0.970  0.00  0.00    +0.042 C 
ATOM     12  N   UNL     1      10.023   3.410   1.865  0.00  0.00    -0.243 NA
ATOM     13  C   UNL     1       9.772   2.865   3.081  0.00  0.00    +0.216 C 
ATOM     14  N   UNL     1       9.785   1.548   3.071  0.00  0.00    -0.264 NA
ATOM     15  C   UNL     1      10.273   2.592  -0.533  0.00  0.00    +0.034 C 
ATOM     16  C   UNL     1       9.192   1.636  -1.074  0.00  0.00    -0.076 C 
ATOM     17  N   UNL     1       9.304   0.324  -0.433  0.00  0.00    +0.385 N 
ATOM     18  H   UNL     1      10.242  -0.024  -0.561  0.00  0.00    -0.085 HD
ATOM     19  H   UNL     1       8.658  -0.313  -0.876  0.00  0.00    -0.085 HD
ENDBRANCH   1   2
BRANCH   1  20
ATOM     20  N   UNL     1       3.280  -1.532   2.414  0.00  0.00    -0.300 N 
ATOM     21  C   UNL     1       2.289  -0.784   2.937  0.00  0.00    +0.245 C 
ATOM     22  O   UNL     1       2.135   0.364   2.568  0.00  0.00    -0.270 OA
ATOM     23  H   UNL     1       3.403  -2.448   2.708  0.00  0.00    +0.150 HD
BRANCH  21  24
ATOM     24  C   UNL     1       1.389  -1.359   3.959  0.00  0.00    +0.037 A 
ATOM     25  C   UNL     1       1.567  -2.675   4.389  0.00  0.00    +0.013 A 
ATOM     26  C   UNL     1       0.724  -3.206   5.344  0.00  0.00    +0.001 A 
ATOM     27  C   UNL     1      -0.297  -2.437   5.874  0.00  0.00    +0.000 A 
ATOM     28  C   UNL     1      -0.479  -1.132   5.452  0.00  0.00    +0.001 A 
ATOM     29  C   UNL     1       0.361  -0.587   4.503  0.00  0.00    +0.013 A 
ENDBRANCH  21  24
ENDBRANCH   1  20
BRANCH   1  30
ATOM     30  C   UNL     1       3.532  -1.107   0.019  0.00  0.00    +0.067 C 
BRANCH  30  34
ATOM     31  C   UNL     1       0.011   1.304  -0.182  0.00  0.00    +0.000 A 
ATOM     32  C   UNL     1       1.235   1.835  -0.547  0.00  0.00    +0.000 A 
ATOM     33  C   UNL     1       2.374   1.055  -0.482  0.00  0.00    +0.004 A 
ATOM     34  C   UNL     1       2.290  -0.256  -0.051  0.00  0.00    -0.045 A 
ATOM     35  C   UNL     1       1.067  -0.787   0.315  0.00  0.00    +0.004 A 
ATOM     36  C   UNL     1      -0.072  -0.007   0.248  0.00  0.00    +0.000 A 
ENDBRANCH  30  34
ENDBRANCH   1  30
TORSDOF 5
