REMARK  Name = ZINC36531112
REMARK  11 active torsions:
REMARK  status: ('A' for Active; 'I' for Inactive)
REMARK    1  A    between atoms: C_1  and  C_2
REMARK    2  A    between atoms: C_2  and  C_3
REMARK    3  A    between atoms: C_3  and  C_4
REMARK    4  A    between atoms: C_4  and  N_5
REMARK    5  A    between atoms: C_6  and  C_8
REMARK    6  A    between atoms: C_8  and  C_10
REMARK    7  A    between atoms: C_8  and  N_18
REMARK    8  A    between atoms: N_18  and  C_19
REMARK    9  A    between atoms: C_20  and  C_22
REMARK   10  A    between atoms: C_23  and  O_29
REMARK   11  A    between atoms: C_27  and  O_28
REMARK                            x       y       z     vdW  Elec       q    Type
REMARK                         _______ _______ _______ _____ _____    ______ ____
ROOT
ATOM      1  C   UNL     1       2.133  -4.284  -4.002  0.00  0.00    +0.195 C 
ENDROOT
BRANCH   1   2
ATOM      2  C   UNL     1       3.518  -3.705  -4.136  0.00  0.00    +0.018 A 
ATOM      3  C   UNL     1       4.231  -3.880  -5.309  0.00  0.00    +0.048 A 
ATOM      4  C   UNL     1       5.503  -3.349  -5.431  0.00  0.00    +0.020 A 
ATOM      5  C   UNL     1       6.061  -2.644  -4.381  0.00  0.00    +0.003 A 
ATOM      6  C   UNL     1       5.350  -2.469  -3.209  0.00  0.00    +0.020 A 
ATOM      7  C   UNL     1       4.075  -2.994  -3.088  0.00  0.00    +0.048 A 
ATOM      8 CL   UNL     1       3.179  -2.768  -1.619  0.00  0.00    -0.083 Cl
ATOM      9 CL   UNL     1       3.530  -4.766  -6.627  0.00  0.00    -0.083 Cl
ENDBRANCH   1   2
BRANCH   1  11
ATOM     10  N   UNL     1       0.990  -2.099  -3.797  0.00  0.00    -0.313 N 
ATOM     11  C   UNL     1       1.251  -3.310  -3.264  0.00  0.00    +0.238 C 
ATOM     12  O   UNL     1       0.777  -3.615  -2.191  0.00  0.00    -0.273 OA
ATOM     13  H   UNL     1       1.389  -1.846  -4.644  0.00  0.00    +0.149 HD
BRANCH  10  14
ATOM     14  C   UNL     1       0.102  -1.167  -3.097  0.00  0.00    +0.104 C 
BRANCH  14  15
ATOM     15  C   UNL     1      -0.025   0.123  -3.910  0.00  0.00    +0.018 C 
BRANCH  15  17
ATOM     16  C   UNL     1      -1.079   2.386  -3.992  0.00  0.00    +0.004 C 
ATOM     17  C   UNL     1      -0.952   1.096  -3.179  0.00  0.00    -0.002 C 
ENDBRANCH  15  17
ENDBRANCH  14  15
ENDBRANCH  10  14
ENDBRANCH   1  11
BRANCH   1  18
ATOM     18  N   UNL     1       2.200  -5.543  -3.258  0.00  0.00    -0.285 N 
ATOM     19  C   UNL     1       2.871  -5.590  -1.956  0.00  0.00    +0.133 C 
ATOM     20  C   UNL     1       1.643  -6.659  -3.770  0.00  0.00    +0.254 C 
ATOM     21  O   UNL     1       1.086  -6.620  -4.850  0.00  0.00    -0.270 OA
BRANCH  20  22
ATOM     22  C   UNL     1       1.710  -7.925  -3.022  0.00  0.00    +0.119 A 
ATOM     23  C   UNL     1       0.694  -8.266  -2.118  0.00  0.00    +0.133 A 
ATOM     24  C   UNL     1       0.766  -9.460  -1.419  0.00  0.00    +0.046 A 
ATOM     25  C   UNL     1       1.836 -10.315  -1.610  0.00  0.00    +0.007 A 
ATOM     26  C   UNL     1       2.844  -9.988  -2.498  0.00  0.00    +0.046 A 
ATOM     27  C   UNL     1       2.789  -8.802  -3.212  0.00  0.00    +0.133 A 
BRANCH  27  28
ATOM     28  O   UNL     1       3.776  -8.487  -4.087  0.00  0.00    -0.506 OA
ATOM     29  H   UNL     1       4.506  -7.990  -3.694  0.00  0.00    +0.292 HD
ENDBRANCH  27  28
BRANCH  23  30
ATOM     30  O   UNL     1      -0.357  -7.429  -1.928  0.00  0.00    -0.506 OA
ATOM     31  H   UNL     1      -1.103  -7.593  -2.522  0.00  0.00    +0.292 HD
ENDBRANCH  23  30
ENDBRANCH  20  22
ENDBRANCH   1  18
TORSDOF 9
