REMARK  Name = ZINC08584810
REMARK  8 active torsions:
REMARK  status: ('A' for Active; 'I' for Inactive)
REMARK    1  A    between atoms: C_1  and  O_2
REMARK    2  A    between atoms: O_2  and  C_3
REMARK    3  A    between atoms: C_6  and  N_9
REMARK    4  A    between atoms: C_12  and  C_19
REMARK    5  A    between atoms: C_14  and  C_17
REMARK    6  A    between atoms: C_15  and  N_16
REMARK    7  A    between atoms: C_21  and  C_24
REMARK    8  A    between atoms: C_24  and  N_62
REMARK                            x       y       z     vdW  Elec       q    Type
REMARK                         _______ _______ _______ _____ _____    ______ ____
ROOT
ATOM      1  N   UNL     1      -1.010  -0.670   0.637  0.00  0.00    -0.260 N 
ATOM      2  C   UNL     1      -0.357   0.060  -0.320  0.00  0.00    +0.024 C 
ATOM      3  C   UNL     1       0.680  -0.471  -1.003  0.00  0.00    +0.026 C 
ATOM      4  C   UNL     1       1.148  -1.877  -0.729  0.00  0.00    +0.104 C 
ATOM      5  C   UNL     1       0.103  -2.664   0.004  0.00  0.00    +0.077 C 
ATOM      6  C   UNL     1      -0.917  -2.043   0.652  0.00  0.00    +0.107 C 
ATOM      7  C   UNL     1       1.357   0.273  -1.986  0.00  0.00    +0.162 C 
ATOM      8  O   UNL     1       2.274  -0.241  -2.595  0.00  0.00    -0.292 OA
ATOM      9  C   UNL     1       0.966   1.691  -2.298  0.00  0.00    +0.080 C 
ATOM     10  C   UNL     1       0.354   2.327  -1.045  0.00  0.00    +0.014 C 
ATOM     11  C   UNL     1      -0.829   1.468  -0.593  0.00  0.00    +0.052 C 
ENDROOT
BRANCH   1  15
ATOM     12  C   UNL     1      -3.298   1.281   3.526  0.00  0.00    +0.120 A 
ATOM     13  C   UNL     1      -3.884   0.875   2.335  0.00  0.00    +0.047 A 
ATOM     14  C   UNL     1      -3.127   0.229   1.378  0.00  0.00    +0.027 A 
ATOM     15  C   UNL     1      -1.779  -0.015   1.608  0.00  0.00    +0.040 A 
ATOM     16  C   UNL     1      -1.195   0.387   2.802  0.00  0.00    +0.027 A 
ATOM     17  C   UNL     1      -1.952   1.038   3.756  0.00  0.00    +0.047 A 
BRANCH  12  19
ATOM     18  C   UNL     1      -3.377   2.306   5.670  0.00  0.00    +0.277 C 
ATOM     19  O   UNL     1      -4.045   1.917   4.468  0.00  0.00    -0.495 OA
ENDBRANCH  12  19
ENDBRANCH   1  15
BRANCH   4  20
ATOM     20  C   UNL     1       2.403  -1.827   0.104  0.00  0.00    +0.003 A 
ATOM     21  C   UNL     1       3.645  -2.282  -0.195  0.00  0.00    +0.014 A 
ATOM     22  C   UNL     1       4.658  -2.122   0.732  0.00  0.00    -0.057 A 
ATOM     23  C   UNL     1       4.378  -1.525   1.916  0.00  0.00    +0.047 A 
ATOM     24  S   UNL     1       2.639  -1.159   1.743  0.00  0.00    -0.100 S 
BRANCH  22  25
ATOM     25  C   UNL     1       6.052  -2.609   0.433  0.00  0.00    -0.042 C 
BRANCH  25  31
ATOM     26  C   UNL     1       6.103  -4.093   2.347  0.00  0.00    -0.050 C 
ATOM     27  C   UNL     1       6.193  -5.562   2.767  0.00  0.00    +0.141 C 
ATOM     28  O   UNL     1       7.407  -6.124   2.262  0.00  0.00    -0.383 OA
ATOM     29  C   UNL     1       7.526  -6.052   0.839  0.00  0.00    +0.141 C 
ATOM     30  C   UNL     1       7.450  -4.587   0.399  0.00  0.00    -0.050 C 
ATOM     31  N   UNL     1       6.171  -4.016   0.873  0.00  0.00    +0.385 N 
ATOM     32  H   UNL     1       5.395  -4.558   0.474  0.00  0.00    -0.081 HD
ENDBRANCH  25  31
ENDBRANCH  22  25
ENDBRANCH   4  20
BRANCH   6  33
ATOM     33  N   UNL     1      -1.857  -2.787   1.324  0.00  0.00    -0.345 N 
ATOM     34  H   UNL     1      -2.633  -2.353   1.712  0.00  0.00    +0.144 HD
ATOM     35  H   UNL     1      -1.745  -3.747   1.411  0.00  0.00    +0.144 HD
ENDBRANCH   6  33
BRANCH   5  36
ATOM     36  C   UNL     1       0.181  -4.094   0.022  0.00  0.00    +0.099 C 
ATOM     37  N   UNL     1       0.243  -5.228   0.036  0.00  0.00    -0.191 NA
ENDBRANCH   5  36
TORSDOF 7
