REMARK  Name = ZINC37524786
REMARK  10 active torsions:
REMARK  status: ('A' for Active; 'I' for Inactive)
REMARK    1  A    between atoms: C_1  and  C_2
REMARK    2  A    between atoms: C_2  and  C_4
REMARK    3  A    between atoms: C_2  and  N_7
REMARK    4  A    between atoms: C_4  and  C_5
REMARK    5  A    between atoms: C_4  and  C_6
REMARK    6  A    between atoms: C_8  and  C_10
REMARK    7  A    between atoms: C_15  and  N_16
REMARK    8  A    between atoms: C_19  and  N_22
REMARK    9  A    between atoms: C_23  and  O_25
REMARK   10  A    between atoms: O_25  and  C_26
REMARK                            x       y       z     vdW  Elec       q    Type
REMARK                         _______ _______ _______ _____ _____    ______ ____
ROOT
ATOM      1  C   UNL     1      -3.427  -1.172  -1.138  0.00  0.00    +0.058 A 
ATOM      2  C   UNL     1      -4.005  -1.613   0.056  0.00  0.00    +0.015 A 
ATOM      3  C   UNL     1      -5.304  -2.070   0.062  0.00  0.00    +0.001 A 
ATOM      4  C   UNL     1      -6.044  -2.095  -1.109  0.00  0.00    +0.002 A 
ATOM      5  C   UNL     1      -5.488  -1.664  -2.296  0.00  0.00    +0.024 A 
ATOM      6  C   UNL     1      -4.181  -1.193  -2.322  0.00  0.00    +0.042 A 
ENDROOT
BRANCH   6   7
ATOM      7  N   UNL     1      -3.621  -0.753  -3.514  0.00  0.00    -0.329 N 
ATOM      8  C   UNL     1      -3.653   0.671  -3.875  0.00  0.00    +0.107 C 
ATOM      9  C   UNL     1      -4.272   0.812  -5.269  0.00  0.00    +0.041 C 
ATOM     10  C   UNL     1      -3.503  -0.069  -6.256  0.00  0.00    +0.079 C 
ATOM     11  C   UNL     1      -3.610  -1.534  -5.826  0.00  0.00    +0.041 C 
ATOM     12  C   UNL     1      -2.979  -1.701  -4.435  0.00  0.00    +0.107 C 
BRANCH  10  13
ATOM     13  N   UNL     1      -4.071   0.089  -7.597  0.00  0.00    -0.278 N 
ATOM     14  C   UNL     1      -3.311  -0.153  -8.684  0.00  0.00    +0.400 C 
ATOM     15  O   UNL     1      -2.155  -0.503  -8.551  0.00  0.00    -0.226 OA
ATOM     16  H   UNL     1      -4.994   0.367  -7.703  0.00  0.00    +0.152 HD
BRANCH  14  17
ATOM     17  O   UNL     1      -3.833  -0.008  -9.916  0.00  0.00    -0.454 OA
ATOM     18  C   UNL     1      -2.971  -0.282 -11.022  0.00  0.00    +0.282 C 
ENDBRANCH  14  17
ENDBRANCH  10  13
ENDBRANCH   6   7
BRANCH   1  20
ATOM     19  N   UNL     1      -1.358  -0.545   0.004  0.00  0.00    -0.308 N 
ATOM     20  C   UNL     1      -2.037  -0.682  -1.153  0.00  0.00    +0.246 C 
ATOM     21  O   UNL     1      -1.502  -0.402  -2.208  0.00  0.00    -0.270 OA
ATOM     22  H   UNL     1      -1.785  -0.769   0.846  0.00  0.00    +0.149 HD
BRANCH  19  24
ATOM     23  C   UNL     1       0.025   1.472  -0.022  0.00  0.00    +0.028 C 
ATOM     24  C   UNL     1       0.023  -0.059  -0.011  0.00  0.00    +0.073 C 
BRANCH  24  25
ATOM     25  C   UNL     1       0.754  -0.560   1.237  0.00  0.00    +0.003 C 
ATOM     26  C   UNL     1       0.752  -2.090   1.249  0.00  0.00    +0.009 C 
ATOM     27  C   UNL     1       2.197  -0.051   1.222  0.00  0.00    +0.009 C 
ENDBRANCH  24  25
ENDBRANCH  19  24
ENDBRANCH   1  20
TORSDOF 6
