REMARK  Name = ZINC02801860
REMARK  7 active torsions:
REMARK  status: ('A' for Active; 'I' for Inactive)
REMARK    1  A    between atoms: C_3  and  C_30
REMARK    2  A    between atoms: C_6  and  C_7
REMARK    3  A    between atoms: C_10  and  C_12
REMARK    4  A    between atoms: C_13  and  C_14
REMARK    5  A    between atoms: C_13  and  C_16
REMARK    6  A    between atoms: N_18  and  C_19
REMARK    7  A    between atoms: C_21  and  C_26
REMARK                            x       y       z     vdW  Elec       q    Type
REMARK                         _______ _______ _______ _____ _____    ______ ____
ROOT
ATOM      1  C   UNL     1      -8.561   4.188   0.044  0.00  0.00    +0.070 C 
ATOM      2  C   UNL     1      -9.067   2.897   0.046  0.00  0.00    +0.117 C 
ENDROOT
BRANCH   1   6
ATOM      3  C   UNL     1      -5.008   4.006  -0.000  0.00  0.00    +0.136 A 
ATOM      4  C   UNL     1      -5.164   5.376   0.007  0.00  0.00    +0.050 A 
ATOM      5  C   UNL     1      -6.535   5.630   0.025  0.00  0.00    +0.050 A 
ATOM      6  C   UNL     1      -7.171   4.398   0.028  0.00  0.00    +0.130 A 
ATOM      7  O   UNL     1      -6.225   3.435   0.007  0.00  0.00    -0.455 OA
BRANCH   3  13
ATOM      8  C   UNL     1      -3.701   1.888  -0.025  0.00  0.00    +0.012 A 
ATOM      9  C   UNL     1      -2.504   1.219  -0.043  0.00  0.00    +0.016 A 
ATOM     10  C   UNL     1      -1.303   1.935  -0.055  0.00  0.00    +0.063 A 
ATOM     11  C   UNL     1      -1.323   3.333  -0.044  0.00  0.00    +0.016 A 
ATOM     12  C   UNL     1      -2.519   4.002  -0.032  0.00  0.00    +0.012 A 
ATOM     13  C   UNL     1      -3.721   3.286  -0.019  0.00  0.00    +0.017 A 
BRANCH  10  14
ATOM     14  C   UNL     1      -0.015   1.215  -0.073  0.00  0.00    +0.387 C 
ATOM     15  O   UNL     1       0.002   0.000  -0.077  0.00  0.00    -0.241 OA
ATOM     16  O   UNL     1       1.142   1.905  -0.090  0.00  0.00    -0.241 OA
ENDBRANCH  10  14
ENDBRANCH   3  13
ENDBRANCH   1   6
BRANCH   2  17
ATOM     17  C   UNL     1     -10.519   2.677   0.063  0.00  0.00    +0.259 C 
ATOM     18  O   UNL     1     -11.278   3.628   0.076  0.00  0.00    -0.269 OA
ATOM     19  N   UNL     1     -11.011   1.422   0.064  0.00  0.00    -0.280 N 
ATOM     20  H   UNL     1     -10.409   0.665  -0.012  0.00  0.00    +0.155 HD
BRANCH  19  21
ATOM     21  C   UNL     1     -12.389   1.211   0.175  0.00  0.00    +0.053 A 
ATOM     22  C   UNL     1     -13.279   2.105  -0.406  0.00  0.00    +0.037 A 
ATOM     23  C   UNL     1     -14.639   1.891  -0.298  0.00  0.00    +0.057 A 
ATOM     24  C   UNL     1     -15.117   0.795   0.397  0.00  0.00    +0.014 A 
ATOM     25  C   UNL     1     -14.234  -0.095   0.981  0.00  0.00    +0.022 A 
ATOM     26  C   UNL     1     -12.871   0.110   0.873  0.00  0.00    +0.062 A 
ATOM     27 CL   UNL     1     -11.764  -1.007   1.607  0.00  0.00    -0.082 Cl
BRANCH  23  28
ATOM     28  C   UNL     1     -15.605   2.858  -0.933  0.00  0.00    +0.417 C 
ATOM     29  F   UNL     1     -16.917   2.438  -0.685  0.00  0.00    -0.166 F 
ATOM     30  F   UNL     1     -15.414   4.133  -0.391  0.00  0.00    -0.166 F 
ATOM     31  F   UNL     1     -15.383   2.901  -2.314  0.00  0.00    -0.166 F 
ENDBRANCH  23  28
ENDBRANCH  19  21
ENDBRANCH   2  17
BRANCH   2  32
ATOM     32  C   UNL     1      -8.174   1.777   0.030  0.00  0.00    +0.104 C 
ATOM     33  N   UNL     1      -7.465   0.890   0.018  0.00  0.00    -0.191 NA
ENDBRANCH   2  32
TORSDOF 7
