REMARK  Name = ZINC22215448
REMARK  15 active torsions:
REMARK  status: ('A' for Active; 'I' for Inactive)
REMARK    1  A    between atoms: C_1  and  C_2
REMARK    2  A    between atoms: C_4  and  C_27
REMARK    3  A    between atoms: C_7  and  C_17
REMARK    4  A    between atoms: C_9  and  C_16
REMARK    5  A    between atoms: C_11  and  C_12
REMARK    6  A    between atoms: C_11  and  O_15
REMARK    7  A    between atoms: C_12  and  C_13
REMARK    8  A    between atoms: C_19  and  O_25
REMARK    9  A    between atoms: C_22  and  O_23
REMARK   10  A    between atoms: O_23  and  C_24
REMARK   11  A    between atoms: O_25  and  C_26
REMARK   12  A    between atoms: C_29  and  O_35
REMARK   13  A    between atoms: C_32  and  O_33
REMARK   14  A    between atoms: O_33  and  C_34
REMARK   15  A    between atoms: O_35  and  C_36
REMARK                            x       y       z     vdW  Elec       q    Type
REMARK                         _______ _______ _______ _____ _____    ______ ____
ROOT
ATOM      1  C   UNL     1       2.915   3.350  -1.810  0.00  0.00    +0.009 C 
ATOM      2  C   UNL     1       4.118   2.448  -1.526  0.00  0.00    +0.008 C 
ATOM      3  C   UNL     1       4.086   1.999  -0.064  0.00  0.00    -0.031 C 
ATOM      4  N   UNL     1       5.252   1.151   0.215  0.00  0.00    +0.389 N 
ATOM      5  C   UNL     1       6.505   1.889   0.016  0.00  0.00    -0.031 C 
ATOM      6  C   UNL     1       6.610   2.335  -1.445  0.00  0.00    +0.008 C 
ATOM      7  C   UNL     1       5.412   3.224  -1.788  0.00  0.00    +0.072 C 
ATOM      8  C   UNL     1       6.612   1.105  -2.355  0.00  0.00    +0.009 C 
ATOM      9  H   UNL     1       5.211   0.803   1.258  0.00  0.00    -0.084 HD
ATOM     10  H   UNL     1       5.244   0.283  -0.461  0.00  0.00    -0.084 HD
ENDROOT
BRANCH   5  11
ATOM     11  C   UNL     1       7.672   0.997   0.353  0.00  0.00    -0.016 A 
ATOM     12  C   UNL     1       7.537  -0.376   0.275  0.00  0.00    +0.051 A 
ATOM     13  C   UNL     1       8.613  -1.196   0.580  0.00  0.00    +0.121 A 
ATOM     14  C   UNL     1       9.820  -0.639   0.975  0.00  0.00    +0.049 A 
ATOM     15  C   UNL     1       9.954   0.733   1.058  0.00  0.00    +0.049 A 
ATOM     16  C   UNL     1       8.880   1.554   0.747  0.00  0.00    +0.122 A 
BRANCH  16  17
ATOM     17  O   UNL     1       9.011   2.905   0.829  0.00  0.00    -0.495 OA
ATOM     18  C   UNL     1      10.282   3.409   1.241  0.00  0.00    +0.277 C 
ENDBRANCH  16  17
BRANCH  13  19
ATOM     19  O   UNL     1       8.482  -2.547   0.498  0.00  0.00    -0.495 OA
ATOM     20  C   UNL     1       9.629  -3.332   0.832  0.00  0.00    +0.277 C 
ENDBRANCH  13  19
ENDBRANCH   5  11
BRANCH   3  21
ATOM     21  C   UNL     1       2.823   1.218   0.194  0.00  0.00    -0.016 A 
ATOM     22  C   UNL     1       2.858  -0.163   0.218  0.00  0.00    +0.051 A 
ATOM     23  C   UNL     1       1.696  -0.882   0.455  0.00  0.00    +0.121 A 
ATOM     24  C   UNL     1       0.499  -0.214   0.668  0.00  0.00    +0.049 A 
ATOM     25  C   UNL     1       0.464   1.166   0.644  0.00  0.00    +0.049 A 
ATOM     26  C   UNL     1       1.626   1.885   0.407  0.00  0.00    +0.122 A 
BRANCH  26  27
ATOM     27  O   UNL     1       1.592   3.244   0.383  0.00  0.00    -0.495 OA
ATOM     28  C   UNL     1       0.325   3.865   0.609  0.00  0.00    +0.277 C 
ENDBRANCH  26  27
BRANCH  23  29
ATOM     29  O   UNL     1       1.730  -2.241   0.477  0.00  0.00    -0.495 OA
ATOM     30  C   UNL     1       0.496  -2.917   0.726  0.00  0.00    +0.277 C 
ENDBRANCH  23  29
ENDBRANCH   3  21
BRANCH   7  31
ATOM     31  O   UNL     1       5.439   4.398  -0.974  0.00  0.00    -0.388 OA
ATOM     32  H   UNL     1       6.298   5.084  -1.027  0.00  0.00    +0.210 HD
ENDBRANCH   7  31
BRANCH   7  33
ATOM     33  C   UNL     1       5.478   3.624  -3.264  0.00  0.00    +0.061 C 
BRANCH  33  34
ATOM     34  C   UNL     1       6.778   4.336  -3.533  0.00  0.00    -0.032 C 
ATOM     35  C   UNL     1       7.614   3.861  -4.423  0.00  0.00    +0.004 C 
ENDBRANCH  33  34
ENDBRANCH   7  33
TORSDOF 9
