REMARK  Name = ZINC12242873
REMARK  7 active torsions:
REMARK  status: ('A' for Active; 'I' for Inactive)
REMARK    1  A    between atoms: C_4  and  S_7
REMARK    2  A    between atoms: S_7  and  N_10
REMARK    3  A    between atoms: N_10  and  C_11
REMARK    4  A    between atoms: C_14  and  N_17
REMARK    5  A    between atoms: C_20  and  N_64
REMARK    6  A    between atoms: C_23  and  C_24
REMARK    7  A    between atoms: C_23  and  N_64
REMARK                            x       y       z     vdW  Elec       q    Type
REMARK                         _______ _______ _______ _____ _____    ______ ____
ROOT
ATOM      1  N   UNL     1       5.155   3.012  -5.176  0.00  0.00    -0.330 N 
ATOM      2  C   UNL     1       5.009   2.546  -6.561  0.00  0.00    +0.103 C 
ATOM      3  C   UNL     1       5.408   3.668  -7.523  0.00  0.00    +0.003 C 
ATOM      4  C   UNL     1       4.513   4.886  -7.277  0.00  0.00    -0.069 C 
ATOM      5  C   UNL     1       4.647   5.321  -5.816  0.00  0.00    +0.003 C 
ATOM      6  C   UNL     1       4.271   4.151  -4.903  0.00  0.00    +0.103 C 
ENDROOT
BRANCH   1  10
ATOM      7  C   UNL     1       4.473  -0.091  -2.476  0.00  0.00    +0.048 A 
ATOM      8  C   UNL     1       3.731   1.080  -2.390  0.00  0.00    +0.026 A 
ATOM      9  C   UNL     1       3.960   2.109  -3.282  0.00  0.00    +0.025 A 
ATOM     10  C   UNL     1       4.926   1.970  -4.270  0.00  0.00    +0.030 A 
ATOM     11  C   UNL     1       5.664   0.797  -4.359  0.00  0.00    +0.025 A 
ATOM     12  C   UNL     1       5.438  -0.231  -3.464  0.00  0.00    +0.026 A 
BRANCH   7  13
ATOM     13  N   UNL     1       4.243  -1.133  -1.569  0.00  0.00    -0.216 N 
ATOM     14  H   UNL     1       3.446  -1.680  -1.651  0.00  0.00    +0.174 HD
BRANCH  13  15
ATOM     15  S   UNL     1       5.332  -1.431  -0.358  0.00  0.00    +0.072 S 
ATOM     16  O   UNL     1       6.611  -1.511  -0.973  0.00  0.00    -0.150 OA
ATOM     17  O   UNL     1       4.794  -2.491   0.420  0.00  0.00    -0.150 OA
BRANCH  15  21
ATOM     18  C   UNL     1       5.404   2.226   2.308  0.00  0.00    +0.000 A 
ATOM     19  C   UNL     1       6.339   2.088   1.299  0.00  0.00    +0.002 A 
ATOM     20  C   UNL     1       6.317   0.971   0.485  0.00  0.00    +0.029 A 
ATOM     21  C   UNL     1       5.361  -0.008   0.680  0.00  0.00    +0.108 A 
ATOM     22  C   UNL     1       4.426   0.130   1.689  0.00  0.00    +0.029 A 
ATOM     23  C   UNL     1       4.448   1.247   2.503  0.00  0.00    +0.002 A 
ENDBRANCH  15  21
ENDBRANCH  13  15
ENDBRANCH   7  13
ENDBRANCH   1  10
BRANCH   4  24
ATOM     24  N   UNL     1       4.934   5.994  -8.155  0.00  0.00    +0.383 N 
ATOM     25  H   UNL     1       5.954   5.966  -8.270  0.00  0.00    -0.085 HD
ATOM     26  H   UNL     1       4.663   6.887  -7.726  0.00  0.00    -0.085 HD
BRANCH  24  27
ATOM     27  C   UNL     1       4.291   5.874  -9.477  0.00  0.00    -0.037 C 
BRANCH  27  28
ATOM     28  C   UNL     1       4.746   7.035 -10.363  0.00  0.00    +0.157 C 
ATOM     29  C   UNL     1       4.075   6.929 -11.738  0.00  0.00    +0.047 C 
ATOM     30  C   UNL     1       4.635   8.037 -12.633  0.00  0.00    +0.042 C 
ATOM     31  C   UNL     1       4.602   9.351 -11.895  0.00  0.00    -0.006 A 
ATOM     32  C   UNL     1       4.705  10.527 -12.620  0.00  0.00    +0.007 A 
ATOM     33  C   UNL     1       4.682  11.748 -11.976  0.00  0.00    +0.000 A 
ATOM     34  C   UNL     1       4.557  11.801 -10.600  0.00  0.00    +0.004 A 
ATOM     35  C   UNL     1       4.454  10.633  -9.872  0.00  0.00    +0.046 A 
ATOM     36  C   UNL     1       4.474   9.401 -10.518  0.00  0.00    +0.124 A 
ATOM     37  O   UNL     1       4.361   8.274  -9.767  0.00  0.00    -0.490 OA
ENDBRANCH  27  28
ENDBRANCH  24  27
ENDBRANCH   4  24
TORSDOF 7
