REMARK  Name = ZINC20718392
REMARK  8 active torsions:
REMARK  status: ('A' for Active; 'I' for Inactive)
REMARK    1  A    between atoms: C_1  and  O_2
REMARK    2  A    between atoms: O_2  and  C_3
REMARK    3  A    between atoms: C_12  and  C_13
REMARK    4  A    between atoms: C_24  and  S_29
REMARK    5  A    between atoms: S_29  and  N_32
REMARK    6  A    between atoms: N_32  and  C_33
REMARK    7  A    between atoms: C_33  and  C_34
REMARK    8  A    between atoms: C_34  and  C_35
REMARK                            x       y       z     vdW  Elec       q    Type
REMARK                         _______ _______ _______ _____ _____    ______ ____
ROOT
ATOM      1  C   UNL     1      -2.000   2.453   3.478  0.00  0.00    +0.109 C 
ATOM      2  C   UNL     1      -0.889   1.688   4.174  0.00  0.00    +0.029 C 
ATOM      3  C   UNL     1       0.246   2.513   4.795  0.00  0.00    +0.033 C 
ATOM      4  C   UNL     1       1.424   1.542   4.693  0.00  0.00    -0.030 C 
ATOM      5  C   UNL     1       1.225   0.690   3.695  0.00  0.00    -0.023 C 
ATOM      6  C   UNL     1      -0.060   1.028   3.031  0.00  0.00    +0.049 C 
ATOM      7  C   UNL     1      -0.906  -0.002   2.391  0.00  0.00    -0.018 A 
ATOM      8  C   UNL     1      -0.388  -1.173   1.883  0.00  0.00    +0.034 A 
ATOM      9  C   UNL     1      -1.215  -2.089   1.259  0.00  0.00    +0.106 A 
ATOM     10  C   UNL     1      -2.570  -1.832   1.146  0.00  0.00    +0.030 A 
ATOM     11  C   UNL     1      -3.099  -0.666   1.659  0.00  0.00    +0.025 A 
ATOM     12  C   UNL     1      -2.277   0.259   2.293  0.00  0.00    +0.031 A 
ATOM     13  N   UNL     1      -2.840   1.427   2.820  0.00  0.00    -0.336 N 
ATOM     14  H   UNL     1      -3.926   1.576   2.739  0.00  0.00    +0.147 HD
ENDROOT
BRANCH   1  24
ATOM     15  C   UNL     1      -1.361   3.015   1.136  0.00  0.00    +0.126 A 
ATOM     16  C   UNL     1      -0.832   3.876   0.169  0.00  0.00    +0.046 A 
ATOM     17  C   UNL     1      -0.360   5.104   0.509  0.00  0.00    +0.012 A 
ATOM     18  C   UNL     1      -0.401   5.520   1.852  0.00  0.00    -0.017 A 
ATOM     19  C   UNL     1       0.078   6.783   2.238  0.00  0.00    +0.008 A 
ATOM     20  C   UNL     1       0.022   7.154   3.547  0.00  0.00    +0.001 A 
ATOM     21  C   UNL     1      -0.505   6.298   4.513  0.00  0.00    +0.001 A 
ATOM     22  C   UNL     1      -0.978   5.068   4.176  0.00  0.00    +0.009 A 
ATOM     23  C   UNL     1      -0.937   4.650   2.834  0.00  0.00    -0.009 A 
ATOM     24  C   UNL     1      -1.422   3.389   2.448  0.00  0.00    +0.022 A 
BRANCH  15  26
ATOM     25  C   UNL     1      -1.741   1.461  -0.622  0.00  0.00    +0.277 C 
ATOM     26  O   UNL     1      -1.825   1.794   0.765  0.00  0.00    -0.495 OA
ENDBRANCH  15  26
ENDBRANCH   1  24
BRANCH   9  27
ATOM     27  S   UNL     1      -0.545  -3.583   0.609  0.00  0.00    +0.058 S 
ATOM     28  O   UNL     1       0.656  -3.835   1.326  0.00  0.00    -0.153 OA
ATOM     29  O   UNL     1      -1.612  -4.520   0.559  0.00  0.00    -0.153 OA
BRANCH  27  30
ATOM     30  N   UNL     1      -0.106  -3.282  -0.959  0.00  0.00    -0.190 NA
ATOM     31  H   UNL     1      -0.728  -3.674  -1.776  0.00  0.00    +0.148 HD
BRANCH  30  32
ATOM     32  C   UNL     1       0.966  -2.326  -1.248  0.00  0.00    +0.110 C 
BRANCH  32  33
ATOM     33  C   UNL     1       1.428  -2.501  -2.696  0.00  0.00    +0.052 C 
BRANCH  33  34
ATOM     34  C   UNL     1       2.531  -1.518  -2.994  0.00  0.00    -0.046 A 
ATOM     35  C   UNL     1       2.224  -0.266  -3.493  0.00  0.00    +0.003 A 
ATOM     36  C   UNL     1       3.235   0.638  -3.762  0.00  0.00    +0.000 A 
ATOM     37  C   UNL     1       4.554   0.285  -3.542  0.00  0.00    +0.000 A 
ATOM     38  C   UNL     1       4.861  -0.969  -3.048  0.00  0.00    +0.000 A 
ATOM     39  C   UNL     1       3.849  -1.870  -2.775  0.00  0.00    +0.003 A 
ENDBRANCH  33  34
ENDBRANCH  32  33
ENDBRANCH  30  32
ENDBRANCH  27  30
ENDBRANCH   9  27
TORSDOF 7
