REMARK  Name = ZINC38940584
REMARK  10 active torsions:
REMARK  status: ('A' for Active; 'I' for Inactive)
REMARK    1  A    between atoms: C_1  and  C_2
REMARK    2  A    between atoms: C_2  and  C_3
REMARK    3  A    between atoms: C_2  and  C_4
REMARK    4  A    between atoms: N_6  and  C_7
REMARK    5  A    between atoms: C_10  and  S_13
REMARK    6  A    between atoms: S_13  and  N_16
REMARK    7  A    between atoms: N_16  and  C_17
REMARK    8  A    between atoms: C_17  and  C_18
REMARK    9  A    between atoms: C_18  and  C_20
REMARK   10  A    between atoms: C_18  and  N_30
REMARK                            x       y       z     vdW  Elec       q    Type
REMARK                         _______ _______ _______ _____ _____    ______ ____
ROOT
ATOM      1  N   UNL     1       3.595   1.296   7.065  0.00  0.00    -0.191 NA
ATOM      2  H   UNL     1       3.897   2.209   6.944  0.00  0.00    +0.148 HD
ENDROOT
BRANCH   1   3
ATOM      3  S   UNL     1       2.854   0.497   5.817  0.00  0.00    +0.058 S 
ATOM      4  O   UNL     1       3.493  -0.767   5.708  0.00  0.00    -0.153 OA
ATOM      5  O   UNL     1       2.786   1.413   4.733  0.00  0.00    -0.153 OA
BRANCH   3   9
ATOM      6  C   UNL     1      -1.414  -0.316   7.096  0.00  0.00    +0.034 A 
ATOM      7  C   UNL     1      -1.099   0.861   6.429  0.00  0.00    +0.025 A 
ATOM      8  C   UNL     1       0.203   1.106   6.040  0.00  0.00    +0.030 A 
ATOM      9  C   UNL     1       1.194   0.181   6.315  0.00  0.00    +0.105 A 
ATOM     10  C   UNL     1       0.884  -0.992   6.978  0.00  0.00    +0.030 A 
ATOM     11  C   UNL     1      -0.416  -1.240   7.375  0.00  0.00    +0.025 A 
BRANCH   6  14
ATOM     12  C   UNL     1      -2.978  -1.214   8.647  0.00  0.00    +0.220 C 
ATOM     13  O   UNL     1      -2.058  -1.661   9.299  0.00  0.00    -0.275 OA
ATOM     14  N   UNL     1      -2.732  -0.567   7.491  0.00  0.00    -0.285 N 
ATOM     15  H   UNL     1      -3.470  -0.275   6.933  0.00  0.00    +0.155 HD
BRANCH  12  17
ATOM     16  C   UNL     1      -5.199  -2.167   8.090  0.00  0.00    +0.017 C 
ATOM     17  C   UNL     1      -4.396  -1.383   9.130  0.00  0.00    +0.069 C 
ATOM     18  C   UNL     1      -4.395  -2.147  10.456  0.00  0.00    +0.017 C 
ENDBRANCH  12  17
ENDBRANCH   6  14
ENDBRANCH   3   9
ENDBRANCH   1   3
BRANCH   1  19
ATOM     19  C   UNL     1       3.795   0.621   8.350  0.00  0.00    +0.095 C 
BRANCH  19  20
ATOM     20  C   UNL     1       4.842   1.381   9.167  0.00  0.00    -0.021 C 
BRANCH  20  21
ATOM     21  C   UNL     1       4.313   2.749   9.514  0.00  0.00    -0.052 A 
ATOM     22  C   UNL     1       4.615   3.819   8.730  0.00  0.00    +0.002 A 
ATOM     23  C   UNL     1       4.135   5.091   9.035  0.00  0.00    +0.001 A 
ATOM     24  C   UNL     1       3.350   5.300  10.127  0.00  0.00    +0.008 A 
ATOM     25  C   UNL     1       3.017   4.220  10.961  0.00  0.00    -0.018 A 
ATOM     26  C   UNL     1       3.500   2.925  10.647  0.00  0.00    -0.016 A 
ATOM     27  C   UNL     1       3.161   1.843  11.478  0.00  0.00    +0.009 A 
ATOM     28  C   UNL     1       2.371   2.051  12.566  0.00  0.00    +0.001 A 
ATOM     29  C   UNL     1       1.891   3.323  12.871  0.00  0.00    +0.001 A 
ATOM     30  C   UNL     1       2.209   4.397  12.097  0.00  0.00    +0.008 A 
ENDBRANCH  20  21
BRANCH  20  31
ATOM     31  N   UNL     1       6.074   1.518   8.378  0.00  0.00    +0.385 N 
ATOM     32  C   UNL     1       7.155   2.100   9.214  0.00  0.00    -0.078 C 
ATOM     33  C   UNL     1       8.446   1.664   8.476  0.00  0.00    -0.020 C 
ATOM     34  C   UNL     1       8.100   0.239   7.986  0.00  0.00    -0.020 C 
ATOM     35  C   UNL     1       6.561   0.187   7.958  0.00  0.00    -0.078 C 
ATOM     36  H   UNL     1       5.906   2.099   7.570  0.00  0.00    -0.081 HD
ENDBRANCH  20  31
ENDBRANCH  19  20
ENDBRANCH   1  19
TORSDOF 8
