REMARK  Name = ZINC59101396
REMARK  12 active torsions:
REMARK  status: ('A' for Active; 'I' for Inactive)
REMARK    1  A    between atoms: C_1  and  C_2
REMARK    2  A    between atoms: C_5  and  N_9
REMARK    3  A    between atoms: C_7  and  C_8
REMARK    4  A    between atoms: N_9  and  C_10
REMARK    5  A    between atoms: C_10  and  N_12
REMARK    6  A    between atoms: N_12  and  C_13
REMARK    7  A    between atoms: N_12  and  C_20
REMARK    8  A    between atoms: C_13  and  C_14
REMARK    9  A    between atoms: C_22  and  C_28
REMARK   10  A    between atoms: C_22  and  C_29
REMARK   11  A    between atoms: C_24  and  C_26
REMARK   12  A    between atoms: C_24  and  C_27
REMARK                            x       y       z     vdW  Elec       q    Type
REMARK                         _______ _______ _______ _____ _____    ______ ____
ROOT
ATOM      1  N   UNL     1      -0.472  -6.195  -1.094  0.00  0.00    -0.305 N 
ENDROOT
BRANCH   1   2
ATOM      2  C   UNL     1      -0.604  -6.899   0.188  0.00  0.00    +0.073 C 
ATOM      3  C   UNL     1      -1.705  -6.234   1.016  0.00  0.00    +0.009 C 
ATOM      4  C   UNL     1      -1.846  -6.948   2.359  0.00  0.00    -0.072 C 
ATOM      5  N   UNL     1      -0.581  -7.025   3.075  0.00  0.00    +0.386 N 
ATOM      6  C   UNL     1       0.592  -7.453   2.329  0.00  0.00    -0.072 C 
ATOM      7  C   UNL     1       0.710  -6.787   0.961  0.00  0.00    +0.009 C 
ATOM      8  C   UNL     1       0.641  -8.975   2.174  0.00  0.00    -0.010 C 
ATOM      9  C   UNL     1       1.838  -7.042   3.148  0.00  0.00    -0.010 C 
ATOM     10  C   UNL     1      -2.481  -8.324   2.163  0.00  0.00    -0.010 C 
ATOM     11  C   UNL     1      -2.820  -6.112   3.222  0.00  0.00    -0.010 C 
ATOM     12  H   UNL     1      -0.386  -6.107   3.482  0.00  0.00    -0.084 HD
ATOM     13  H   UNL     1      -0.702  -7.652   3.873  0.00  0.00    -0.084 HD
ENDBRANCH   1   2
BRANCH   1  14
ATOM     14  C   UNL     1      -0.286  -4.860  -1.114  0.00  0.00    +0.138 C 
ATOM     15  S   UNL     1      -0.260  -4.022  -2.606  0.00  0.00    -0.018 S 
BRANCH  14  16
ATOM     16  N   UNL     1      -0.120  -4.186   0.041  0.00  0.00    -0.297 N 
ATOM     17  H   UNL     1      -0.056  -4.668   0.880  0.00  0.00    +0.154 HD
BRANCH  16  22
ATOM     18  C   UNL     1       0.203   1.478  -0.005  0.00  0.00    +0.044 C 
ATOM     19  C   UNL     1       0.117  -0.027   0.007  0.00  0.00    -0.047 A 
ATOM     20  C   UNL     1       0.887  -0.769  -0.871  0.00  0.00    +0.005 A 
ATOM     21  C   UNL     1       0.810  -2.148  -0.862  0.00  0.00    +0.023 A 
ATOM     22  C   UNL     1      -0.040  -2.789   0.030  0.00  0.00    +0.033 A 
ATOM     23  C   UNL     1      -0.811  -2.041   0.909  0.00  0.00    +0.027 A 
ATOM     24  C   UNL     1      -0.726  -0.662   0.899  0.00  0.00    -0.046 A 
ATOM     25  C   UNL     1      -1.558   0.150   1.858  0.00  0.00    +0.044 C 
ENDBRANCH  16  22
ENDBRANCH  14  16
ENDBRANCH   1  14
BRANCH   1  26
ATOM     26  C   UNL     1      -0.543  -6.944  -2.351  0.00  0.00    +0.142 C 
BRANCH  26  27
ATOM     27  C   UNL     1       0.840  -7.396  -2.745  0.00  0.00    -0.027 A 
ATOM     28  C   UNL     1       1.649  -6.596  -3.537  0.00  0.00    +0.025 A 
ATOM     29  C   UNL     1       2.912  -7.044  -3.878  0.00  0.00    +0.111 A 
ATOM     30  N   UNL     1       3.347  -8.217  -3.460  0.00  0.00    -0.263 NA
ATOM     31  C   UNL     1       2.604  -9.004  -2.706  0.00  0.00    +0.111 A 
ATOM     32  C   UNL     1       1.334  -8.620  -2.320  0.00  0.00    +0.025 A 
ENDBRANCH  26  27
ENDBRANCH   1  26
TORSDOF 6
