REMARK  Name = ZINC09342374
REMARK  10 active torsions:
REMARK  status: ('A' for Active; 'I' for Inactive)
REMARK    1  A    between atoms: C_1  and  C_2
REMARK    2  A    between atoms: C_5  and  O_30
REMARK    3  A    between atoms: C_6  and  N_8
REMARK    4  A    between atoms: C_10  and  C_15
REMARK    5  A    between atoms: N_17  and  C_18
REMARK    6  A    between atoms: C_23  and  C_24
REMARK    7  A    between atoms: N_26  and  C_27
REMARK    8  A    between atoms: C_27  and  C_28
REMARK    9  A    between atoms: C_27  and  C_29
REMARK   10  A    between atoms: O_30  and  C_31
REMARK                            x       y       z     vdW  Elec       q    Type
REMARK                         _______ _______ _______ _____ _____    ______ ____
ROOT
ATOM      1  C   UNL     1       2.288   5.258   0.100  0.00  0.00    +0.222 C 
ATOM      2  O   UNL     1       1.231   5.821   0.290  0.00  0.00    -0.275 OA
ATOM      3  N   UNL     1       2.327   3.914  -0.003  0.00  0.00    -0.285 N 
ATOM      4  H   UNL     1       3.180   3.458  -0.079  0.00  0.00    +0.155 HD
ENDROOT
BRANCH   1   7
ATOM      5  N   UNL     1       3.070   8.068  -1.239  0.00  0.00    -0.267 N 
ATOM      6  C   UNL     1       3.274   7.571   0.127  0.00  0.00    +0.127 C 
ATOM      7  C   UNL     1       3.558   6.060  -0.023  0.00  0.00    +0.102 C 
ATOM      8  C   UNL     1       4.123   5.986  -1.460  0.00  0.00    +0.110 C 
ATOM      9  C   UNL     1       3.542   7.200  -2.150  0.00  0.00    +0.221 C 
ATOM     10  O   UNL     1       3.507   7.366  -3.351  0.00  0.00    -0.275 OA
BRANCH   5  16
ATOM     11  C   UNL     1       3.456  12.892  -2.108  0.00  0.00    +0.044 C 
ATOM     12  C   UNL     1       2.622  11.643  -1.980  0.00  0.00    -0.048 A 
ATOM     13  C   UNL     1       1.254  11.705  -2.173  0.00  0.00    +0.007 A 
ATOM     14  C   UNL     1       0.483  10.563  -2.057  0.00  0.00    +0.048 A 
ATOM     15  C   UNL     1       1.082   9.351  -1.752  0.00  0.00    +0.141 A 
ATOM     16  C   UNL     1       2.459   9.289  -1.552  0.00  0.00    +0.078 A 
ATOM     17  C   UNL     1       3.226  10.440  -1.671  0.00  0.00    +0.030 A 
BRANCH  15  18
ATOM     18  O   UNL     1       0.326   8.226  -1.643  0.00  0.00    -0.493 OA
ATOM     19  C   UNL     1      -1.079   8.365  -1.861  0.00  0.00    +0.277 C 
ENDBRANCH  15  18
ENDBRANCH   5  16
ENDBRANCH   1   7
BRANCH   3  20
ATOM     20  C   UNL     1       1.143   3.181  -0.001  0.00  0.00    +0.046 A 
ATOM     21  C   UNL     1       0.001   3.699  -0.597  0.00  0.00    +0.024 A 
ATOM     22  C   UNL     1      -1.172   2.970  -0.593  0.00  0.00    +0.002 A 
ATOM     23  C   UNL     1      -1.218   1.719  -0.000  0.00  0.00    +0.001 A 
ATOM     24  C   UNL     1      -0.096   1.192   0.601  0.00  0.00    +0.015 A 
ATOM     25  C   UNL     1       1.098   1.916   0.605  0.00  0.00    +0.058 A 
BRANCH  25  26
ATOM     26  C   UNL     1       2.305   1.356   1.242  0.00  0.00    +0.246 C 
ATOM     27  O   UNL     1       3.364   1.948   1.165  0.00  0.00    -0.270 OA
ATOM     28  N   UNL     1       2.233   0.187   1.909  0.00  0.00    -0.309 N 
ATOM     29  H   UNL     1       1.388  -0.285   1.971  0.00  0.00    +0.149 HD
BRANCH  28  30
ATOM     30  C   UNL     1       3.431  -0.370   2.542  0.00  0.00    +0.067 C 
ATOM     31  C   UNL     1       3.607   0.244   3.932  0.00  0.00    +0.027 C 
ATOM     32  C   UNL     1       3.282  -1.887   2.670  0.00  0.00    +0.027 C 
ENDBRANCH  28  30
ENDBRANCH  25  26
ENDBRANCH   3  20
TORSDOF 6
