REMARK  Name = ZINC13130820
REMARK  8 active torsions:
REMARK  status: ('A' for Active; 'I' for Inactive)
REMARK    1  A    between atoms: C_1  and  C_2
REMARK    2  A    between atoms: C_7  and  N_8
REMARK    3  A    between atoms: C_9  and  S_13
REMARK    4  A    between atoms: S_13  and  C_14
REMARK    5  A    between atoms: C_14  and  C_15
REMARK    6  A    between atoms: N_17  and  N_18
REMARK    7  A    between atoms: C_19  and  C_21
REMARK    8  A    between atoms: C_30  and  C_33
REMARK                            x       y       z     vdW  Elec       q    Type
REMARK                         _______ _______ _______ _____ _____    ______ ____
ROOT
ATOM      1  C   UNL     1       5.949   8.815  -2.730  0.00  0.00    +0.239 C 
ATOM      2  O   UNL     1       5.007   9.433  -2.280  0.00  0.00    -0.273 OA
ATOM      3  N   UNL     1       5.834   7.495  -2.974  0.00  0.00    -0.233 N 
ATOM      4  H   UNL     1       6.587   7.001  -3.334  0.00  0.00    +0.173 HD
ENDROOT
BRANCH   3   5
ATOM      5  N   UNL     1       4.627   6.835  -2.708  0.00  0.00    -0.230 N 
ATOM      6  C   UNL     1       4.513   5.515  -2.951  0.00  0.00    +0.260 C 
ATOM      7  O   UNL     1       5.457   4.896  -3.403  0.00  0.00    -0.269 OA
ATOM      8  H   UNL     1       3.874   7.329  -2.347  0.00  0.00    +0.173 HD
BRANCH   6   9
ATOM      9  C   UNL     1       3.242   4.820  -2.671  0.00  0.00    +0.040 A 
ATOM     10  C   UNL     1       2.157   5.534  -2.152  0.00  0.00    +0.014 A 
ATOM     11  C   UNL     1       0.972   4.882  -1.892  0.00  0.00    +0.017 A 
ATOM     12  C   UNL     1       0.855   3.522  -2.145  0.00  0.00    +0.030 A 
ATOM     13  C   UNL     1       1.933   2.796  -2.662  0.00  0.00    +0.048 A 
ATOM     14  C   UNL     1       3.125   3.452  -2.924  0.00  0.00    +0.037 A 
ATOM     15  N   UNL     1       1.835   1.430  -2.918  0.00  0.00    -0.284 N 
ATOM     16  C   UNL     1       0.712   0.743  -3.107  0.00  0.00    +0.230 C 
ATOM     17  O   UNL     1       0.799  -0.447  -3.330  0.00  0.00    -0.274 OA
ATOM     18  C   UNL     1      -0.659   1.359  -3.067  0.00  0.00    +0.134 C 
ATOM     19  S   UNL     1      -0.665   2.685  -1.818  0.00  0.00    -0.111 S 
ATOM     20  C   UNL     1      -1.001   1.941  -4.440  0.00  0.00    +0.029 C 
ATOM     21  H   UNL     1       2.666   0.932  -2.962  0.00  0.00    +0.155 HD
ENDBRANCH   6   9
ENDBRANCH   3   5
BRANCH   1  22
ATOM     22  C   UNL     1       7.247   9.525  -3.017  0.00  0.00    +0.174 C 
BRANCH  22  23
ATOM     23  S   UNL     1       7.085  11.276  -2.587  0.00  0.00    -0.075 S 
BRANCH  23  25
ATOM     24  N   UNL     1       9.160  13.116  -2.900  0.00  0.00    -0.187 N 
ATOM     25  C   UNL     1       8.698  11.845  -3.011  0.00  0.00    +0.214 A 
ATOM     26  N   UNL     1       9.681  11.118  -3.498  0.00  0.00    -0.101 NA
ATOM     27  N   UNL     1      10.722  11.844  -3.695  0.00  0.00    -0.022 NA
ATOM     28  N   UNL     1      10.489  13.065  -3.355  0.00  0.00    -0.038 NA
BRANCH  24  35
ATOM     29  C   UNL     1      10.426  14.779  -0.968  0.00  0.00    +0.046 C 
ATOM     30  C   UNL     1       9.043  15.075  -1.489  0.00  0.00    -0.025 A 
ATOM     31  C   UNL     1       8.356  16.183  -1.034  0.00  0.00    +0.005 A 
ATOM     32  C   UNL     1       7.085  16.452  -1.507  0.00  0.00    +0.000 A 
ATOM     33  C   UNL     1       6.501  15.617  -2.442  0.00  0.00    +0.002 A 
ATOM     34  C   UNL     1       7.186  14.511  -2.905  0.00  0.00    +0.028 A 
ATOM     35  C   UNL     1       8.462  14.238  -2.432  0.00  0.00    +0.073 A 
ENDBRANCH  24  35
ENDBRANCH  23  25
ENDBRANCH  22  23
ENDBRANCH   1  22
TORSDOF 6
