REMARK  Name = ZINC15134274
REMARK  8 active torsions:
REMARK  status: ('A' for Active; 'I' for Inactive)
REMARK    1  A    between atoms: C_4  and  C_7
REMARK    2  A    between atoms: C_7  and  C_8
REMARK    3  A    between atoms: C_7  and  C_14
REMARK    4  A    between atoms: N_16  and  C_17
REMARK    5  A    between atoms: C_17  and  C_18
REMARK    6  A    between atoms: N_20  and  N_21
REMARK    7  A    between atoms: C_22  and  C_23
REMARK    8  A    between atoms: C_26  and  C_28
REMARK                            x       y       z     vdW  Elec       q    Type
REMARK                         _______ _______ _______ _____ _____    ______ ____
ROOT
ATOM      1  C   UNL     1      -1.143  -0.199   3.872  0.00  0.00    +0.201 C 
ENDROOT
BRANCH   1   4
ATOM      2  C   UNL     1      -0.963  -0.281   1.444  0.00  0.00    +0.225 C 
ATOM      3  O   UNL     1      -2.045  -0.829   1.411  0.00  0.00    -0.275 OA
ATOM      4  N   UNL     1      -0.424   0.076   2.626  0.00  0.00    -0.306 N 
ATOM      5  H   UNL     1       0.441   0.515   2.652  0.00  0.00    +0.149 HD
BRANCH   2   6
ATOM      6  C   UNL     1      -0.223   0.002   0.162  0.00  0.00    +0.135 C 
BRANCH   6  10
ATOM      7  C   UNL     1       0.408   4.209  -0.220  0.00  0.00    +0.000 A 
ATOM      8  C   UNL     1       1.474   3.337  -0.339  0.00  0.00    +0.000 A 
ATOM      9  C   UNL     1       1.270   1.975  -0.215  0.00  0.00    +0.005 A 
ATOM     10  C   UNL     1      -0.000   1.486   0.027  0.00  0.00    -0.031 A 
ATOM     11  C   UNL     1      -1.067   2.358   0.140  0.00  0.00    +0.005 A 
ATOM     12  C   UNL     1      -0.862   3.720   0.022  0.00  0.00    +0.000 A 
ENDBRANCH   6  10
BRANCH   6  13
ATOM     13  C   UNL     1      -1.036  -0.492  -1.007  0.00  0.00    -0.031 A 
ATOM     14  C   UNL     1      -2.352  -0.095  -1.151  0.00  0.00    +0.005 A 
ATOM     15  C   UNL     1      -3.096  -0.544  -2.226  0.00  0.00    +0.000 A 
ATOM     16  C   UNL     1      -2.527  -1.399  -3.151  0.00  0.00    +0.000 A 
ATOM     17  C   UNL     1      -1.213  -1.800  -3.005  0.00  0.00    +0.000 A 
ATOM     18  C   UNL     1      -0.467  -1.347  -1.933  0.00  0.00    +0.005 A 
ENDBRANCH   6  13
ENDBRANCH   2   6
ENDBRANCH   1   4
BRANCH   1  19
ATOM     19  C   UNL     1      -0.330   0.295   5.041  0.00  0.00    +0.249 C 
ATOM     20  O   UNL     1       0.745   0.825   4.852  0.00  0.00    -0.272 OA
ATOM     21  N   UNL     1      -0.798   0.148   6.297  0.00  0.00    -0.206 N 
ATOM     22  H   UNL     1      -1.657  -0.275   6.448  0.00  0.00    +0.177 HD
BRANCH  21  23
ATOM     23  N   UNL     1      -0.042   0.608   7.383  0.00  0.00    -0.185 NA
ATOM     24  C   UNL     1      -0.440   0.371   8.600  0.00  0.00    +0.176 C 
BRANCH  24  25
ATOM     25  C   UNL     1      -1.739  -0.263   8.834  0.00  0.00    +0.148 A 
ATOM     26  C   UNL     1      -2.329  -0.468  10.062  0.00  0.00    +0.051 A 
ATOM     27  C   UNL     1      -3.556  -1.100   9.821  0.00  0.00    +0.050 A 
ATOM     28  C   UNL     1      -3.668  -1.255   8.471  0.00  0.00    +0.136 A 
ATOM     29  O   UNL     1      -2.570  -0.742   7.885  0.00  0.00    -0.454 OA
BRANCH  28  30
ATOM     30  C   UNL     1      -4.808  -1.876   7.767  0.00  0.00    +0.017 A 
ATOM     31  C   UNL     1      -5.894  -2.372   8.492  0.00  0.00    +0.012 A 
ATOM     32  C   UNL     1      -6.958  -2.946   7.829  0.00  0.00    +0.016 A 
ATOM     33  C   UNL     1      -6.946  -3.041   6.447  0.00  0.00    +0.018 A 
ATOM     34  C   UNL     1      -5.870  -2.556   5.723  0.00  0.00    +0.016 A 
ATOM     35  C   UNL     1      -4.802  -1.975   6.374  0.00  0.00    +0.012 A 
ATOM     36 BR   UNL     1      -8.406  -3.836   5.546  0.00  0.00    -0.050 Br
ENDBRANCH  28  30
ENDBRANCH  24  25
ENDBRANCH  21  23
ENDBRANCH   1  19
TORSDOF 8
