REMARK  Name = ZINC15289097
REMARK  8 active torsions:
REMARK  status: ('A' for Active; 'I' for Inactive)
REMARK    1  A    between atoms: C_1  and  C_2
REMARK    2  A    between atoms: N_5  and  S_11
REMARK    3  A    between atoms: C_7  and  C_10
REMARK    4  A    between atoms: S_11  and  C_14
REMARK    5  A    between atoms: C_17  and  N_20
REMARK    6  A    between atoms: C_21  and  C_23
REMARK    7  A    between atoms: C_23  and  N_24
REMARK    8  A    between atoms: N_24  and  C_25
REMARK                            x       y       z     vdW  Elec       q    Type
REMARK                         _______ _______ _______ _____ _____    ______ ____
ROOT
ATOM      1  C   UNL     1      -1.165  -3.411  -2.163  0.00  0.00    +0.106 A 
ATOM      2  C   UNL     1      -1.266  -2.728  -3.361  0.00  0.00    +0.030 A 
ATOM      3  C   UNL     1      -0.422  -3.039  -4.409  0.00  0.00    +0.025 A 
ATOM      4  C   UNL     1       0.529  -4.040  -4.259  0.00  0.00    +0.034 A 
ATOM      5  C   UNL     1       0.628  -4.724  -3.055  0.00  0.00    +0.025 A 
ATOM      6  C   UNL     1      -0.216  -4.405  -2.009  0.00  0.00    +0.030 A 
ENDROOT
BRANCH   4   7
ATOM      7  N   UNL     1       1.385  -4.358  -5.319  0.00  0.00    -0.284 N 
ATOM      8  C   UNL     1       1.793  -3.394  -6.168  0.00  0.00    +0.234 C 
ATOM      9  O   UNL     1       1.497  -2.237  -5.959  0.00  0.00    -0.274 OA
ATOM     10  H   UNL     1       1.685  -5.272  -5.442  0.00  0.00    +0.155 HD
BRANCH   8  11
ATOM     11  C   UNL     1       2.617  -3.755  -7.377  0.00  0.00    +0.198 C 
BRANCH  11  12
ATOM     12  N   UNL     1       2.931  -2.541  -8.134  0.00  0.00    -0.334 N 
ATOM     13  H   UNL     1       2.611  -1.679  -7.823  0.00  0.00    +0.147 HD
BRANCH  12  14
ATOM     14  C   UNL     1       3.692  -2.623  -9.304  0.00  0.00    +0.047 A 
ATOM     15  C   UNL     1       4.145  -3.856  -9.753  0.00  0.00    +0.044 A 
ATOM     16  C   UNL     1       4.897  -3.935 -10.910  0.00  0.00    +0.043 A 
ATOM     17  C   UNL     1       5.198  -2.786 -11.621  0.00  0.00    +0.021 A 
ATOM     18  C   UNL     1       4.748  -1.556 -11.176  0.00  0.00    +0.023 A 
ATOM     19  C   UNL     1       3.990  -1.472 -10.023  0.00  0.00    +0.062 A 
ATOM     20 CL   UNL     1       3.419   0.071  -9.470  0.00  0.00    -0.082 Cl
ATOM     21 CL   UNL     1       5.465  -5.476 -11.473  0.00  0.00    -0.083 Cl
ENDBRANCH  12  14
ENDBRANCH  11  12
ENDBRANCH   8  11
ENDBRANCH   4   7
BRANCH   1  22
ATOM     22  S   UNL     1      -2.244  -3.011  -0.829  0.00  0.00    +0.061 S 
ATOM     23  O   UNL     1      -2.307  -4.162   0.002  0.00  0.00    -0.153 OA
ATOM     24  O   UNL     1      -3.402  -2.424  -1.405  0.00  0.00    -0.153 OA
BRANCH  22  28
ATOM     25  C   UNL     1      -0.548   1.794  -0.481  0.00  0.00    +0.039 C 
ATOM     26  C   UNL     1      -0.354   0.282  -0.356  0.00  0.00    +0.131 C 
ATOM     27  C   UNL     1      -1.721  -0.403  -0.246  0.00  0.00    +0.140 C 
ATOM     28  N   UNL     1      -1.504  -1.826   0.060  0.00  0.00    -0.172 NA
ATOM     29  C   UNL     1      -0.612  -2.164   1.179  0.00  0.00    +0.140 C 
ATOM     30  C   UNL     1       0.702  -1.393   1.000  0.00  0.00    +0.131 C 
ATOM     31  O   UNL     1       0.413  -0.006   0.816  0.00  0.00    -0.371 OA
ATOM     32  C   UNL     1       1.445  -1.928  -0.226  0.00  0.00    +0.039 C 
ENDBRANCH  22  28
ENDBRANCH   1  22
TORSDOF 6
