REMARK  Name = ZINC20855269
REMARK  6 active torsions:
REMARK  status: ('A' for Active; 'I' for Inactive)
REMARK    1  A    between atoms: C_1  and  C_2
REMARK    2  A    between atoms: C_2  and  O_3
REMARK    3  A    between atoms: O_3  and  C_4
REMARK    4  A    between atoms: C_6  and  C_11
REMARK    5  A    between atoms: C_9  and  O_10
REMARK    6  A    between atoms: C_14  and  C_22
REMARK                            x       y       z     vdW  Elec       q    Type
REMARK                         _______ _______ _______ _____ _____    ______ ____
ROOT
ATOM      1  C   UNL     1      -0.654  -3.162  -1.517  0.00  0.00    +0.138 C 
ATOM      2  C   UNL     1      -1.302  -2.122  -0.645  0.00  0.00    +0.038 A 
ATOM      3  C   UNL     1      -1.184  -0.888   0.008  0.00  0.00    +0.133 A 
ATOM      4  N   UNL     1      -2.324  -0.663   0.634  0.00  0.00    -0.170 NA
ATOM      5  N   UNL     1      -3.151  -1.626   0.433  0.00  0.00    -0.272 N 
ATOM      6  H   UNL     1      -4.155  -1.591   0.880  0.00  0.00    +0.189 HD
ATOM      7  C   UNL     1      -2.574  -2.579  -0.359  0.00  0.00    +0.126 A 
ATOM      8  C   UNL     1      -2.763  -3.876  -1.018  0.00  0.00    +0.263 C 
ATOM      9  O   UNL     1      -3.779  -4.542  -0.961  0.00  0.00    -0.269 OA
ATOM     10  N   UNL     1      -1.653  -4.224  -1.694  0.00  0.00    -0.299 N 
ATOM     11  H   UNL     1      -1.414  -5.109  -2.302  0.00  0.00    +0.150 HD
ENDROOT
BRANCH   1  14
ATOM     12  C   UNL     1       2.958  -3.759  -0.587  0.00  0.00    +0.162 A 
ATOM     13  C   UNL     1       1.827  -3.253  -1.207  0.00  0.00    +0.055 A 
ATOM     14  C   UNL     1       0.575  -3.713  -0.842  0.00  0.00    -0.019 A 
ATOM     15  C   UNL     1       0.448  -4.673   0.145  0.00  0.00    +0.009 A 
ATOM     16  C   UNL     1       1.573  -5.185   0.764  0.00  0.00    +0.049 A 
ATOM     17  C   UNL     1       2.830  -4.729   0.403  0.00  0.00    +0.158 A 
BRANCH  17  18
ATOM     18  O   UNL     1       3.938  -5.228   1.015  0.00  0.00    -0.503 OA
ATOM     19  H   UNL     1       3.836  -5.995   1.797  0.00  0.00    +0.292 HD
ENDBRANCH  17  18
BRANCH  12  20
ATOM     20  O   UNL     1       4.190  -3.308  -0.944  0.00  0.00    -0.489 OA
BRANCH  20  22
ATOM     21  C   UNL     1       5.703  -1.931  -2.231  0.00  0.00    +0.048 C 
ATOM     22  C   UNL     1       4.245  -2.311  -1.966  0.00  0.00    +0.226 C 
ENDBRANCH  20  22
ENDBRANCH  12  20
ENDBRANCH   1  14
BRANCH   3  23
ATOM     23  C   UNL     1       0.002  -0.004   0.002  0.00  0.00    +0.155 A 
ATOM     24  C   UNL     1      -0.016   1.355   0.009  0.00  0.00    +0.051 A 
ATOM     25  C   UNL     1       1.328   1.779  -0.001  0.00  0.00    +0.042 A 
ATOM     26  C   UNL     1       2.092   0.670  -0.014  0.00  0.00    +0.196 A 
ATOM     27  O   UNL     1       1.287  -0.406  -0.012  0.00  0.00    -0.461 OA
ENDBRANCH   3  23
TORSDOF 5
