REMARK  Name = ZINC39561024
REMARK  7 active torsions:
REMARK  status: ('A' for Active; 'I' for Inactive)
REMARK    1  A    between atoms: C_1  and  C_2
REMARK    2  A    between atoms: C_5  and  C_8
REMARK    3  A    between atoms: C_14  and  C_16
REMARK    4  A    between atoms: C_16  and  O_17
REMARK    5  A    between atoms: O_17  and  C_18
REMARK    6  A    between atoms: C_18  and  C_20
REMARK    7  A    between atoms: C_22  and  N_28
REMARK                            x       y       z     vdW  Elec       q    Type
REMARK                         _______ _______ _______ _____ _____    ______ ____
ROOT
ATOM      1  C   UNL     1       0.060  -4.255  -0.021  0.00  0.00    +0.080 A 
ATOM      2  C   UNL     1       0.070  -4.952   1.155  0.00  0.00    +0.076 A 
ATOM      3  S   UNL     1       0.092  -6.632   0.545  0.00  0.00    -0.060 S 
ATOM      4  C   UNL     1       0.085  -6.237  -1.198  0.00  0.00    +0.165 A 
ATOM      5  N   UNL     1       0.062  -4.918  -1.169  0.00  0.00    -0.225 NA
ATOM      6  N   UNL     1       0.095  -7.092  -2.294  0.00  0.00    -0.262 N 
ATOM      7  C   UNL     1       0.113  -8.426  -2.107  0.00  0.00    +0.256 C 
ATOM      8  O   UNL     1       0.119  -8.881  -0.983  0.00  0.00    -0.272 OA
ATOM      9  H   UNL     1       0.090  -6.728  -3.193  0.00  0.00    +0.157 HD
ENDROOT
BRANCH   1  14
ATOM     10  C   UNL     1      -0.018   1.503   0.010  0.00  0.00    +0.044 C 
ATOM     11  C   UNL     1       0.002  -0.004   0.002  0.00  0.00    -0.050 A 
ATOM     12  C   UNL     1       0.006  -0.686  -1.201  0.00  0.00    +0.004 A 
ATOM     13  C   UNL     1       0.024  -2.066  -1.215  0.00  0.00    +0.010 A 
ATOM     14  C   UNL     1       0.040  -2.772  -0.013  0.00  0.00    +0.001 A 
ATOM     15  C   UNL     1       0.037  -2.079   1.196  0.00  0.00    +0.010 A 
ATOM     16  C   UNL     1       0.023  -0.700   1.198  0.00  0.00    +0.004 A 
ENDBRANCH   1  14
BRANCH   7  17
ATOM     17  C   UNL     1       0.124  -9.353  -3.295  0.00  0.00    +0.328 C 
BRANCH  17  18
ATOM     18  O   UNL     1       0.142 -10.709  -2.842  0.00  0.00    -0.451 OA
BRANCH  18  19
ATOM     19  C   UNL     1       0.154 -11.669  -3.786  0.00  0.00    +0.360 C 
ATOM     20  O   UNL     1       0.149 -11.365  -4.962  0.00  0.00    -0.243 OA
BRANCH  19  21
ATOM     21  C   UNL     1       0.172 -13.094  -3.391  0.00  0.00    +0.169 A 
ATOM     22  C   UNL     1       0.191 -14.082  -4.372  0.00  0.00    +0.095 A 
ATOM     23  C   UNL     1       0.208 -15.422  -3.983  0.00  0.00    +0.067 A 
ATOM     24  C   UNL     1       0.208 -15.715  -2.620  0.00  0.00    +0.100 A 
ATOM     25  C   UNL     1       0.189 -14.675  -1.703  0.00  0.00    +0.150 A 
ATOM     26  N   UNL     1       0.177 -13.420  -2.102  0.00  0.00    -0.226 NA
ATOM     27 CL   UNL     1       0.188 -15.033  -0.005  0.00  0.00    -0.060 Cl
ATOM     28 CL   UNL     1       0.229 -17.363  -2.077  0.00  0.00    -0.078 Cl
ATOM     29 CL   UNL     1       0.190 -13.653  -6.054  0.00  0.00    -0.079 Cl
BRANCH  23  30
ATOM     30  N   UNL     1       0.226 -16.441  -4.932  0.00  0.00    -0.356 N 
ATOM     31  H   UNL     1       0.227 -16.224  -5.878  0.00  0.00    +0.142 HD
ATOM     32  H   UNL     1       0.239 -17.369  -4.648  0.00  0.00    +0.142 HD
ENDBRANCH  23  30
ENDBRANCH  19  21
ENDBRANCH  18  19
ENDBRANCH  17  18
ENDBRANCH   7  17
TORSDOF 6
