REMARK  Name = ZINC20498008
REMARK  5 active torsions:
REMARK  status: ('A' for Active; 'I' for Inactive)
REMARK    1  A    between atoms: C_3  and  C_8
REMARK    2  A    between atoms: N_10  and  C_11
REMARK    3  A    between atoms: C_11  and  N_13
REMARK    4  A    between atoms: N_13  and  C_14
REMARK    5  A    between atoms: C_21  and  C_23
REMARK                            x       y       z     vdW  Elec       q    Type
REMARK                         _______ _______ _______ _____ _____    ______ ____
ROOT
ATOM      1  C   UNL     1      -1.222   1.762   0.024  0.00  0.00    +0.035 A 
ATOM      2  C   UNL     1      -1.238   3.132  -0.230  0.00  0.00    +0.027 A 
ATOM      3  C   UNL     1      -0.064   3.855  -0.234  0.00  0.00    +0.050 A 
ATOM      4  C   UNL     1       1.142   3.220   0.021  0.00  0.00    +0.156 A 
ATOM      5  C   UNL     1       1.166   1.840   0.283  0.00  0.00    +0.112 A 
ATOM      6  C   UNL     1      -0.028   1.115   0.285  0.00  0.00    +0.054 A 
ATOM      7  N   UNL     1       2.465   1.505   0.492  0.00  0.00    -0.209 NA
ATOM      8  C   UNL     1       3.201   2.581   0.373  0.00  0.00    +0.230 A 
ATOM      9  O   UNL     1       2.425   3.643   0.086  0.00  0.00    -0.435 OA
ENDROOT
BRANCH   8  10
ATOM     10  C   UNL     1       4.670   2.623   0.530  0.00  0.00    +0.056 A 
ATOM     11  C   UNL     1       5.357   3.829   0.380  0.00  0.00    +0.030 A 
ATOM     12  C   UNL     1       6.729   3.862   0.529  0.00  0.00    +0.019 A 
ATOM     13  C   UNL     1       7.424   2.702   0.826  0.00  0.00    +0.017 A 
ATOM     14  C   UNL     1       6.750   1.504   0.977  0.00  0.00    +0.022 A 
ATOM     15  C   UNL     1       5.377   1.458   0.836  0.00  0.00    +0.053 A 
ATOM     16 CL   UNL     1       4.532  -0.046   1.031  0.00  0.00    -0.083 Cl
ATOM     17 BR   UNL     1       7.661   5.495   0.326  0.00  0.00    -0.050 Br
ENDBRANCH   8  10
BRANCH   1  18
ATOM     18  N   UNL     1      -2.421   1.038   0.019  0.00  0.00    -0.297 N 
ATOM     19  H   UNL     1      -2.607   0.277   0.791  0.00  0.00    +0.154 HD
BRANCH  18  20
ATOM     20  C   UNL     1      -3.347   1.274  -0.931  0.00  0.00    +0.141 C 
ATOM     21  S   UNL     1      -3.001   2.355  -2.213  0.00  0.00    -0.018 S 
BRANCH  20  24
ATOM     22  C   UNL     1      -5.471   0.896  -1.823  0.00  0.00    +0.250 C 
ATOM     23  O   UNL     1      -5.226   1.663  -2.733  0.00  0.00    -0.270 OA
ATOM     24  N   UNL     1      -4.545   0.660  -0.873  0.00  0.00    -0.264 N 
ATOM     25  H   UNL     1      -4.767  -0.035  -0.049  0.00  0.00    +0.157 HD
BRANCH  22  28
ATOM     26  C   UNL     1      -8.297  -1.287  -0.659  0.00  0.00    +0.004 A 
ATOM     27  C   UNL     1      -7.067  -0.664  -0.718  0.00  0.00    +0.013 A 
ATOM     28  C   UNL     1      -6.784   0.222  -1.758  0.00  0.00    +0.040 A 
ATOM     29  C   UNL     1      -7.745   0.464  -2.741  0.00  0.00    +0.051 A 
ATOM     30  C   UNL     1      -8.971  -0.170  -2.675  0.00  0.00    +0.124 A 
ATOM     31  C   UNL     1      -9.246  -1.044  -1.635  0.00  0.00    +0.038 A 
ATOM     32  F   UNL     1      -9.903   0.063  -3.625  0.00  0.00    -0.205 F 
ENDBRANCH  22  28
ENDBRANCH  20  24
ENDBRANCH  18  20
ENDBRANCH   1  18
TORSDOF 5
