REMARK  Name = ZINC65395810
REMARK  6 active torsions:
REMARK  status: ('A' for Active; 'I' for Inactive)
REMARK    1  A    between atoms: C_1  and  C_2
REMARK    2  A    between atoms: C_5  and  C_9
REMARK    3  A    between atoms: C_15  and  C_18
REMARK    4  A    between atoms: C_18  and  O_20
REMARK    5  A    between atoms: O_20  and  C_21
REMARK    6  A    between atoms: N_24  and  C_27
REMARK                            x       y       z     vdW  Elec       q    Type
REMARK                         _______ _______ _______ _____ _____    ______ ____
ROOT
ATOM      1  C   UNL     1       0.058  -4.277  -0.021  0.00  0.00    +0.097 C 
ATOM      2  C   UNL     1      -1.350  -4.834   0.273  0.00  0.00    +0.111 C 
ATOM      3  C   UNL     1      -1.105  -6.095   1.145  0.00  0.00    +0.117 C 
ATOM      4  C   UNL     1       0.429  -6.189   1.282  0.00  0.00    +0.177 C 
ATOM      5  N   UNL     1       0.908  -4.790   1.083  0.00  0.00    -0.296 NA
ATOM      6  C   UNL     1      -1.716  -5.722   2.477  0.00  0.00    +0.227 C 
ATOM      7  O   UNL     1      -1.743  -6.433   3.459  0.00  0.00    -0.275 OA
ATOM      8  N   UNL     1      -2.221  -4.485   2.403  0.00  0.00    -0.245 N 
ATOM      9  C   UNL     1      -2.077  -3.885   1.199  0.00  0.00    +0.227 C 
ATOM     10  O   UNL     1      -2.461  -2.774   0.903  0.00  0.00    -0.275 OA
ATOM     11  C   UNL     1      -2.885  -3.831   3.534  0.00  0.00    +0.141 C 
ATOM     12  H   UNL     1       1.883  -4.777   0.825  0.00  0.00    +0.123 HD
ENDROOT
BRANCH   1  17
ATOM     13  C   UNL     1      -0.018   1.503   0.010  0.00  0.00    +0.047 C 
ATOM     14  C   UNL     1       0.002  -0.004   0.002  0.00  0.00    -0.014 A 
ATOM     15  C   UNL     1       0.006  -0.689  -1.200  0.00  0.00    +0.046 A 
ATOM     16  C   UNL     1       0.025  -2.073  -1.207  0.00  0.00    +0.025 A 
ATOM     17  C   UNL     1       0.039  -2.770  -0.013  0.00  0.00    -0.027 A 
ATOM     18  C   UNL     1       0.035  -2.086   1.188  0.00  0.00    +0.025 A 
ATOM     19  C   UNL     1       0.023  -0.702   1.196  0.00  0.00    +0.046 A 
ATOM     20 CL   UNL     1       0.026   0.157   2.704  0.00  0.00    -0.083 Cl
ATOM     21 CL   UNL     1      -0.014   0.186  -2.699  0.00  0.00    -0.083 Cl
ENDBRANCH   1  17
BRANCH   4  22
ATOM     22  C   UNL     1       0.804  -6.669   2.661  0.00  0.00    +0.325 C 
ATOM     23  O   UNL     1       1.161  -5.876   3.500  0.00  0.00    -0.249 OA
BRANCH  22  24
ATOM     24  O   UNL     1       0.742  -7.977   2.956  0.00  0.00    -0.467 OA
ATOM     25  C   UNL     1       1.112  -8.361   4.282  0.00  0.00    +0.280 C 
ENDBRANCH  22  24
ENDBRANCH   4  22
TORSDOF 3
