REMARK  Name = ZINC38551071
REMARK  7 active torsions:
REMARK  status: ('A' for Active; 'I' for Inactive)
REMARK    1  A    between atoms: C_1  and  C_2
REMARK    2  A    between atoms: C_6  and  N_8
REMARK    3  A    between atoms: N_8  and  C_9
REMARK    4  A    between atoms: C_9  and  C_11
REMARK    5  A    between atoms: C_9  and  C_18
REMARK    6  A    between atoms: C_22  and  N_23
REMARK    7  A    between atoms: C_24  and  C_26
REMARK                            x       y       z     vdW  Elec       q    Type
REMARK                         _______ _______ _______ _____ _____    ______ ____
ROOT
ATOM      1  C   UNL     1       0.369  -4.524   2.225  0.00  0.00    +0.135 C 
ENDROOT
BRANCH   1   2
ATOM      2  C   UNL     1      -0.576  -4.838   3.357  0.00  0.00    +0.009 A 
ATOM      3  C   UNL     1      -1.748  -5.553   3.111  0.00  0.00    -0.030 A 
ATOM      4  C   UNL     1      -2.549  -5.797   4.183  0.00  0.00    -0.005 A 
ATOM      5  S   UNL     1      -1.689  -5.043   5.537  0.00  0.00    -0.078 S 
ATOM      6  C   UNL     1      -0.284  -4.431   4.621  0.00  0.00    +0.078 A 
ATOM      7  C   UNL     1      -3.851  -6.531   4.199  0.00  0.00    +0.043 C 
ATOM      8  C   UNL     1      -4.348  -6.664   2.751  0.00  0.00    +0.005 C 
ATOM      9  C   UNL     1      -3.191  -7.156   1.877  0.00  0.00    +0.005 C 
ATOM     10  C   UNL     1      -2.145  -6.051   1.724  0.00  0.00    +0.036 C 
BRANCH   6  11
ATOM     11  N   UNL     1       0.825  -3.717   5.082  0.00  0.00    -0.273 N 
ATOM     12  C   UNL     1       0.994  -3.516   6.404  0.00  0.00    +0.284 C 
ATOM     13  O   UNL     1       0.181  -3.956   7.196  0.00  0.00    -0.266 OA
ATOM     14  H   UNL     1       1.472  -3.367   4.451  0.00  0.00    +0.156 HD
BRANCH  12  15
ATOM     15  C   UNL     1       2.158  -2.767   6.888  0.00  0.00    +0.189 A 
ATOM     16  C   UNL     1       2.451  -2.497   8.194  0.00  0.00    +0.054 A 
ATOM     17  C   UNL     1       3.647  -1.762   8.195  0.00  0.00    +0.042 A 
ATOM     18  C   UNL     1       4.027  -1.618   6.906  0.00  0.00    +0.196 A 
ATOM     19  O   UNL     1       3.129  -2.229   6.122  0.00  0.00    -0.458 OA
ENDBRANCH  12  15
ENDBRANCH   6  11
ENDBRANCH   1   2
BRANCH   1  20
ATOM     20  C   UNL     1       1.579  -5.417   2.318  0.00  0.00    -0.023 A 
ATOM     21  C   UNL     1       2.684  -5.010   3.043  0.00  0.00    +0.008 A 
ATOM     22  C   UNL     1       3.794  -5.829   3.129  0.00  0.00    +0.038 A 
ATOM     23  C   UNL     1       3.799  -7.057   2.489  0.00  0.00    +0.123 A 
ATOM     24  C   UNL     1       2.692  -7.463   1.763  0.00  0.00    +0.038 A 
ATOM     25  C   UNL     1       1.581  -6.645   1.683  0.00  0.00    +0.008 A 
ATOM     26  F   UNL     1       4.884  -7.858   2.572  0.00  0.00    -0.205 F 
ENDBRANCH   1  20
BRANCH   1  27
ATOM     27  N   UNL     1       0.788  -3.123   2.314  0.00  0.00    -0.320 N 
ATOM     28  H   UNL     1       0.581  -2.604   3.107  0.00  0.00    +0.148 HD
BRANCH  27  34
ATOM     29  C   UNL     1       2.924   0.768   0.519  0.00  0.00    +0.063 C 
ATOM     30  C   UNL     1       2.519  -0.676   0.372  0.00  0.00    +0.014 A 
ATOM     31  C   UNL     1       2.843  -1.361  -0.782  0.00  0.00    +0.021 A 
ATOM     32  C   UNL     1       2.467  -2.691  -0.912  0.00  0.00    +0.005 A 
ATOM     33  C   UNL     1       1.776  -3.287   0.128  0.00  0.00    +0.041 A 
ATOM     34  C   UNL     1       1.482  -2.537   1.262  0.00  0.00    +0.097 A 
ATOM     35  N   UNL     1       1.863  -1.272   1.350  0.00  0.00    -0.347 N 
ATOM     36  H   UNL     1       1.652  -0.769   2.152  0.00  0.00    +0.167 HD
ENDBRANCH  27  34
ENDBRANCH   1  27
TORSDOF 6
