REMARK  Name = ZINC20569167
REMARK  9 active torsions:
REMARK  status: ('A' for Active; 'I' for Inactive)
REMARK    1  A    between atoms: C_1  and  C_2
REMARK    2  A    between atoms: C_3  and  C_35
REMARK    3  A    between atoms: C_5  and  C_32
REMARK    4  A    between atoms: C_7  and  C_10
REMARK    5  A    between atoms: N_12  and  C_13
REMARK    6  A    between atoms: C_14  and  C_28
REMARK    7  A    between atoms: C_15  and  C_18
REMARK    8  A    between atoms: C_28  and  O_30
REMARK    9  A    between atoms: O_30  and  C_31
REMARK                            x       y       z     vdW  Elec       q    Type
REMARK                         _______ _______ _______ _____ _____    ______ ____
ROOT
ATOM      1  C   UNL     1      -3.530   6.577   0.885  0.00  0.00    +0.086 A 
ATOM      2  C   UNL     1      -2.319   5.904   0.973  0.00  0.00    +0.095 A 
ATOM      3  C   UNL     1      -1.514   5.846  -0.233  0.00  0.00    +0.006 A 
ATOM      4  C   UNL     1      -2.020   6.463  -1.334  0.00  0.00    +0.056 A 
ATOM      5  S   UNL     1      -3.577   7.111  -0.761  0.00  0.00    -0.080 S 
ENDROOT
BRANCH   3   6
ATOM      6  C   UNL     1      -0.205   5.157  -0.261  0.00  0.00    -0.009 A 
ATOM      7  C   UNL     1       0.959   5.875  -0.477  0.00  0.00    +0.009 A 
ATOM      8  C   UNL     1       2.192   5.234  -0.505  0.00  0.00    +0.001 A 
ATOM      9  C   UNL     1       2.291   3.888  -0.322  0.00  0.00    +0.008 A 
ATOM     10  C   UNL     1       1.135   3.120  -0.099  0.00  0.00    -0.017 A 
ATOM     11  C   UNL     1      -0.130   3.757  -0.067  0.00  0.00    -0.010 A 
ATOM     12  C   UNL     1      -1.282   2.990   0.154  0.00  0.00    +0.009 A 
ATOM     13  C   UNL     1      -1.173   1.644   0.331  0.00  0.00    +0.001 A 
ATOM     14  C   UNL     1       0.071   1.016   0.306  0.00  0.00    +0.001 A 
ATOM     15  C   UNL     1       1.210   1.730   0.093  0.00  0.00    +0.008 A 
ENDBRANCH   3   6
BRANCH   1  18
ATOM     16  C   UNL     1      -5.604   7.461   1.607  0.00  0.00    +0.222 C 
ATOM     17  O   UNL     1      -5.791   7.905   0.494  0.00  0.00    -0.275 OA
ATOM     18  N   UNL     1      -4.476   6.775   1.878  0.00  0.00    -0.279 N 
ATOM     19  H   UNL     1      -4.306   6.372   2.887  0.00  0.00    +0.155 HD
BRANCH  16  25
ATOM     20  C   UNL     1      -8.401  10.583   0.846  0.00  0.00    +0.039 C 
ATOM     21  C   UNL     1      -8.068   9.203   1.350  0.00  0.00    -0.073 C 
ATOM     22  C   UNL     1      -8.540   8.189   0.699  0.00  0.00    -0.073 C 
ATOM     23  C   UNL     1      -8.286   6.758   1.072  0.00  0.00    +0.046 C 
ATOM     24  C   UNL     1      -7.779   6.671   2.514  0.00  0.00    +0.118 C 
ATOM     25  C   UNL     1      -6.633   7.676   2.686  0.00  0.00    +0.093 C 
ATOM     26  C   UNL     1      -7.208   9.089   2.575  0.00  0.00    +0.044 C 
ATOM     27  C   UNL     1      -9.399   8.462  -0.509  0.00  0.00    +0.039 C 
BRANCH  24  28
ATOM     28  C   UNL     1      -7.277   5.277   2.792  0.00  0.00    +0.360 C 
ATOM     29  O   UNL     1      -6.121   5.101   3.096  0.00  0.00    -0.246 OA
ATOM     30  O   UNL     1      -8.114   4.232   2.700  0.00  0.00    -0.246 OA
ENDBRANCH  24  28
ENDBRANCH  16  25
ENDBRANCH   1  18
BRANCH   2  31
ATOM     31  C   UNL     1      -1.876   5.283   2.221  0.00  0.00    +0.342 C 
ATOM     32  O   UNL     1      -1.214   5.921   3.017  0.00  0.00    -0.245 OA
BRANCH  31  33
ATOM     33  O   UNL     1      -2.203   4.001   2.490  0.00  0.00    -0.464 OA
ATOM     34  C   UNL     1      -1.729   3.450   3.747  0.00  0.00    +0.280 C 
ENDBRANCH  31  33
ENDBRANCH   2  31
TORSDOF 6
