REMARK  Name = ZINC00930571
REMARK  9 active torsions:
REMARK  status: ('A' for Active; 'I' for Inactive)
REMARK    1  A    between atoms: C_1  and  C_2
REMARK    2  A    between atoms: C_2  and  N_3
REMARK    3  A    between atoms: C_4  and  C_21
REMARK    4  A    between atoms: C_7  and  S_8
REMARK    5  A    between atoms: S_8  and  C_9
REMARK    6  A    between atoms: C_9  and  C_10
REMARK    7  A    between atoms: N_12  and  C_13
REMARK    8  A    between atoms: C_16  and  C_20
REMARK    9  A    between atoms: C_17  and  N_19
REMARK                            x       y       z     vdW  Elec       q    Type
REMARK                         _______ _______ _______ _____ _____    ______ ____
ROOT
ATOM      1  S   UNL     1      -1.038   4.721   0.415  0.00  0.00    -0.077 S 
ENDROOT
BRANCH   1   6
ATOM      2  N   UNL     1      -0.648   1.965   0.136  0.00  0.00    -0.302 N 
ATOM      3  C   UNL     1       0.429   1.130  -0.056  0.00  0.00    +0.165 A 
ATOM      4  N   UNL     1       1.498   1.889  -0.123  0.00  0.00    -0.128 NA
ATOM      5  N   UNL     1       1.169   3.124   0.018  0.00  0.00    -0.122 NA
ATOM      6  C   UNL     1      -0.131   3.228   0.183  0.00  0.00    +0.192 A 
BRANCH   3   7
ATOM      7  C   UNL     1       0.388  -0.343  -0.172  0.00  0.00    +0.019 A 
ATOM      8  C   UNL     1      -0.728  -1.051   0.276  0.00  0.00    +0.013 A 
ATOM      9  C   UNL     1      -0.762  -2.425   0.161  0.00  0.00    +0.021 A 
ATOM     10  C   UNL     1       0.313  -3.103  -0.388  0.00  0.00    +0.041 A 
ATOM     11  C   UNL     1       1.426  -2.407  -0.829  0.00  0.00    +0.021 A 
ATOM     12  C   UNL     1       1.470  -1.032  -0.724  0.00  0.00    +0.013 A 
ATOM     13 CL   UNL     1       0.266  -4.833  -0.523  0.00  0.00    -0.084 Cl
ENDBRANCH   3   7
BRANCH   2  15
ATOM     14  C   UNL     1      -2.385   1.347   1.742  0.00  0.00    +0.027 C 
ATOM     15  C   UNL     1      -2.055   1.579   0.267  0.00  0.00    +0.122 C 
ENDBRANCH   2  15
ENDBRANCH   1   6
BRANCH   1  16
ATOM     16  C   UNL     1       0.314   5.923   0.350  0.00  0.00    +0.173 C 
BRANCH  16  17
ATOM     17  C   UNL     1      -0.241   7.313   0.531  0.00  0.00    +0.227 C 
ATOM     18  O   UNL     1      -1.433   7.474   0.687  0.00  0.00    -0.275 OA
ATOM     19  N   UNL     1       0.587   8.376   0.518  0.00  0.00    -0.285 N 
ATOM     20  H   UNL     1       1.530   8.254   0.325  0.00  0.00    +0.155 HD
BRANCH  19  21
ATOM     21  C   UNL     1       0.087   9.656   0.784  0.00  0.00    +0.035 A 
ATOM     22  C   UNL     1       0.628  10.761   0.139  0.00  0.00    +0.024 A 
ATOM     23  C   UNL     1       0.132  12.024   0.397  0.00  0.00    +0.007 A 
ATOM     24  C   UNL     1      -0.896  12.194   1.304  0.00  0.00    -0.030 A 
ATOM     25  C   UNL     1      -1.439  11.093   1.956  0.00  0.00    +0.029 A 
ATOM     26  C   UNL     1      -0.946   9.822   1.695  0.00  0.00    +0.046 A 
ATOM     27  C   UNL     1      -1.431  13.575   1.586  0.00  0.00    +0.045 C 
BRANCH  25  28
ATOM     28  N   UNL     1      -2.479  11.265   2.872  0.00  0.00    -0.358 N 
ATOM     29  H   UNL     1      -2.857  10.496   3.326  0.00  0.00    +0.142 HD
ATOM     30  H   UNL     1      -2.823  12.154   3.054  0.00  0.00    +0.142 HD
ENDBRANCH  25  28
ENDBRANCH  19  21
ENDBRANCH  16  17
ENDBRANCH   1  16
TORSDOF 7
