REMARK  Name = ZINC06194616
REMARK  13 active torsions:
REMARK  status: ('A' for Active; 'I' for Inactive)
REMARK    1  A    between atoms: C_1  and  C_2
REMARK    2  A    between atoms: C_2  and  O_3
REMARK    3  A    between atoms: O_3  and  C_4
REMARK    4  A    between atoms: C_4  and  C_6
REMARK    5  A    between atoms: C_11  and  C_13
REMARK    6  A    between atoms: C_11  and  C_27
REMARK    7  A    between atoms: C_11  and  N_73
REMARK    8  A    between atoms: C_17  and  C_26
REMARK    9  A    between atoms: C_18  and  C_25
REMARK   10  A    between atoms: N_31  and  C_32
REMARK   11  A    between atoms: C_32  and  C_33
REMARK   12  A    between atoms: C_36  and  O_39
REMARK   13  A    between atoms: O_39  and  C_40
REMARK                            x       y       z     vdW  Elec       q    Type
REMARK                         _______ _______ _______ _____ _____    ______ ____
ROOT
ATOM      1  C   UNL     1       1.715   2.133   2.522  0.00  0.00    +0.039 C 
ENDROOT
BRANCH   1   2
ATOM      2  C   UNL     1       1.380   3.493   3.077  0.00  0.00    +0.011 A 
ATOM      3  C   UNL     1       1.489   4.590   2.288  0.00  0.00    +0.017 A 
ATOM      4  C   UNL     1       1.156   5.897   2.857  0.00  0.00    -0.001 A 
ATOM      5  C   UNL     1       1.249   7.065   2.092  0.00  0.00    +0.013 A 
ATOM      6  C   UNL     1       0.931   8.269   2.653  0.00  0.00    -0.047 A 
ATOM      7  C   UNL     1       0.516   8.345   3.976  0.00  0.00    -0.046 A 
ATOM      8  C   UNL     1       0.417   7.208   4.748  0.00  0.00    +0.030 A 
ATOM      9  C   UNL     1       0.736   5.970   4.199  0.00  0.00    +0.049 A 
ATOM     10  N   UNL     1       0.645   4.817   4.948  0.00  0.00    -0.322 N 
ATOM     11  H   UNL     1       0.350   4.871   5.902  0.00  0.00    +0.169 HD
ATOM     12  C   UNL     1       0.948   3.620   4.415  0.00  0.00    +0.251 A 
ATOM     13  O   UNL     1       0.852   2.620   5.105  0.00  0.00    -0.268 OA
ATOM     14  C   UNL     1       0.171   9.685   4.574  0.00  0.00    +0.044 C 
ATOM     15  C   UNL     1       1.032   9.527   1.829  0.00  0.00    +0.044 C 
ENDBRANCH   1   2
BRANCH   1  21
ATOM     16  C   UNL     1       5.429   0.439   3.793  0.00  0.00    +0.094 C 
ATOM     17  C   UNL     1       4.179  -0.445   3.731  0.00  0.00    -0.004 C 
ATOM     18  C   UNL     1       3.149   0.203   2.803  0.00  0.00    -0.077 C 
ATOM     19  C   UNL     1       3.978   2.417   3.334  0.00  0.00    -0.077 C 
ATOM     20  C   UNL     1       5.033   1.836   4.277  0.00  0.00    -0.004 C 
ATOM     21  N   UNL     1       2.792   1.534   3.337  0.00  0.00    +0.389 N 
ATOM     22  H   UNL     1       2.459   1.427   4.303  0.00  0.00    -0.080 HD
BRANCH  16  23
ATOM     23  C   UNL     1       6.424  -0.164   4.751  0.00  0.00    +0.310 C 
ATOM     24  O   UNL     1       6.162  -1.194   5.326  0.00  0.00    -0.251 OA
BRANCH  23  25
ATOM     25  O   UNL     1       7.602   0.443   4.966  0.00  0.00    -0.465 OA
BRANCH  25  27
ATOM     26  C   UNL     1       9.790   0.638   6.016  0.00  0.00    +0.048 C 
ATOM     27  C   UNL     1       8.511  -0.194   5.901  0.00  0.00    +0.229 C 
ENDBRANCH  25  27
ENDBRANCH  23  25
ENDBRANCH  16  23
ENDBRANCH   1  21
BRANCH   1  28
ATOM     28  C   UNL     1       2.151   2.270   1.086  0.00  0.00    +0.143 A 
ATOM     29  N   UNL     1       3.305   2.720   0.658  0.00  0.00    -0.115 NA
ATOM     30  N   UNL     1       3.292   2.687  -0.630  0.00  0.00    -0.023 NA
ATOM     31  N   UNL     1       2.162   2.222  -1.035  0.00  0.00    -0.044 NA
ATOM     32  N   UNL     1       1.432   1.949  -0.006  0.00  0.00    -0.226 N 
BRANCH  32  33
ATOM     33  C   UNL     1       0.074   1.401  -0.024  0.00  0.00    +0.182 C 
BRANCH  33  34
ATOM     34  C   UNL     1       0.140  -0.104  -0.000  0.00  0.00    -0.026 A 
ATOM     35  C   UNL     1       0.186  -0.812  -1.188  0.00  0.00    +0.009 A 
ATOM     36  C   UNL     1       0.253  -2.191  -1.169  0.00  0.00    +0.046 A 
ATOM     37  C   UNL     1       0.261  -2.868   0.042  0.00  0.00    +0.120 A 
ATOM     38  C   UNL     1       0.207  -2.156   1.232  0.00  0.00    +0.046 A 
ATOM     39  C   UNL     1       0.147  -0.776   1.208  0.00  0.00    +0.009 A 
BRANCH  37  40
ATOM     40  O   UNL     1       0.320  -4.226   0.063  0.00  0.00    -0.495 OA
ATOM     41  C   UNL     1       0.373  -4.892  -1.200  0.00  0.00    +0.277 C 
ENDBRANCH  37  40
ENDBRANCH  33  34
ENDBRANCH  32  33
ENDBRANCH   1  28
TORSDOF 9
