REMARK  Name = ZINC08947613
REMARK  9 active torsions:
REMARK  status: ('A' for Active; 'I' for Inactive)
REMARK    1  A    between atoms: C_1  and  C_2
REMARK    2  A    between atoms: C_2  and  C_21
REMARK    3  A    between atoms: N_5  and  C_9
REMARK    4  A    between atoms: C_9  and  C_10
REMARK    5  A    between atoms: N_15  and  C_16
REMARK    6  A    between atoms: C_24  and  C_27
REMARK    7  A    between atoms: C_27  and  C_28
REMARK    8  A    between atoms: C_27  and  C_29
REMARK    9  A    between atoms: C_27  and  C_30
REMARK                            x       y       z     vdW  Elec       q    Type
REMARK                         _______ _______ _______ _____ _____    ______ ____
ROOT
ATOM      1  C   UNL     1      -0.013   1.086   0.008  0.00  0.00    +0.047 C 
ATOM      2  C   UNL     1      -0.729   1.579   1.267  0.00  0.00    +0.135 C 
ATOM      3  C   UNL     1      -0.026   1.077   2.512  0.00  0.00    +0.251 C 
ATOM      4  O   UNL     1       1.113   1.312   2.855  0.00  0.00    -0.272 OA
ATOM      5  N   UNL     1      -0.929   0.314   3.158  0.00  0.00    -0.215 N 
ATOM      6  C   UNL     1      -2.094   0.265   2.501  0.00  0.00    +0.310 C 
ATOM      7  O   UNL     1      -3.062  -0.361   2.886  0.00  0.00    -0.252 OA
ATOM      8  N   UNL     1      -2.073   0.985   1.365  0.00  0.00    -0.281 N 
ATOM      9  H   UNL     1      -2.802   1.093   0.734  0.00  0.00    +0.152 HD
ENDROOT
BRANCH   2  10
ATOM     10  C   UNL     1      -0.809   3.084   1.274  0.00  0.00    -0.015 A 
ATOM     11  C   UNL     1       0.193   3.827   1.871  0.00  0.00    +0.006 A 
ATOM     12  C   UNL     1       0.122   5.207   1.873  0.00  0.00    +0.004 A 
ATOM     13  C   UNL     1      -0.956   5.845   1.288  0.00  0.00    -0.042 A 
ATOM     14  C   UNL     1      -1.960   5.102   0.696  0.00  0.00    +0.004 A 
ATOM     15  C   UNL     1      -1.887   3.722   0.689  0.00  0.00    +0.006 A 
BRANCH  13  16
ATOM     16  C   UNL     1      -1.036   7.350   1.296  0.00  0.00    -0.013 C 
ATOM     17  C   UNL     1      -2.304   7.789   2.032  0.00  0.00    +0.015 C 
ATOM     18  C   UNL     1       0.191   7.922   2.007  0.00  0.00    +0.015 C 
ATOM     19  C   UNL     1      -1.078   7.866  -0.144  0.00  0.00    +0.015 C 
ENDBRANCH  13  16
ENDBRANCH   2  10
BRANCH   5  20
ATOM     20  C   UNL     1      -0.669  -0.378   4.423  0.00  0.00    +0.214 C 
BRANCH  20  21
ATOM     21  C   UNL     1      -1.031   0.526   5.573  0.00  0.00    +0.238 C 
ATOM     22  O   UNL     1      -1.464   1.638   5.357  0.00  0.00    -0.274 OA
ATOM     23  N   UNL     1      -0.874   0.098   6.842  0.00  0.00    -0.239 N 
ATOM     24  C   UNL     1      -1.197   0.907   7.870  0.00  0.00    +0.306 C 
ATOM     25  O   UNL     1      -1.631   2.021   7.654  0.00  0.00    -0.252 OA
ATOM     26  N   UNL     1      -1.040   0.479   9.139  0.00  0.00    -0.296 N 
ATOM     27  H   UNL     1      -0.527  -0.791   7.014  0.00  0.00    +0.159 HD
ATOM     28  H   UNL     1      -0.694  -0.410   9.311  0.00  0.00    +0.151 HD
BRANCH  26  29
ATOM     29  C   UNL     1      -1.392   1.358  10.257  0.00  0.00    +0.074 C 
ATOM     30  C   UNL     1      -0.191   2.254  10.623  0.00  0.00    +0.022 C 
ATOM     31  C   UNL     1      -0.252   2.357  12.168  0.00  0.00    +0.002 C 
ATOM     32  C   UNL     1      -0.695   0.933  12.589  0.00  0.00    +0.002 C 
ATOM     33  C   UNL     1      -1.712   0.518  11.506  0.00  0.00    +0.022 C 
ENDBRANCH  26  29
ENDBRANCH  20  21
ENDBRANCH   5  20
TORSDOF 5
