REMARK  Name = ZINC12140780
REMARK  5 active torsions:
REMARK  status: ('A' for Active; 'I' for Inactive)
REMARK    1  A    between atoms: N_12  and  C_29
REMARK    2  A    between atoms: N_15  and  C_16
REMARK    3  A    between atoms: C_16  and  C_17
REMARK    4  A    between atoms: N_19  and  C_20
REMARK    5  A    between atoms: C_23  and  C_26
REMARK                            x       y       z     vdW  Elec       q    Type
REMARK                         _______ _______ _______ _____ _____    ______ ____
ROOT
ATOM      1  C   UNL     1      -5.963   6.148   4.931  0.00  0.00    +0.001 A 
ATOM      2  C   UNL     1      -5.739   7.251   5.744  0.00  0.00    +0.004 A 
ATOM      3  C   UNL     1      -5.571   8.505   5.197  0.00  0.00    +0.047 A 
ATOM      4  C   UNL     1      -5.625   8.672   3.817  0.00  0.00    +0.138 A 
ATOM      5  C   UNL     1      -5.852   7.551   2.999  0.00  0.00    +0.045 A 
ATOM      6  C   UNL     1      -6.019   6.290   3.573  0.00  0.00    +0.014 A 
ATOM      7  C   UNL     1      -5.857   8.057   1.626  0.00  0.00    +0.105 A 
ATOM      8  C   UNL     1      -5.630   9.417   1.718  0.00  0.00    +0.217 A 
ATOM      9  O   UNL     1      -5.500   9.753   3.021  0.00  0.00    -0.448 OA
ATOM     10  C   UNL     1      -5.578  10.174   0.521  0.00  0.00    +0.304 A 
ATOM     11  O   UNL     1      -5.384  11.376   0.563  0.00  0.00    -0.263 OA
ATOM     12  N   UNL     1      -5.746   9.555  -0.663  0.00  0.00    -0.226 N 
ATOM     13  C   UNL     1      -5.962   8.229  -0.729  0.00  0.00    +0.338 A 
ATOM     14  O   UNL     1      -6.109   7.702  -1.815  0.00  0.00    -0.246 OA
ATOM     15  N   UNL     1      -6.017   7.474   0.385  0.00  0.00    -0.280 N 
ENDROOT
BRANCH  12  16
ATOM     16  C   UNL     1      -5.696  10.304  -1.847  0.00  0.00    +0.055 A 
ATOM     17  C   UNL     1      -4.513  10.923  -2.228  0.00  0.00    +0.029 A 
ATOM     18  C   UNL     1      -4.464  11.657  -3.397  0.00  0.00    +0.040 A 
ATOM     19  C   UNL     1      -5.597  11.786  -4.183  0.00  0.00    +0.124 A 
ATOM     20  C   UNL     1      -6.779  11.173  -3.801  0.00  0.00    +0.040 A 
ATOM     21  C   UNL     1      -6.831  10.434  -2.636  0.00  0.00    +0.029 A 
ATOM     22  F   UNL     1      -5.549  12.508  -5.323  0.00  0.00    -0.205 F 
ENDBRANCH  12  16
BRANCH  15  23
ATOM     23  C   UNL     1      -6.252   6.032   0.280  0.00  0.00    +0.223 C 
BRANCH  23  24
ATOM     24  C   UNL     1      -4.932   5.314   0.162  0.00  0.00    +0.237 C 
ATOM     25  O   UNL     1      -3.897   5.946   0.166  0.00  0.00    -0.274 OA
ATOM     26  N   UNL     1      -4.903   3.971   0.053  0.00  0.00    -0.284 N 
ATOM     27  H   UNL     1      -5.732   3.472  -0.014  0.00  0.00    +0.155 HD
BRANCH  26  28
ATOM     28  C   UNL     1      -3.681   3.300   0.036  0.00  0.00    +0.033 A 
ATOM     29  C   UNL     1      -3.567   2.050   0.635  0.00  0.00    +0.024 A 
ATOM     30  C   UNL     1      -2.363   1.384   0.620  0.00  0.00    +0.015 A 
ATOM     31  C   UNL     1      -1.252   1.966   0.002  0.00  0.00    +0.037 A 
ATOM     32  C   UNL     1      -1.368   3.224  -0.594  0.00  0.00    +0.015 A 
ATOM     33  C   UNL     1      -2.578   3.882  -0.580  0.00  0.00    +0.024 A 
BRANCH  31  34
ATOM     34  C   UNL     1       0.041   1.255  -0.016  0.00  0.00    +0.242 C 
ATOM     35  O   UNL     1       0.142   0.162   0.508  0.00  0.00    -0.270 OA
ATOM     36  N   UNL     1       1.109   1.815  -0.617  0.00  0.00    -0.325 N 
ATOM     37  H   UNL     1       1.958   1.346  -0.632  0.00  0.00    +0.145 HD
ATOM     38  H   UNL     1       1.029   2.687  -1.035  0.00  0.00    +0.145 HD
ENDBRANCH  31  34
ENDBRANCH  26  28
ENDBRANCH  23  24
ENDBRANCH  15  23
TORSDOF 5
