REMARK  Name = ZINC12743549
REMARK  10 active torsions:
REMARK  status: ('A' for Active; 'I' for Inactive)
REMARK    1  A    between atoms: C_1  and  C_2
REMARK    2  A    between atoms: C_8  and  C_10
REMARK    3  A    between atoms: C_10  and  C_12
REMARK    4  A    between atoms: C_10  and  O_13
REMARK    5  A    between atoms: O_13  and  C_14
REMARK    6  A    between atoms: C_14  and  C_16
REMARK    7  A    between atoms: C_16  and  C_17
REMARK    8  A    between atoms: C_17  and  N_18
REMARK    9  A    between atoms: N_18  and  S_19
REMARK   10  A    between atoms: S_19  and  C_22
REMARK                            x       y       z     vdW  Elec       q    Type
REMARK                         _______ _______ _______ _____ _____    ______ ____
ROOT
ATOM      1  C   UNL     1      -0.098   1.490  -0.322  0.00  0.00    +0.309 C 
ATOM      2  O   UNL     1       0.090   0.302  -0.208  0.00  0.00    -0.251 OA
ENDROOT
BRANCH   1   3
ATOM      3  O   UNL     1      -1.342   1.985  -0.222  0.00  0.00    -0.452 OA
BRANCH   3   4
ATOM      4  C   UNL     1      -2.412   1.034   0.022  0.00  0.00    +0.259 C 
ATOM      5  C   UNL     1      -2.608   0.864   1.530  0.00  0.00    +0.062 C 
BRANCH   4  13
ATOM      6  C   UNL     1      -6.822  -2.246  -2.949  0.00  0.00    +0.007 C 
ATOM      7  C   UNL     1      -6.434  -1.233  -1.870  0.00  0.00    -0.011 C 
ATOM      8  C   UNL     1      -5.088  -1.628  -1.258  0.00  0.00    +0.022 C 
ATOM      9  C   UNL     1      -4.720  -0.631  -0.155  0.00  0.00    +0.108 C 
ATOM     10  N   UNL     1      -4.753   0.727  -0.714  0.00  0.00    -0.298 N 
ATOM     11  C   UNL     1      -5.971   1.179  -1.400  0.00  0.00    +0.108 C 
ATOM     12  C   UNL     1      -6.323   0.160  -2.494  0.00  0.00    +0.022 C 
ATOM     13  C   UNL     1      -3.688   1.544  -0.596  0.00  0.00    +0.256 C 
ATOM     14  O   UNL     1      -3.756   2.690  -0.988  0.00  0.00    -0.272 OA
ENDBRANCH   4  13
ENDBRANCH   3   4
ENDBRANCH   1   3
BRANCH   1  15
ATOM     15  C   UNL     1       1.063   2.415  -0.581  0.00  0.00    +0.137 C 
BRANCH  15  16
ATOM     16  C   UNL     1       2.357   1.602  -0.656  0.00  0.00    +0.117 C 
BRANCH  16  17
ATOM     17  N   UNL     1       3.485   2.502  -0.908  0.00  0.00    -0.189 NA
ATOM     18  H   UNL     1       3.324   3.409  -1.213  0.00  0.00    +0.148 HD
BRANCH  17  19
ATOM     19  S   UNL     1       5.036   1.971  -0.672  0.00  0.00    +0.058 S 
ATOM     20  O   UNL     1       5.892   3.050  -1.023  0.00  0.00    -0.153 OA
ATOM     21  O   UNL     1       5.066   1.361   0.610  0.00  0.00    -0.153 OA
BRANCH  19  22
ATOM     22  C   UNL     1       5.332   0.691  -1.847  0.00  0.00    +0.105 A 
ATOM     23  C   UNL     1       5.057  -0.623  -1.520  0.00  0.00    +0.031 A 
ATOM     24  C   UNL     1       5.285  -1.627  -2.441  0.00  0.00    +0.040 A 
ATOM     25  C   UNL     1       5.799  -1.318  -3.689  0.00  0.00    +0.124 A 
ATOM     26  C   UNL     1       6.079  -0.001  -4.013  0.00  0.00    +0.040 A 
ATOM     27  C   UNL     1       5.846   1.002  -3.092  0.00  0.00    +0.031 A 
ATOM     28  F   UNL     1       6.026  -2.299  -4.589  0.00  0.00    -0.205 F 
ENDBRANCH  19  22
ENDBRANCH  17  19
ENDBRANCH  16  17
ENDBRANCH  15  16
ENDBRANCH   1  15
TORSDOF 8
