REMARK  Name = ZINC29309761
REMARK  7 active torsions:
REMARK  status: ('A' for Active; 'I' for Inactive)
REMARK    1  A    between atoms: C_1  and  C_2
REMARK    2  A    between atoms: C_5  and  N_8
REMARK    3  A    between atoms: N_8  and  C_9
REMARK    4  A    between atoms: C_9  and  C_11
REMARK    5  A    between atoms: C_9  and  C_12
REMARK    6  A    between atoms: N_14  and  C_15
REMARK    7  A    between atoms: C_20  and  N_21
REMARK                            x       y       z     vdW  Elec       q    Type
REMARK                         _______ _______ _______ _____ _____    ______ ____
ROOT
ATOM      1  C   UNL     1      -1.936  -0.524   0.082  0.00  0.00    +0.237 C 
ATOM      2  O   UNL     1      -0.811  -0.949   0.242  0.00  0.00    -0.273 OA
ATOM      3  N   UNL     1      -2.150   0.805   0.007  0.00  0.00    -0.282 N 
ATOM      4  H   UNL     1      -3.177   1.194  -0.047  0.00  0.00    +0.155 HD
ENDROOT
BRANCH   3   5
ATOM      5  C   UNL     1      -1.065   1.689  -0.002  0.00  0.00    +0.064 A 
ATOM      6  C   UNL     1       0.003   1.489   0.864  0.00  0.00    +0.027 A 
ATOM      7  C   UNL     1       1.074   2.360   0.850  0.00  0.00    +0.022 A 
ATOM      8  C   UNL     1       1.083   3.434  -0.023  0.00  0.00    +0.043 A 
ATOM      9  C   UNL     1       0.019   3.638  -0.883  0.00  0.00    +0.054 A 
ATOM     10  C   UNL     1      -1.056   2.770  -0.873  0.00  0.00    +0.149 A 
ATOM     11 CL   UNL     1       2.432   4.526  -0.039  0.00  0.00    -0.083 Cl
BRANCH  10  12
ATOM     12  N   UNL     1      -2.194   2.990  -1.793  0.00  0.00    +0.058 N 
ATOM     13  O   UNL     1      -2.198   3.954  -2.537  0.00  0.00    -0.126 OA
ATOM     14  O   UNL     1      -3.126   2.206  -1.806  0.00  0.00    -0.126 OA
ENDBRANCH  10  12
ENDBRANCH   3   5
BRANCH   1  15
ATOM     15  C   UNL     1      -3.094  -1.481  -0.033  0.00  0.00    +0.154 C 
ATOM     16  C   UNL     1      -4.098  -1.204   1.088  0.00  0.00    +0.038 C 
BRANCH  15  17
ATOM     17  N   UNL     1      -2.603  -2.857   0.079  0.00  0.00    -0.333 N 
ATOM     18  H   UNL     1      -1.665  -3.064   0.614  0.00  0.00    +0.147 HD
BRANCH  17  23
ATOM     19  C   UNL     1      -5.545  -7.114  -2.241  0.00  0.00    +0.044 C 
ATOM     20  C   UNL     1      -4.763  -5.983  -1.624  0.00  0.00    -0.050 A 
ATOM     21  C   UNL     1      -3.583  -6.245  -0.953  0.00  0.00    +0.005 A 
ATOM     22  C   UNL     1      -2.864  -5.211  -0.387  0.00  0.00    +0.023 A 
ATOM     23  C   UNL     1      -3.328  -3.905  -0.492  0.00  0.00    +0.028 A 
ATOM     24  C   UNL     1      -4.516  -3.646  -1.163  0.00  0.00    +0.023 A 
ATOM     25  C   UNL     1      -5.228  -4.685  -1.731  0.00  0.00    +0.005 A 
ENDBRANCH  17  23
ENDBRANCH  15  17
ENDBRANCH   1  15
TORSDOF 5
