REMARK  Name = ZINC20756942
REMARK  5 active torsions:
REMARK  status: ('A' for Active; 'I' for Inactive)
REMARK    1  A    between atoms: C_1  and  N_2
REMARK    2  A    between atoms: C_15  and  C_17
REMARK    3  A    between atoms: N_23  and  C_26
REMARK    4  A    between atoms: C_26  and  C_27
REMARK    5  A    between atoms: C_27  and  C_28
REMARK                            x       y       z     vdW  Elec       q    Type
REMARK                         _______ _______ _______ _____ _____    ______ ____
ROOT
ATOM      1  C   UNL     1      -0.083  -0.155   2.430  0.00  0.00    +0.074 A 
ATOM      2  C   UNL     1      -1.420  -0.574   2.550  0.00  0.00    +0.260 A 
ATOM      3  N   UNL     1      -2.115  -0.266   3.663  0.00  0.00    -0.275 N 
ATOM      4  H   UNL     1      -3.037  -0.553   3.750  0.00  0.00    +0.173 HD
ATOM      5  C   UNL     1      -1.539   0.437   4.655  0.00  0.00    +0.332 A 
ATOM      6  O   UNL     1      -2.182   0.705   5.651  0.00  0.00    -0.246 OA
ATOM      7  N   UNL     1      -0.261   0.848   4.561  0.00  0.00    -0.260 N 
ATOM      8  C   UNL     1       0.484   0.553   3.448  0.00  0.00    +0.262 A 
ATOM      9  O   UNL     1       1.767   0.962   3.359  0.00  0.00    -0.267 OA
ATOM     10  O   UNL     1      -1.946  -1.211   1.655  0.00  0.00    -0.267 OA
ENDROOT
BRANCH   1  25
ATOM     11  C   UNL     1      -0.018   1.465   0.010  0.00  0.00    -0.095 C 
ATOM     12  N   UNL     1       0.002  -0.004   0.002  0.00  0.00    +0.387 N 
ATOM     13  C   UNL     1       0.674  -0.475  -1.216  0.00  0.00    -0.073 C 
ATOM     14  C   UNL     1       0.422  -1.979  -1.392  0.00  0.00    +0.019 C 
ATOM     15  C   UNL     1       0.741  -2.656  -0.082  0.00  0.00    -0.022 A 
ATOM     16  C   UNL     1       0.959  -4.056   0.200  0.00  0.00    +0.003 A 
ATOM     17  C   UNL     1       0.948  -5.202  -0.602  0.00  0.00    +0.010 A 
ATOM     18  C   UNL     1       1.204  -6.399   0.020  0.00  0.00    +0.001 A 
ATOM     19  C   UNL     1       1.462  -6.482   1.379  0.00  0.00    +0.002 A 
ATOM     20  C   UNL     1       1.480  -5.365   2.197  0.00  0.00    +0.026 A 
ATOM     21  C   UNL     1       1.224  -4.136   1.593  0.00  0.00    +0.047 A 
ATOM     22  N   UNL     1       1.165  -2.866   2.092  0.00  0.00    -0.359 N 
ATOM     23  H   UNL     1       1.308  -2.624   3.020  0.00  0.00    +0.166 HD
ATOM     24  C   UNL     1       0.876  -1.986   1.085  0.00  0.00    +0.011 A 
ATOM     25  C   UNL     1       0.714  -0.488   1.195  0.00  0.00    +0.021 C 
ATOM     26  H   UNL     1      -0.945  -0.351   0.014  0.00  0.00    -0.081 HD
ENDBRANCH   1  25
BRANCH   7  27
ATOM     27  C   UNL     1       0.340   1.613   5.657  0.00  0.00    +0.134 C 
BRANCH  27  28
ATOM     28  C   UNL     1       0.990   0.650   6.654  0.00  0.00    +0.052 C 
BRANCH  28  29
ATOM     29  C   UNL     1       1.608   1.437   7.781  0.00  0.00    -0.072 C 
ATOM     30  C   UNL     1       0.910   1.603   8.858  0.00  0.00    -0.028 C 
ATOM     31  C   UNL     1       1.386   2.370  10.058  0.00  0.00    +0.027 C 
ATOM     32  C   UNL     1       2.905   2.545  10.003  0.00  0.00    +0.004 C 
ATOM     33  C   UNL     1       3.283   3.072   8.613  0.00  0.00    +0.005 C 
ATOM     34  C   UNL     1       2.996   1.973   7.587  0.00  0.00    +0.030 C 
ENDBRANCH  28  29
ENDBRANCH  27  28
ENDBRANCH   7  27
TORSDOF 4
