REMARK  Name = ZINC46567924
REMARK  7 active torsions:
REMARK  status: ('A' for Active; 'I' for Inactive)
REMARK    1  A    between atoms: C_1  and  C_2
REMARK    2  A    between atoms: C_4  and  C_16
REMARK    3  A    between atoms: C_24  and  O_26
REMARK    4  A    between atoms: O_26  and  C_27
REMARK    5  A    between atoms: C_27  and  C_28
REMARK    6  A    between atoms: C_27  and  C_29
REMARK    7  A    between atoms: C_27  and  C_30
REMARK                            x       y       z     vdW  Elec       q    Type
REMARK                         _______ _______ _______ _____ _____    ______ ____
ROOT
ATOM      1  C   UNL     1      -2.156   0.432   0.607  0.00  0.00    +0.065 C 
ATOM      2  C   UNL     1      -1.026  -0.511   0.284  0.00  0.00    +0.041 A 
ATOM      3  C   UNL     1      -1.040  -1.197  -0.918  0.00  0.00    +0.038 A 
ATOM      4  C   UNL     1       0.006  -2.071  -1.220  0.00  0.00    +0.068 A 
ATOM      5  C   UNL     1       1.039  -2.214  -0.271  0.00  0.00    +0.120 A 
ATOM      6  C   UNL     1       0.969  -1.477   0.926  0.00  0.00    +0.161 A 
ATOM      7  N   UNL     1      -0.046  -0.660   1.151  0.00  0.00    -0.233 NA
ATOM      8  N   UNL     1       2.094  -1.821   1.643  0.00  0.00    -0.312 N 
ATOM      9  C   UNL     1       2.798  -2.714   0.895  0.00  0.00    +0.112 A 
ATOM     10  N   UNL     1       2.169  -2.943  -0.225  0.00  0.00    -0.230 NA
ATOM     11  C   UNL     1       4.114  -3.336   1.300  0.00  0.00    +0.074 C 
ATOM     12  C   UNL     1       4.017  -3.832   2.744  0.00  0.00    +0.008 C 
ATOM     13  C   UNL     1       4.408  -2.708   3.698  0.00  0.00    +0.002 C 
ATOM     14  C   UNL     1       3.981  -1.355   3.132  0.00  0.00    +0.022 C 
ATOM     15  C   UNL     1       2.459  -1.323   2.972  0.00  0.00    +0.125 C 
ENDROOT
BRANCH   4  16
ATOM     16  C   UNL     1       0.029  -2.821  -2.492  0.00  0.00    +0.249 C 
ATOM     17  O   UNL     1       0.153  -4.031  -2.482  0.00  0.00    -0.270 OA
ATOM     18  N   UNL     1      -0.087  -2.166  -3.664  0.00  0.00    -0.294 N 
ATOM     19  C   UNL     1      -0.103  -0.697  -3.700  0.00  0.00    +0.127 C 
ATOM     20  C   UNL     1       1.002  -0.218  -4.649  0.00  0.00    +0.130 C 
ATOM     21  N   UNL     1       0.889  -0.959  -5.913  0.00  0.00    -0.264 N 
ATOM     22  C   UNL     1       0.905  -2.428  -5.877  0.00  0.00    +0.130 C 
ATOM     23  C   UNL     1      -0.195  -2.907  -4.928  0.00  0.00    +0.127 C 
ATOM     24  C   UNL     1       0.773  -0.303  -7.085  0.00  0.00    +0.403 C 
ATOM     25  O   UNL     1       0.760   0.912  -7.102  0.00  0.00    -0.226 OA
BRANCH  24  26
ATOM     26  O   UNL     1       0.670  -0.994  -8.236  0.00  0.00    -0.445 OA
BRANCH  26  27
ATOM     27  C   UNL     1       0.550  -0.234  -9.440  0.00  0.00    +0.107 C 
ATOM     28  C   UNL     1       1.781   0.659  -9.605  0.00  0.00    +0.055 C 
ATOM     29  C   UNL     1       0.446  -1.185 -10.635  0.00  0.00    +0.055 C 
ATOM     30  C   UNL     1      -0.706   0.637  -9.370  0.00  0.00    +0.055 C 
ENDBRANCH  26  27
ENDBRANCH  24  26
ENDBRANCH   4  16
TORSDOF 3
