REMARK  Name = ZINC14653069
REMARK  11 active torsions:
REMARK  status: ('A' for Active; 'I' for Inactive)
REMARK    1  A    between atoms: C_1  and  C_2
REMARK    2  A    between atoms: C_7  and  O_8
REMARK    3  A    between atoms: O_8  and  C_9
REMARK    4  A    between atoms: C_9  and  C_10
REMARK    5  A    between atoms: N_12  and  N_13
REMARK    6  A    between atoms: C_14  and  C_16
REMARK    7  A    between atoms: C_19  and  O_23
REMARK    8  A    between atoms: O_23  and  C_24
REMARK    9  A    between atoms: C_24  and  C_25
REMARK   10  A    between atoms: C_25  and  C_26
REMARK   11  A    between atoms: C_25  and  C_27
REMARK                            x       y       z     vdW  Elec       q    Type
REMARK                         _______ _______ _______ _____ _____    ______ ____
ROOT
ATOM      1  N   UNL     1      -3.679   3.180   0.052  0.00  0.00    -0.230 N 
ATOM      2  C   UNL     1      -2.520   3.867   0.045  0.00  0.00    +0.260 C 
ATOM      3  O   UNL     1      -2.534   5.083   0.051  0.00  0.00    -0.269 OA
ATOM      4  H   UNL     1      -3.668   2.210   0.048  0.00  0.00    +0.173 HD
ENDROOT
BRANCH   2   5
ATOM      5  C   UNL     1      -1.233   3.144   0.030  0.00  0.00    +0.039 A 
ATOM      6  C   UNL     1      -1.215   1.747   0.017  0.00  0.00    +0.017 A 
ATOM      7  C   UNL     1      -0.013   1.076   0.008  0.00  0.00    +0.047 A 
ATOM      8  C   UNL     1       1.182   1.786   0.000  0.00  0.00    +0.134 A 
ATOM      9  C   UNL     1       1.169   3.176   0.007  0.00  0.00    +0.060 A 
ATOM     10  C   UNL     1      -0.030   3.855   0.022  0.00  0.00    +0.032 A 
ATOM     11 BR   UNL     1       2.797   4.137  -0.004  0.00  0.00    -0.046 Br
BRANCH   8  12
ATOM     12  O   UNL     1       2.365   1.121  -0.015  0.00  0.00    -0.491 OA
BRANCH  12  13
ATOM     13  C   UNL     1       2.306  -0.307  -0.022  0.00  0.00    +0.232 C 
BRANCH  13  14
ATOM     14  C   UNL     1       3.726  -0.876  -0.038  0.00  0.00    +0.020 C 
ATOM     15  C   UNL     1       4.439  -0.507   1.264  0.00  0.00    +0.010 C 
ATOM     16  C   UNL     1       3.664  -2.399  -0.172  0.00  0.00    +0.010 C 
ENDBRANCH  13  14
ENDBRANCH  12  13
ENDBRANCH   8  12
ENDBRANCH   2   5
BRANCH   1  19
ATOM     17  C   UNL     1      -6.060   3.178   0.074  0.00  0.00    +0.267 C 
ATOM     18  O   UNL     1      -6.046   1.966   0.068  0.00  0.00    -0.271 OA
ATOM     19  N   UNL     1      -4.901   3.866   0.067  0.00  0.00    -0.231 N 
ATOM     20  H   UNL     1      -4.912   4.836   0.071  0.00  0.00    +0.173 HD
BRANCH  17  21
ATOM     21  C   UNL     1      -7.373   3.917   0.090  0.00  0.00    +0.326 C 
BRANCH  21  22
ATOM     22  O   UNL     1      -8.449   2.975   0.095  0.00  0.00    -0.482 OA
BRANCH  22  29
ATOM     23  C   UNL     1     -10.588   1.131   0.093  0.00  0.00    +0.047 C 
ATOM     24  C   UNL     1     -10.801   2.623   0.109  0.00  0.00    -0.008 A 
ATOM     25  C   UNL     1     -12.083   3.138   0.129  0.00  0.00    +0.022 A 
ATOM     26  C   UNL     1     -12.279   4.507   0.137  0.00  0.00    +0.018 A 
ATOM     27  C   UNL     1     -11.193   5.364   0.132  0.00  0.00    +0.019 A 
ATOM     28  C   UNL     1      -9.910   4.853   0.117  0.00  0.00    +0.047 A 
ATOM     29  C   UNL     1      -9.711   3.480   0.109  0.00  0.00    +0.124 A 
ATOM     30 BR   UNL     1     -14.035   5.210   0.157  0.00  0.00    -0.050 Br
ENDBRANCH  22  29
ENDBRANCH  21  22
ENDBRANCH  17  21
ENDBRANCH   1  19
TORSDOF 8
