REMARK  Name = ZINC09517033
REMARK  11 active torsions:
REMARK  status: ('A' for Active; 'I' for Inactive)
REMARK    1  A    between atoms: C_1  and  C_2
REMARK    2  A    between atoms: C_4  and  C_9
REMARK    3  A    between atoms: C_5  and  C_8
REMARK    4  A    between atoms: N_6  and  C_7
REMARK    5  A    between atoms: C_15  and  C_17
REMARK    6  A    between atoms: C_17  and  C_19
REMARK    7  A    between atoms: C_17  and  N_20
REMARK    8  A    between atoms: N_20  and  S_21
REMARK    9  A    between atoms: S_21  and  C_24
REMARK   10  A    between atoms: C_27  and  N_30
REMARK   11  A    between atoms: C_31  and  C_33
REMARK                            x       y       z     vdW  Elec       q    Type
REMARK                         _______ _______ _______ _____ _____    ______ ____
ROOT
ATOM      1  C   UNL     1       2.691  -2.603  -2.306  0.00  0.00    +0.159 C 
ATOM      2  C   UNL     1       2.524  -1.308  -3.103  0.00  0.00    +0.035 C 
ENDROOT
BRANCH   1   9
ATOM      3  C   UNL     1       5.690  -5.876  -6.425  0.00  0.00    +0.082 A 
ATOM      4  C   UNL     1       4.746  -6.861  -6.363  0.00  0.00    +0.077 A 
ATOM      5  S   UNL     1       3.629  -6.177  -5.148  0.00  0.00    -0.060 S 
ATOM      6  C   UNL     1       4.488  -4.696  -4.855  0.00  0.00    +0.165 A 
ATOM      7  N   UNL     1       5.527  -4.809  -5.656  0.00  0.00    -0.225 NA
ATOM      8  N   UNL     1       4.163  -3.658  -3.990  0.00  0.00    -0.263 N 
ATOM      9  C   UNL     1       3.043  -3.728  -3.244  0.00  0.00    +0.237 C 
ATOM     10  O   UNL     1       2.318  -4.697  -3.328  0.00  0.00    -0.274 OA
ATOM     11  H   UNL     1       4.743  -2.884  -3.923  0.00  0.00    +0.157 HD
BRANCH   3  15
ATOM     12  C   UNL     1       8.988  -7.666  -9.849  0.00  0.00    +0.063 C 
ATOM     13  C   UNL     1       8.303  -6.793  -8.829  0.00  0.00    +0.016 A 
ATOM     14  C   UNL     1       7.151  -7.081  -8.194  0.00  0.00    +0.032 A 
ATOM     15  C   UNL     1       6.864  -5.997  -7.326  0.00  0.00    +0.022 A 
ATOM     16  C   UNL     1       7.862  -5.087  -7.479  0.00  0.00    +0.025 A 
ATOM     17  N   UNL     1       8.745  -5.578  -8.395  0.00  0.00    -0.351 N 
ATOM     18  C   UNL     1       9.966  -4.906  -8.845  0.00  0.00    +0.149 C 
ATOM     19  C   UNL     1       7.975  -3.767  -6.760  0.00  0.00    +0.064 C 
ENDBRANCH   3  15
ENDBRANCH   1   9
BRANCH   1  20
ATOM     20  N   UNL     1       1.438  -2.916  -1.615  0.00  0.00    -0.178 NA
ATOM     21  H   UNL     1       0.737  -3.401  -2.079  0.00  0.00    +0.149 HD
BRANCH  20  22
ATOM     22  S   UNL     1       1.217  -2.442  -0.044  0.00  0.00    +0.059 S 
ATOM     23  O   UNL     1       2.379  -2.844   0.668  0.00  0.00    -0.153 OA
ATOM     24  O   UNL     1      -0.088  -2.864   0.328  0.00  0.00    -0.153 OA
BRANCH  22  25
ATOM     25  C   UNL     1       1.201  -0.681  -0.028  0.00  0.00    +0.105 A 
ATOM     26  C   UNL     1       0.007  -0.000  -0.186  0.00  0.00    +0.030 A 
ATOM     27  C   UNL     1      -0.009   1.381  -0.174  0.00  0.00    +0.025 A 
ATOM     28  C   UNL     1       1.175   2.086  -0.003  0.00  0.00    +0.033 A 
ATOM     29  C   UNL     1       2.372   1.400   0.154  0.00  0.00    +0.025 A 
ATOM     30  C   UNL     1       2.381   0.019   0.141  0.00  0.00    +0.030 A 
BRANCH  28  31
ATOM     31  N   UNL     1       1.162   3.485   0.009  0.00  0.00    -0.286 N 
ATOM     32  C   UNL     1       0.101   4.145   0.516  0.00  0.00    +0.214 C 
ATOM     33  O   UNL     1      -0.799   3.529   1.047  0.00  0.00    -0.276 OA
ATOM     34  C   UNL     1       0.033   5.647   0.422  0.00  0.00    +0.109 C 
ATOM     35  H   UNL     1       1.916   3.981  -0.347  0.00  0.00    +0.155 HD
ENDBRANCH  28  31
ENDBRANCH  22  25
ENDBRANCH  20  22
ENDBRANCH   1  20
TORSDOF 6
