REMARK  Name = ZINC63625956
REMARK  7 active torsions:
REMARK  status: ('A' for Active; 'I' for Inactive)
REMARK    1  A    between atoms: C_4  and  C_7
REMARK    2  A    between atoms: C_7  and  N_8
REMARK    3  A    between atoms: C_9  and  C_11
REMARK    4  A    between atoms: C_11  and  C_13
REMARK    5  A    between atoms: C_11  and  S_19
REMARK    6  A    between atoms: S_19  and  C_20
REMARK    7  A    between atoms: C_26  and  N_30
REMARK                            x       y       z     vdW  Elec       q    Type
REMARK                         _______ _______ _______ _____ _____    ______ ____
ROOT
ATOM      1  C   UNL     1       5.764  -1.853   2.984  0.00  0.00    +0.166 C 
ENDROOT
BRANCH   1   2
ATOM      2  C   UNL     1       5.123  -3.115   3.499  0.00  0.00    -0.026 A 
ATOM      3  C   UNL     1       5.354  -4.319   2.860  0.00  0.00    +0.005 A 
ATOM      4  C   UNL     1       4.766  -5.477   3.332  0.00  0.00    +0.000 A 
ATOM      5  C   UNL     1       3.946  -5.432   4.445  0.00  0.00    +0.000 A 
ATOM      6  C   UNL     1       3.716  -4.228   5.085  0.00  0.00    +0.000 A 
ATOM      7  C   UNL     1       4.308  -3.071   4.615  0.00  0.00    +0.005 A 
ENDBRANCH   1   2
BRANCH   1   9
ATOM      8  N   UNL     1       4.152  -0.952   1.338  0.00  0.00    -0.310 N 
ATOM      9  C   UNL     1       5.311  -1.601   1.569  0.00  0.00    +0.231 C 
ATOM     10  O   UNL     1       5.989  -1.981   0.638  0.00  0.00    -0.274 OA
ATOM     11  H   UNL     1       3.610  -0.648   2.082  0.00  0.00    +0.149 HD
BRANCH   8  12
ATOM     12  C   UNL     1       3.711  -0.707  -0.038  0.00  0.00    +0.139 C 
BRANCH  12  16
ATOM     13  C   UNL     1      -0.017   1.378   0.010  0.00  0.00    +0.000 A 
ATOM     14  C   UNL     1       1.171   2.086   0.002  0.00  0.00    +0.000 A 
ATOM     15  C   UNL     1       2.377   1.411  -0.013  0.00  0.00    +0.005 A 
ATOM     16  C   UNL     1       2.396   0.029  -0.020  0.00  0.00    -0.030 A 
ATOM     17  C   UNL     1       1.208  -0.679  -0.012  0.00  0.00    +0.005 A 
ATOM     18  C   UNL     1       0.002  -0.004   0.002  0.00  0.00    +0.000 A 
ENDBRANCH  12  16
ENDBRANCH   8  12
ENDBRANCH   1   9
BRANCH   1  19
ATOM     19  S   UNL     1       7.569  -2.034   3.017  0.00  0.00    -0.097 S 
BRANCH  19  20
ATOM     20  C   UNL     1       7.963  -2.176   4.782  0.00  0.00    +0.236 C 
ATOM     21  N   UNL     1       7.243  -3.314   5.369  0.00  0.00    -0.355 N 
ATOM     22  C   UNL     1       6.467  -2.845   6.303  0.00  0.00    +0.061 A 
ATOM     23  C   UNL     1       5.520  -3.483   7.228  0.00  0.00    +0.029 A 
ATOM     24  C   UNL     1       4.839  -2.724   8.110  0.00  0.00    +0.035 A 
ATOM     25  C   UNL     1       4.994  -1.329   8.188  0.00  0.00    +0.128 A 
ATOM     26  C   UNL     1       5.835  -0.645   7.387  0.00  0.00    +0.060 A 
ATOM     27  C   UNL     1       6.631  -1.368   6.386  0.00  0.00    +0.063 A 
ATOM     28  N   UNL     1       7.503  -0.980   5.499  0.00  0.00    -0.355 N 
ATOM     29  H   UNL     1       7.796  -0.069   5.342  0.00  0.00    +0.162 HD
ATOM     30  H   UNL     1       7.330  -4.244   5.108  0.00  0.00    +0.162 HD
BRANCH  25  31
ATOM     31  N   UNL     1       4.201  -0.581   9.190  0.00  0.00    +0.056 N 
ATOM     32  O   UNL     1       3.439  -1.170   9.920  0.00  0.00    -0.126 OA
ATOM     33  O   UNL     1       4.316   0.620   9.277  0.00  0.00    -0.126 OA
ENDBRANCH  25  31
ENDBRANCH  19  20
ENDBRANCH   1  19
TORSDOF 7
