REMARK  Name = ZINC20220441
REMARK  8 active torsions:
REMARK  status: ('A' for Active; 'I' for Inactive)
REMARK    1  A    between atoms: C_1  and  O_2
REMARK    2  A    between atoms: O_2  and  C_3
REMARK    3  A    between atoms: C_3  and  C_5
REMARK    4  A    between atoms: C_8  and  C_9
REMARK    5  A    between atoms: C_14  and  N_36
REMARK    6  A    between atoms: C_15  and  S_27
REMARK    7  A    between atoms: C_19  and  C_22
REMARK    8  A    between atoms: S_27  and  C_30
REMARK                            x       y       z     vdW  Elec       q    Type
REMARK                         _______ _______ _______ _____ _____    ______ ____
ROOT
ATOM      1  C   UNL     1       5.703   1.149  -0.859  0.00  0.00    +0.118 C 
ATOM      2  C   UNL     1       5.071   2.374  -0.719  0.00  0.00    +0.080 A 
ATOM      3  C   UNL     1       3.898   2.860  -1.446  0.00  0.00    +0.028 A 
ATOM      4  C   UNL     1       3.238   2.240  -2.495  0.00  0.00    +0.058 C 
ATOM      5  C   UNL     1       3.570   4.154  -0.813  0.00  0.00    +0.077 A 
ATOM      6  C   UNL     1       4.503   4.395   0.118  0.00  0.00    +0.191 A 
ATOM      7  N   UNL     1       5.449   3.381   0.159  0.00  0.00    -0.260 N 
ATOM      8  C   UNL     1       6.566   3.380   0.912  0.00  0.00    +0.254 C 
ATOM      9  O   UNL     1       6.652   4.150   1.845  0.00  0.00    -0.271 OA
ATOM     10  C   UNL     1       7.703   2.436   0.631  0.00  0.00    +0.206 C 
ATOM     11  S   UNL     1       7.053   0.790   0.227  0.00  0.00    -0.095 S 
ENDROOT
BRANCH   4  12
ATOM     12  C   UNL     1       2.295   2.959  -3.256  0.00  0.00    +0.128 A 
ATOM     13  C   UNL     1       1.463   2.436  -4.230  0.00  0.00    +0.049 A 
ATOM     14  C   UNL     1       0.704   3.507  -4.724  0.00  0.00    +0.042 A 
ATOM     15  C   UNL     1       1.082   4.613  -4.045  0.00  0.00    +0.195 A 
ATOM     16  O   UNL     1       2.040   4.282  -3.166  0.00  0.00    -0.464 OA
ENDBRANCH   4  12
BRANCH  10  17
ATOM     17  C   UNL     1       8.503   2.959  -0.534  0.00  0.00    +0.127 A 
ATOM     18  C   UNL     1       9.804   3.299  -0.506  0.00  0.00    +0.046 A 
ATOM     19  C   UNL     1      10.142   3.733  -1.808  0.00  0.00    +0.041 A 
ATOM     20  C   UNL     1       9.025   3.640  -2.553  0.00  0.00    +0.195 A 
ATOM     21  O   UNL     1       8.036   3.171  -1.776  0.00  0.00    -0.466 OA
ENDBRANCH  10  17
BRANCH   6  22
ATOM     22  S   UNL     1       4.525   5.817   1.159  0.00  0.00    +0.043 S 
ATOM     23  O   UNL     1       5.891   6.098   1.433  0.00  0.00    -0.163 OA
ATOM     24  O   UNL     1       3.656   6.769   0.562  0.00  0.00    -0.163 OA
BRANCH  22  25
ATOM     25  C   UNL     1       3.789   5.353   2.691  0.00  0.00    +0.095 A 
ATOM     26  C   UNL     1       2.427   5.498   2.875  0.00  0.00    +0.027 A 
ATOM     27  C   UNL     1       1.849   5.130   4.076  0.00  0.00    +0.002 A 
ATOM     28  C   UNL     1       2.634   4.625   5.095  0.00  0.00    +0.000 A 
ATOM     29  C   UNL     1       3.997   4.484   4.912  0.00  0.00    +0.002 A 
ATOM     30  C   UNL     1       4.574   4.848   3.710  0.00  0.00    +0.027 A 
ENDBRANCH  22  25
ENDBRANCH   6  22
BRANCH   5  31
ATOM     31  N   UNL     1       2.480   4.980  -1.130  0.00  0.00    -0.355 N 
ATOM     32  H   UNL     1       2.333   5.927  -0.590  0.00  0.00    +0.142 HD
ATOM     33  H   UNL     1       1.774   4.680  -1.918  0.00  0.00    +0.142 HD
ENDBRANCH   5  31
BRANCH   1  34
ATOM     34  C   UNL     1       5.284   0.219  -1.835  0.00  0.00    +0.347 C 
ATOM     35  O   UNL     1       4.557  -0.707  -1.522  0.00  0.00    -0.244 OA
BRANCH  34  37
ATOM     36  C   UNL     1       5.226  -0.620  -4.051  0.00  0.00    +0.280 C 
ATOM     37  O   UNL     1       5.689   0.357  -3.116  0.00  0.00    -0.464 OA
ENDBRANCH  34  37
ENDBRANCH   1  34
TORSDOF 7
