REMARK  Name = ZINC32594159
REMARK  6 active torsions:
REMARK  status: ('A' for Active; 'I' for Inactive)
REMARK    1  A    between atoms: C_2  and  C_3
REMARK    2  A    between atoms: C_3  and  N_4
REMARK    3  A    between atoms: C_5  and  C_7
REMARK    4  A    between atoms: C_11  and  N_12
REMARK    5  A    between atoms: C_13  and  C_15
REMARK    6  A    between atoms: C_19  and  N_21
REMARK                            x       y       z     vdW  Elec       q    Type
REMARK                         _______ _______ _______ _____ _____    ______ ____
ROOT
ATOM      1  C   UNL     1       2.232   0.794  -0.015  0.00  0.00    +0.069 A 
ATOM      2  C   UNL     1       1.312  -0.332  -0.012  0.00  0.00    -0.023 A 
ATOM      3  C   UNL     1       0.002  -0.004   0.002  0.00  0.00    -0.004 A 
ATOM      4  S   UNL     1      -0.022   1.766   0.012  0.00  0.00    -0.077 S 
ATOM      5  C   UNL     1       1.684   2.069  -0.003  0.00  0.00    +0.085 A 
ATOM      6  C   UNL     1      -1.164  -0.944   0.007  0.00  0.00    +0.043 C 
ATOM      7  C   UNL     1      -0.660  -2.341  -0.384  0.00  0.00    +0.005 C 
ATOM      8  C   UNL     1       0.590  -2.663   0.439  0.00  0.00    +0.005 C 
ATOM      9  C   UNL     1       1.757  -1.789  -0.024  0.00  0.00    +0.037 C 
ENDROOT
BRANCH   1  11
ATOM     10  N   UNL     1       4.362   0.489   1.129  0.00  0.00    -0.308 N 
ATOM     11  C   UNL     1       3.683   0.590  -0.031  0.00  0.00    +0.247 C 
ATOM     12  O   UNL     1       4.275   0.511  -1.091  0.00  0.00    -0.270 OA
ATOM     13  H   UNL     1       3.827   0.561   2.088  0.00  0.00    +0.149 HD
BRANCH  10  14
ATOM     14  C   UNL     1       5.813   0.286   1.114  0.00  0.00    +0.131 C 
BRANCH  14  16
ATOM     15  C   UNL     1       7.023  -0.830   2.917  0.00  0.00    +0.005 C 
ATOM     16  C   UNL     1       6.324   0.208   2.529  0.00  0.00    -0.016 C 
ENDBRANCH  14  16
ENDBRANCH  10  14
ENDBRANCH   1  11
BRANCH   5  17
ATOM     17  N   UNL     1       2.342   3.288  -0.003  0.00  0.00    -0.275 N 
ATOM     18  C   UNL     1       1.635   4.436   0.010  0.00  0.00    +0.249 C 
ATOM     19  O   UNL     1       0.419   4.401   0.022  0.00  0.00    -0.270 OA
ATOM     20  H   UNL     1       3.441   3.320  -0.014  0.00  0.00    +0.156 HD
BRANCH  18  21
ATOM     21  C   UNL     1       2.336   5.737   0.010  0.00  0.00    +0.039 A 
ATOM     22  C   UNL     1       3.732   5.780   0.002  0.00  0.00    +0.013 A 
ATOM     23  C   UNL     1       4.384   6.995  -0.004  0.00  0.00    +0.003 A 
ATOM     24  C   UNL     1       3.660   8.174   0.010  0.00  0.00    +0.028 A 
ATOM     25  C   UNL     1       2.272   8.141   0.023  0.00  0.00    +0.069 A 
ATOM     26  C   UNL     1       1.607   6.925   0.023  0.00  0.00    +0.041 A 
BRANCH  25  27
ATOM     27  N   UNL     1       1.542   9.339   0.036  0.00  0.00    -0.200 N 
ATOM     28  C   UNL     1       2.033  10.598   0.038  0.00  0.00    +0.250 A 
ATOM     29  N   UNL     1       1.010  11.413   0.052  0.00  0.00    -0.116 NA
ATOM     30  N   UNL     1      -0.093  10.755   0.059  0.00  0.00    -0.023 NA
ATOM     31  N   UNL     1       0.144   9.488   0.044  0.00  0.00    -0.039 NA
ENDBRANCH  25  27
ENDBRANCH  18  21
ENDBRANCH   5  17
TORSDOF 6
