REMARK  Name = ZINC65155469
REMARK  7 active torsions:
REMARK  status: ('A' for Active; 'I' for Inactive)
REMARK    1  A    between atoms: C_1  and  C_2
REMARK    2  A    between atoms: C_2  and  C_3
REMARK    3  A    between atoms: C_8  and  N_9
REMARK    4  A    between atoms: C_10  and  C_12
REMARK    5  A    between atoms: C_12  and  N_13
REMARK    6  A    between atoms: C_20  and  C_23
REMARK    7  A    between atoms: C_20  and  O_30
REMARK                            x       y       z     vdW  Elec       q    Type
REMARK                         _______ _______ _______ _____ _____    ______ ____
ROOT
ATOM      1  N   UNL     1      -2.353  -0.595  -5.972  0.00  0.00    -0.259 N 
ATOM      2  C   UNL     1      -2.435  -1.855  -6.566  0.00  0.00    +0.044 A 
ATOM      3  C   UNL     1      -1.748  -3.036  -6.296  0.00  0.00    +0.024 A 
ATOM      4  C   UNL     1      -2.007  -4.173  -7.033  0.00  0.00    +0.002 A 
ATOM      5  C   UNL     1      -2.950  -4.150  -8.045  0.00  0.00    +0.000 A 
ATOM      6  C   UNL     1      -3.637  -2.981  -8.319  0.00  0.00    +0.009 A 
ATOM      7  C   UNL     1      -3.379  -1.845  -7.585  0.00  0.00    +0.019 A 
ATOM      8  C   UNL     1      -3.941  -0.442  -7.630  0.00  0.00    +0.194 C 
ATOM      9  C   UNL     1      -3.201   0.286  -6.529  0.00  0.00    +0.261 C 
ATOM     10  O   UNL     1      -3.345   1.448  -6.210  0.00  0.00    -0.271 OA
ENDROOT
BRANCH   8  11
ATOM     11  C   UNL     1      -3.665   0.194  -8.968  0.00  0.00    -0.001 A 
ATOM     12  C   UNL     1      -2.540  -0.167  -9.687  0.00  0.00    +0.007 A 
ATOM     13  C   UNL     1      -2.286   0.416 -10.914  0.00  0.00    +0.002 A 
ATOM     14  C   UNL     1      -3.156   1.361 -11.423  0.00  0.00    +0.020 A 
ATOM     15  C   UNL     1      -4.281   1.724 -10.705  0.00  0.00    +0.041 A 
ATOM     16  C   UNL     1      -4.538   1.135  -9.479  0.00  0.00    +0.027 A 
ATOM     17 CL   UNL     1      -5.375   2.911 -11.345  0.00  0.00    -0.084 Cl
ENDBRANCH   8  11
BRANCH   8  18
ATOM     18  O   UNL     1      -5.344  -0.456  -7.361  0.00  0.00    -0.371 OA
ATOM     19  H   UNL     1      -5.756   0.419  -7.378  0.00  0.00    +0.212 HD
ENDBRANCH   8  18
BRANCH   1  20
ATOM     20  C   UNL     1      -1.451  -0.272  -4.864  0.00  0.00    +0.209 C 
BRANCH  20  22
ATOM     21  N   UNL     1      -1.505  -0.315  -2.391  0.00  0.00    -0.284 N 
ATOM     22  C   UNL     1      -2.147  -0.541  -3.555  0.00  0.00    +0.235 C 
ATOM     23  O   UNL     1      -3.285  -0.961  -3.548  0.00  0.00    -0.274 OA
ATOM     24  H   UNL     1      -0.620   0.082  -2.395  0.00  0.00    +0.155 HD
BRANCH  21  30
ATOM     25  C   UNL     1      -1.349  -1.119  -0.119  0.00  0.00    -0.026 A 
ATOM     26  C   UNL     1      -1.954  -1.445   1.079  0.00  0.00    +0.005 A 
ATOM     27  C   UNL     1      -3.322  -1.313   1.222  0.00  0.00    +0.000 A 
ATOM     28  C   UNL     1      -4.090  -0.854   0.168  0.00  0.00    +0.002 A 
ATOM     29  C   UNL     1      -3.491  -0.525  -1.033  0.00  0.00    +0.023 A 
ATOM     30  C   UNL     1      -2.116  -0.652  -1.178  0.00  0.00    +0.037 A 
BRANCH  25  32
ATOM     31  C   UNL     1       0.819   0.078   0.019  0.00  0.00    +0.009 C 
ATOM     32  C   UNL     1       0.143  -1.263  -0.275  0.00  0.00    +0.033 C 
ENDBRANCH  25  32
ENDBRANCH  21  30
ENDBRANCH  20  22
ENDBRANCH   1  20
TORSDOF 6
