REMARK  Name = ZINC39631541
REMARK  17 active torsions:
REMARK  status: ('A' for Active; 'I' for Inactive)
REMARK    1  A    between atoms: C_1  and  C_2
REMARK    2  A    between atoms: C_2  and  C_4
REMARK    3  A    between atoms: C_2  and  N_11
REMARK    4  A    between atoms: C_4  and  C_5
REMARK    5  A    between atoms: C_5  and  C_6
REMARK    6  A    between atoms: C_6  and  C_7
REMARK    7  A    between atoms: C_7  and  C_8
REMARK    8  A    between atoms: C_7  and  C_9
REMARK    9  A    between atoms: C_7  and  O_10
REMARK   10  A    between atoms: C_12  and  C_14
REMARK   11  A    between atoms: C_25  and  C_27
REMARK   12  A    between atoms: C_29  and  O_37
REMARK   13  A    between atoms: C_30  and  O_35
REMARK   14  A    between atoms: C_31  and  O_33
REMARK   15  A    between atoms: O_33  and  C_34
REMARK   16  A    between atoms: O_35  and  C_36
REMARK   17  A    between atoms: O_37  and  C_38
REMARK                            x       y       z     vdW  Elec       q    Type
REMARK                         _______ _______ _______ _____ _____    ______ ____
ROOT
ATOM      1  C   UNL     1       3.475   0.114   1.661  0.00  0.00    +0.100 C 
ATOM      2  C   UNL     1       3.157  -1.278   2.252  0.00  0.00    +0.121 C 
ATOM      3  N   UNL     1       4.463  -1.977   2.289  0.00  0.00    -0.296 N 
ATOM      4  C   UNL     1       5.429  -0.931   2.704  0.00  0.00    +0.115 C 
ATOM      5  C   UNL     1       4.966   0.339   1.963  0.00  0.00    -0.004 C 
ATOM      6  C   UNL     1       5.146   1.565   2.853  0.00  0.00    -0.010 C 
ATOM      7  C   UNL     1       6.640   1.803   3.091  0.00  0.00    -0.082 C 
ATOM      8  N   UNL     1       7.317   2.004   1.804  0.00  0.00    +0.379 N 
ATOM      9  C   UNL     1       7.219   0.786   0.991  0.00  0.00    -0.082 C 
ATOM     10  C   UNL     1       5.749   0.505   0.664  0.00  0.00    -0.010 C 
ATOM     11  C   UNL     1       4.715  -3.271   2.010  0.00  0.00    +0.247 C 
ATOM     12  O   UNL     1       5.837  -3.717   2.159  0.00  0.00    -0.270 OA
ATOM     13  H   UNL     1       6.882   2.771   1.313  0.00  0.00    -0.086 HD
ATOM     14  H   UNL     1       8.289   2.221   1.967  0.00  0.00    -0.086 HD
ENDROOT
BRANCH  11  15
ATOM     15  C   UNL     1       3.631  -4.146   1.524  0.00  0.00    +0.044 A 
ATOM     16  C   UNL     1       2.301  -3.853   1.838  0.00  0.00    +0.062 A 
ATOM     17  C   UNL     1       1.287  -4.674   1.381  0.00  0.00    +0.166 A 
ATOM     18  C   UNL     1       1.590  -5.793   0.610  0.00  0.00    +0.204 A 
ATOM     19  C   UNL     1       2.914  -6.088   0.297  0.00  0.00    +0.166 A 
ATOM     20  C   UNL     1       3.931  -5.267   0.746  0.00  0.00    +0.062 A 
BRANCH  19  21
ATOM     21  O   UNL     1       3.207  -7.183  -0.456  0.00  0.00    -0.491 OA
ATOM     22  C   UNL     1       4.587  -7.425  -0.739  0.00  0.00    +0.277 C 
ENDBRANCH  19  21
BRANCH  18  23
ATOM     23  O   UNL     1       0.592  -6.599   0.163  0.00  0.00    -0.488 OA
ATOM     24  C   UNL     1      -0.038  -6.231  -1.066  0.00  0.00    +0.277 C 
ENDBRANCH  18  23
BRANCH  17  25
ATOM     25  O   UNL     1      -0.007  -4.389   1.685  0.00  0.00    -0.491 OA
ATOM     26  C   UNL     1      -0.257  -3.161   2.372  0.00  0.00    +0.277 C 
ENDBRANCH  17  25
ENDBRANCH  11  15
BRANCH   1  28
ATOM     27  N   UNL     1       2.929   1.272  -0.456  0.00  0.00    -0.312 N 
ATOM     28  C   UNL     1       3.235   0.119   0.173  0.00  0.00    +0.218 C 
ATOM     29  O   UNL     1       3.316  -0.913  -0.458  0.00  0.00    -0.275 OA
ATOM     30  H   UNL     1       2.939   2.109   0.034  0.00  0.00    +0.149 HD
BRANCH  27  32
ATOM     31  C   UNL     1       3.859   1.351  -2.716  0.00  0.00    +0.028 C 
ATOM     32  C   UNL     1       2.582   1.260  -1.879  0.00  0.00    +0.070 C 
BRANCH  32  33
ATOM     33  C   UNL     1       1.679   2.454  -2.194  0.00  0.00    +0.022 C 
BRANCH  33  34
ATOM     34  C   UNL     1       0.368   2.322  -1.417  0.00  0.00    +0.005 C 
BRANCH  34  35
ATOM     35  C   UNL     1      -0.583   3.448  -1.826  0.00  0.00    +0.034 C 
BRANCH  35  36
ATOM     36  C   UNL     1      -1.917   3.280  -1.095  0.00  0.00    +0.061 C 
ATOM     37  C   UNL     1      -2.843   4.445  -1.449  0.00  0.00    +0.041 C 
ATOM     38  C   UNL     1      -2.569   1.963  -1.520  0.00  0.00    +0.041 C 
BRANCH  36  39
ATOM     39  O   UNL     1      -1.688   3.265   0.316  0.00  0.00    -0.389 OA
ATOM     40  H   UNL     1      -1.346   4.098   0.667  0.00  0.00    +0.210 HD
ENDBRANCH  36  39
ENDBRANCH  35  36
ENDBRANCH  34  35
ENDBRANCH  33  34
ENDBRANCH  32  33
ENDBRANCH  27  32
ENDBRANCH   1  28
TORSDOF 11
