REMARK  Name = ZINC25455670
REMARK  12 active torsions:
REMARK  status: ('A' for Active; 'I' for Inactive)
REMARK    1  A    between atoms: C_1  and  C_2
REMARK    2  A    between atoms: C_2  and  C_3
REMARK    3  A    between atoms: C_3  and  C_4
REMARK    4  A    between atoms: C_4  and  N_5
REMARK    5  A    between atoms: N_5  and  C_6
REMARK    6  A    between atoms: C_7  and  N_18
REMARK    7  A    between atoms: N_8  and  C_15
REMARK    8  A    between atoms: C_15  and  C_16
REMARK    9  A    between atoms: C_16  and  C_17
REMARK   10  A    between atoms: C_19  and  C_21
REMARK   11  A    between atoms: C_21  and  N_22
REMARK   12  A    between atoms: C_30  and  C_33
REMARK                            x       y       z     vdW  Elec       q    Type
REMARK                         _______ _______ _______ _____ _____    ______ ____
ROOT
ATOM      1  N   UNL     1      -7.761   4.166  -3.123  0.00  0.00    -0.266 N 
ATOM      2  C   UNL     1      -6.910   4.389  -2.100  0.00  0.00    +0.203 C 
ATOM      3  O   UNL     1      -7.336   4.757  -1.025  0.00  0.00    -0.277 OA
ENDROOT
BRANCH   1   4
ATOM      4  C   UNL     1      -9.134   4.457  -2.974  0.00  0.00    +0.140 A 
ATOM      5  C   UNL     1      -9.917   3.724  -2.106  0.00  0.00    +0.127 A 
ATOM      6  N   UNL     1     -11.251   4.034  -1.980  0.00  0.00    -0.280 N 
ATOM      7  C   UNL     1     -11.789   5.034  -2.702  0.00  0.00    +0.331 A 
ATOM      8  O   UNL     1     -12.971   5.290  -2.579  0.00  0.00    -0.246 OA
ATOM      9  N   UNL     1     -11.043   5.756  -3.556  0.00  0.00    -0.273 N 
ATOM     10  H   UNL     1     -11.503   6.570  -4.136  0.00  0.00    +0.173 HD
ATOM     11  C   UNL     1      -9.730   5.496  -3.713  0.00  0.00    +0.277 A 
ATOM     12  O   UNL     1      -9.062   6.157  -4.491  0.00  0.00    -0.266 OA
BRANCH   5  13
ATOM     13  N   UNL     1      -9.369   2.699  -1.373  0.00  0.00    -0.343 N 
ATOM     14  H   UNL     1      -9.999   2.118  -0.683  0.00  0.00    +0.144 HD
ATOM     15  H   UNL     1      -8.300   2.459  -1.476  0.00  0.00    +0.144 HD
ENDBRANCH   5  13
BRANCH   6  16
ATOM     16  C   UNL     1     -12.093   3.267  -1.058  0.00  0.00    +0.128 C 
BRANCH  16  17
ATOM     17  C   UNL     1     -12.696   2.070  -1.795  0.00  0.00    +0.018 C 
ATOM     18  C   UNL     1     -13.575   1.268  -0.833  0.00  0.00    +0.005 C 
ENDBRANCH  16  17
ENDBRANCH   6  16
ENDBRANCH   1   4
BRANCH   1  19
ATOM     19  C   UNL     1      -7.261   3.622  -4.388  0.00  0.00    +0.114 C 
BRANCH  19  20
ATOM     20  C   UNL     1      -7.418   2.100  -4.386  0.00  0.00    +0.019 C 
BRANCH  20  22
ATOM     21  C   UNL     1      -7.052   0.010  -5.706  0.00  0.00    +0.004 C 
ATOM     22  C   UNL     1      -6.895   1.532  -5.707  0.00  0.00    -0.002 C 
ENDBRANCH  20  22
ENDBRANCH  19  20
ENDBRANCH   1  19
BRANCH   2  23
ATOM     23  C   UNL     1      -5.430   4.181  -2.293  0.00  0.00    +0.020 C 
BRANCH  23  24
ATOM     24  N   UNL     1      -4.728   4.466  -1.035  0.00  0.00    +0.389 N 
ATOM     25  C   UNL     1      -3.320   4.062  -1.115  0.00  0.00    -0.042 C 
ATOM     26  C   UNL     1      -2.587   4.450   0.142  0.00  0.00    -0.060 A 
ATOM     27  C   UNL     1      -1.368   3.844   0.409  0.00  0.00    +0.002 A 
ATOM     28  C   UNL     1      -0.659   4.173   1.542  0.00  0.00    +0.000 A 
ATOM     29  C   UNL     1      -1.165   5.111   2.422  0.00  0.00    +0.000 A 
ATOM     30  C   UNL     1      -2.379   5.714   2.160  0.00  0.00    +0.004 A 
ATOM     31  C   UNL     1      -3.093   5.383   1.019  0.00  0.00    -0.040 A 
ATOM     32  C   UNL     1      -4.416   6.064   0.776  0.00  0.00    +0.033 C 
ATOM     33  C   UNL     1      -4.829   5.892  -0.686  0.00  0.00    -0.065 C 
ATOM     34  H   UNL     1      -5.211   3.876  -0.242  0.00  0.00    -0.081 HD
BRANCH  32  35
ATOM     35  C   UNL     1      -4.288   7.532   1.091  0.00  0.00    -0.042 A 
ATOM     36  C   UNL     1      -3.385   8.312   0.393  0.00  0.00    +0.004 A 
ATOM     37  C   UNL     1      -3.265   9.658   0.685  0.00  0.00    +0.000 A 
ATOM     38  C   UNL     1      -4.054  10.226   1.667  0.00  0.00    +0.000 A 
ATOM     39  C   UNL     1      -4.960   9.447   2.362  0.00  0.00    +0.000 A 
ATOM     40  C   UNL     1      -5.077   8.100   2.074  0.00  0.00    +0.004 A 
ENDBRANCH  32  35
ENDBRANCH  23  24
ENDBRANCH   2  23
TORSDOF 10
