REMARK  Name = ZINC39672118
REMARK  5 active torsions:
REMARK  status: ('A' for Active; 'I' for Inactive)
REMARK    1  A    between atoms: C_1  and  N_2
REMARK    2  A    between atoms: C_10  and  C_12
REMARK    3  A    between atoms: C_12  and  N_13
REMARK    4  A    between atoms: C_14  and  C_16
REMARK    5  A    between atoms: C_27  and  C_29
REMARK                            x       y       z     vdW  Elec       q    Type
REMARK                         _______ _______ _______ _____ _____    ______ ____
ROOT
ATOM      1  C   UNL     1       7.116  -2.792   2.395  0.00  0.00    +0.100 C 
ATOM      2  C   UNL     1       7.260  -1.295   2.751  0.00  0.00    +0.121 C 
ATOM      3  N   UNL     1       8.533  -1.210   3.505  0.00  0.00    -0.296 N 
ATOM      4  C   UNL     1       9.443  -2.144   2.799  0.00  0.00    +0.115 C 
ATOM      5  C   UNL     1       8.551  -3.345   2.427  0.00  0.00    -0.004 C 
ATOM      6  C   UNL     1       8.940  -3.885   1.054  0.00  0.00    -0.010 C 
ATOM      7  C   UNL     1      10.348  -4.483   1.126  0.00  0.00    -0.082 C 
ATOM      8  N   UNL     1      10.374  -5.560   2.123  0.00  0.00    +0.379 N 
ATOM      9  C   UNL     1      10.090  -5.015   3.456  0.00  0.00    -0.082 C 
ATOM     10  C   UNL     1       8.671  -4.440   3.483  0.00  0.00    -0.010 C 
ATOM     11  C   UNL     1       8.803  -0.455   4.588  0.00  0.00    +0.247 C 
ATOM     12  O   UNL     1       7.915   0.183   5.120  0.00  0.00    -0.270 OA
ATOM     13  H   UNL     1       9.677  -6.251   1.888  0.00  0.00    -0.086 HD
ATOM     14  H   UNL     1      11.286  -5.992   2.125  0.00  0.00    -0.086 HD
ENDROOT
BRANCH  11  15
ATOM     15  C   UNL     1      10.177  -0.404   5.130  0.00  0.00    +0.038 A 
ATOM     16  C   UNL     1      11.268  -0.672   4.300  0.00  0.00    +0.014 A 
ATOM     17  C   UNL     1      12.547  -0.622   4.811  0.00  0.00    +0.022 A 
ATOM     18  C   UNL     1      12.753  -0.308   6.144  0.00  0.00    +0.059 A 
ATOM     19  C   UNL     1      11.675  -0.041   6.973  0.00  0.00    +0.060 A 
ATOM     20  C   UNL     1      10.389  -0.082   6.471  0.00  0.00    +0.034 A 
ATOM     21 CL   UNL     1      11.942   0.352   8.642  0.00  0.00    -0.082 Cl
ATOM     22 CL   UNL     1      14.368  -0.249   6.779  0.00  0.00    -0.082 Cl
ENDBRANCH  11  15
BRANCH   1  24
ATOM     23  N   UNL     1       5.763  -4.024   0.731  0.00  0.00    -0.311 N 
ATOM     24  C   UNL     1       6.524  -2.949   1.018  0.00  0.00    +0.218 C 
ATOM     25  O   UNL     1       6.731  -2.109   0.169  0.00  0.00    -0.275 OA
ATOM     26  H   UNL     1       5.596  -4.696   1.411  0.00  0.00    +0.149 HD
BRANCH  23  27
ATOM     27  C   UNL     1       5.187  -4.177  -0.607  0.00  0.00    +0.139 C 
BRANCH  27  37
ATOM     28  C   UNL     1       0.832  -9.020  -0.201  0.00  0.00    +0.129 C 
ATOM     29  N   UNL     1       2.159  -8.969  -0.818  0.00  0.00    -0.333 N 
ATOM     30  C   UNL     1       2.712 -10.149  -1.498  0.00  0.00    +0.105 C 
ATOM     31  C   UNL     1       4.173 -10.303  -1.056  0.00  0.00    +0.024 C 
ATOM     32  C   UNL     1       4.962  -9.079  -1.524  0.00  0.00    +0.038 C 
ATOM     33  C   UNL     1       4.269  -7.812  -1.097  0.00  0.00    -0.026 A 
ATOM     34  C   UNL     1       2.920  -7.795  -0.774  0.00  0.00    +0.033 A 
ATOM     35  C   UNL     1       2.308  -6.606  -0.394  0.00  0.00    +0.024 A 
ATOM     36  C   UNL     1       3.042  -5.438  -0.341  0.00  0.00    +0.007 A 
ATOM     37  C   UNL     1       4.385  -5.452  -0.666  0.00  0.00    -0.030 A 
ATOM     38  C   UNL     1       5.000  -6.637  -1.036  0.00  0.00    +0.010 A 
ENDBRANCH  27  37
ENDBRANCH  23  27
ENDBRANCH   1  24
TORSDOF 4
