REMARK  Name = ZINC06198144
REMARK  13 active torsions:
REMARK  status: ('A' for Active; 'I' for Inactive)
REMARK    1  A    between atoms: C_1  and  C_2
REMARK    2  A    between atoms: C_2  and  C_3
REMARK    3  A    between atoms: C_10  and  C_15
REMARK    4  A    between atoms: C_15  and  C_17
REMARK    5  A    between atoms: C_15  and  N_66
REMARK    6  A    between atoms: N_21  and  C_22
REMARK    7  A    between atoms: C_22  and  C_23
REMARK    8  A    between atoms: C_22  and  C_24
REMARK    9  A    between atoms: C_22  and  C_25
REMARK   10  A    between atoms: C_26  and  C_27
REMARK   11  A    between atoms: C_26  and  N_66
REMARK   12  A    between atoms: C_32  and  C_33
REMARK   13  A    between atoms: C_32  and  N_66
REMARK                            x       y       z     vdW  Elec       q    Type
REMARK                         _______ _______ _______ _____ _____    ______ ____
ROOT
ATOM      1  C   UNL     1      -2.666   2.614   1.064  0.00  0.00    +0.040 C 
ENDROOT
BRANCH   1   9
ATOM      2  C   UNL     1      -6.117   5.668   5.193  0.00  0.00    -0.047 A 
ATOM      3  C   UNL     1      -6.054   4.705   6.191  0.00  0.00    +0.005 A 
ATOM      4  C   UNL     1      -5.353   3.535   5.997  0.00  0.00    +0.026 A 
ATOM      5  C   UNL     1      -4.698   3.315   4.789  0.00  0.00    +0.049 A 
ATOM      6  C   UNL     1      -4.764   4.294   3.779  0.00  0.00    -0.001 A 
ATOM      7  C   UNL     1      -5.483   5.474   3.999  0.00  0.00    +0.013 A 
ATOM      8  C   UNL     1      -4.067   4.056   2.514  0.00  0.00    +0.017 A 
ATOM      9  C   UNL     1      -3.390   2.892   2.356  0.00  0.00    +0.011 A 
ATOM     10  C   UNL     1      -3.355   1.943   3.400  0.00  0.00    +0.251 A 
ATOM     11  O   UNL     1      -2.737   0.905   3.239  0.00  0.00    -0.268 OA
ATOM     12  N   UNL     1      -3.988   2.155   4.568  0.00  0.00    -0.322 N 
ATOM     13  H   UNL     1      -3.942   1.460   5.286  0.00  0.00    +0.169 HD
BRANCH   2  15
ATOM     14  C   UNL     1      -8.341   6.744   4.981  0.00  0.00    +0.009 C 
ATOM     15  C   UNL     1      -6.891   6.939   5.430  0.00  0.00    +0.032 C 
ENDBRANCH   2  15
ENDBRANCH   1   9
BRANCH   1  16
ATOM     16  C   UNL     1      -3.418   1.567   0.283  0.00  0.00    +0.143 A 
ATOM     17  N   UNL     1      -3.644   0.329   0.649  0.00  0.00    -0.115 NA
ATOM     18  N   UNL     1      -4.319  -0.246  -0.286  0.00  0.00    -0.023 NA
ATOM     19  N   UNL     1      -4.522   0.591  -1.243  0.00  0.00    -0.043 NA
ATOM     20  N   UNL     1      -3.981   1.720  -0.930  0.00  0.00    -0.225 N 
BRANCH  20  21
ATOM     21  C   UNL     1      -3.982   2.940  -1.742  0.00  0.00    +0.059 C 
ATOM     22  C   UNL     1      -2.540   3.333  -2.071  0.00  0.00    +0.036 C 
ATOM     23  C   UNL     1      -4.751   2.688  -3.040  0.00  0.00    +0.036 C 
ATOM     24  C   UNL     1      -4.654   4.071  -0.962  0.00  0.00    +0.036 C 
ENDBRANCH  20  21
ENDBRANCH   1  16
BRANCH   1  25
ATOM     25  N   UNL     1      -1.313   2.109   1.379  0.00  0.00    +0.397 N 
ATOM     26  H   UNL     1      -1.377   1.451   2.164  0.00  0.00    -0.079 HD
BRANCH  25  27
ATOM     27  C   UNL     1      -0.751   1.404   0.207  0.00  0.00    -0.001 C 
BRANCH  27  28
ATOM     28  C   UNL     1       0.523   0.714   0.620  0.00  0.00    +0.089 A 
ATOM     29  C   UNL     1       0.618  -0.533   1.115  0.00  0.00    +0.042 A 
ATOM     30  C   UNL     1       1.990  -0.774   1.357  0.00  0.00    +0.041 A 
ATOM     31  C   UNL     1       2.651   0.340   0.996  0.00  0.00    +0.195 A 
ATOM     32  O   UNL     1       1.758   1.238   0.550  0.00  0.00    -0.470 OA
ENDBRANCH  27  28
ENDBRANCH  25  27
BRANCH  25  33
ATOM     33  C   UNL     1      -0.432   3.231   1.764  0.00  0.00    -0.034 C 
BRANCH  33  34
ATOM     34  C   UNL     1      -0.771   3.652   3.170  0.00  0.00    -0.027 A 
ATOM     35  C   UNL     1      -0.406   3.080   4.344  0.00  0.00    +0.009 A 
ATOM     36  C   UNL     1      -0.839   3.645   5.528  0.00  0.00    +0.008 A 
ATOM     37  C   UNL     1      -1.616   4.755   5.482  0.00  0.00    +0.045 A 
ATOM     38  S   UNL     1      -1.751   5.037   3.724  0.00  0.00    -0.103 S 
ENDBRANCH  33  34
ENDBRANCH  25  33
ENDBRANCH   1  25
TORSDOF 9
