REMARK  Name = ZINC35768257
REMARK  6 active torsions:
REMARK  status: ('A' for Active; 'I' for Inactive)
REMARK    1  A    between atoms: C_4  and  C_7
REMARK    2  A    between atoms: C_10  and  C_12
REMARK    3  A    between atoms: C_21  and  C_25
REMARK    4  A    between atoms: N_27  and  C_28
REMARK    5  A    between atoms: C_28  and  C_29
REMARK    6  A    between atoms: C_29  and  C_30
REMARK                            x       y       z     vdW  Elec       q    Type
REMARK                         _______ _______ _______ _____ _____    ______ ____
ROOT
ATOM      1  C   UNL     1       2.963  -1.775   2.208  0.00  0.00    +0.219 C 
ATOM      2  O   UNL     1       1.933  -1.139   2.130  0.00  0.00    -0.275 OA
ATOM      3  N   UNL     1       3.172  -2.593   3.258  0.00  0.00    -0.301 N 
ATOM      4  C   UNL     1       4.417  -3.365   3.368  0.00  0.00    +0.107 C 
ATOM      5  C   UNL     1       5.063  -3.065   4.726  0.00  0.00    +0.017 C 
ATOM      6  C   UNL     1       4.050  -3.304   5.834  0.00  0.00    -0.016 C 
ATOM      7  C   UNL     1       2.817  -2.430   5.667  0.00  0.00    +0.017 C 
ATOM      8  C   UNL     1       2.161  -2.723   4.317  0.00  0.00    +0.107 C 
ATOM      9  N   UNL     1       3.681  -4.732   5.916  0.00  0.00    +0.397 N 
ATOM     10  C   UNL     1       4.584  -5.486   6.808  0.00  0.00    +0.028 C 
ATOM     11  C   UNL     1       4.743  -4.696   8.143  0.00  0.00    +0.061 C 
ATOM     12  S   UNL     1       4.825  -2.980   7.467  0.00  0.00    -0.174 S 
ATOM     13  H   UNL     1       2.737  -4.808   6.265  0.00  0.00    -0.083 HD
ATOM     14  H   UNL     1       3.721  -5.135   4.992  0.00  0.00    -0.083 HD
ENDROOT
BRANCH  10  15
ATOM     15  C   UNL     1       3.998  -6.844   7.093  0.00  0.00    +0.200 C 
ATOM     16  O   UNL     1       2.933  -7.160   6.605  0.00  0.00    -0.278 OA
ATOM     17  N   UNL     1       4.656  -7.709   7.891  0.00  0.00    -0.316 N 
ATOM     18  H   UNL     1       5.507  -7.456   8.282  0.00  0.00    +0.149 HD
BRANCH  17  19
ATOM     19  C   UNL     1       4.085  -9.029   8.168  0.00  0.00    +0.109 C 
BRANCH  19  20
ATOM     20  C   UNL     1       5.024  -9.807   9.093  0.00  0.00    +0.055 C 
BRANCH  20  21
ATOM     21  C   UNL     1       4.438 -11.165   9.378  0.00  0.00    -0.027 A 
ATOM     22  C   UNL     1       3.679 -11.365  10.516  0.00  0.00    +0.006 A 
ATOM     23  C   UNL     1       3.140 -12.611  10.778  0.00  0.00    +0.020 A 
ATOM     24  C   UNL     1       3.361 -13.658   9.901  0.00  0.00    +0.042 A 
ATOM     25  C   UNL     1       4.120 -13.459   8.762  0.00  0.00    +0.040 A 
ATOM     26  C   UNL     1       4.654 -12.210   8.498  0.00  0.00    +0.046 A 
ATOM     27 CL   UNL     1       5.602 -11.957   7.066  0.00  0.00    -0.083 Cl
ATOM     28 CL   UNL     1       2.685 -15.223  10.230  0.00  0.00    -0.083 Cl
ENDBRANCH  20  21
ENDBRANCH  19  20
ENDBRANCH  17  19
ENDBRANCH  10  15
BRANCH   1  31
ATOM     29  C   UNL     1       3.711  -0.707  -0.038  0.00  0.00    +0.032 C 
ATOM     30  C   UNL     1       3.671  -2.222  -0.251  0.00  0.00    +0.022 C 
ATOM     31  C   UNL     1       4.008  -1.652   1.129  0.00  0.00    +0.083 C 
BRANCH  29  35
ATOM     32  C   UNL     1      -0.017   1.378   0.010  0.00  0.00    +0.000 A 
ATOM     33  C   UNL     1       1.171   2.086   0.002  0.00  0.00    +0.000 A 
ATOM     34  C   UNL     1       2.377   1.411  -0.013  0.00  0.00    +0.004 A 
ATOM     35  C   UNL     1       2.396   0.029  -0.020  0.00  0.00    -0.044 A 
ATOM     36  C   UNL     1       1.208  -0.679  -0.012  0.00  0.00    +0.004 A 
ATOM     37  C   UNL     1       0.002  -0.004   0.002  0.00  0.00    +0.000 A 
ENDBRANCH  29  35
ENDBRANCH   1  31
TORSDOF 6
