REMARK  Name = ZINC05794586
REMARK  10 active torsions:
REMARK  status: ('A' for Active; 'I' for Inactive)
REMARK    1  A    between atoms: C_1  and  C_2
REMARK    2  A    between atoms: C_4  and  C_25
REMARK    3  A    between atoms: C_6  and  C_8
REMARK    4  A    between atoms: C_11  and  S_13
REMARK    5  A    between atoms: S_13  and  C_14
REMARK    6  A    between atoms: C_14  and  C_15
REMARK    7  A    between atoms: N_20  and  C_21
REMARK    8  A    between atoms: C_21  and  C_22
REMARK    9  A    between atoms: C_21  and  C_23
REMARK   10  A    between atoms: C_21  and  C_24
REMARK                            x       y       z     vdW  Elec       q    Type
REMARK                         _______ _______ _______ _____ _____    ______ ____
ROOT
ATOM      1  S   UNL     1      -6.360   0.597   0.035  0.00  0.00    -0.056 S 
ENDROOT
BRANCH   1   5
ATOM      2  C   UNL     1      -2.502   1.008   0.019  0.00  0.00    +0.249 A 
ATOM      3  N   UNL     1      -2.634  -0.296   0.013  0.00  0.00    -0.106 NA
ATOM      4  N   UNL     1      -3.884  -0.600   0.018  0.00  0.00    -0.101 NA
ATOM      5  C   UNL     1      -4.601   0.499   0.026  0.00  0.00    +0.278 A 
ATOM      6  O   UNL     1      -3.745   1.539   0.034  0.00  0.00    -0.411 OA
BRANCH   2  12
ATOM      7  C   UNL     1      -0.057   5.357   0.029  0.00  0.00    +0.044 C 
ATOM      8  C   UNL     1      -0.048   3.850   0.022  0.00  0.00    -0.049 A 
ATOM      9  C   UNL     1       1.155   3.167   0.008  0.00  0.00    +0.006 A 
ATOM     10  C   UNL     1       1.172   1.783   0.000  0.00  0.00    -0.049 A 
ATOM     11  C   UNL     1      -0.013   1.076   0.008  0.00  0.00    +0.016 A 
ATOM     12  C   UNL     1      -1.230   1.759   0.017  0.00  0.00    +0.039 A 
ATOM     13  C   UNL     1      -1.240   3.155   0.030  0.00  0.00    +0.016 A 
ATOM     14  C   UNL     1       2.487   1.048  -0.015  0.00  0.00    +0.044 C 
ENDBRANCH   2  12
ENDBRANCH   1   5
BRANCH   1  15
ATOM     15  C   UNL     1      -6.773  -1.165   0.029  0.00  0.00    +0.175 C 
BRANCH  15  16
ATOM     16  C   UNL     1      -8.271  -1.331   0.035  0.00  0.00    +0.231 C 
ATOM     17  O   UNL     1      -8.988  -0.354   0.044  0.00  0.00    -0.274 OA
ATOM     18  N   UNL     1      -8.812  -2.565   0.032  0.00  0.00    -0.239 N 
ATOM     19  C   UNL     1     -10.152  -2.713   0.037  0.00  0.00    +0.306 C 
ATOM     20  O   UNL     1     -10.871  -1.733   0.046  0.00  0.00    -0.252 OA
ATOM     21  N   UNL     1     -10.694  -3.947   0.034  0.00  0.00    -0.294 N 
ATOM     22  H   UNL     1      -8.238  -3.346   0.025  0.00  0.00    +0.159 HD
ATOM     23  H   UNL     1     -10.120  -4.728   0.027  0.00  0.00    +0.151 HD
BRANCH  21  24
ATOM     24  C   UNL     1     -12.150  -4.107   0.040  0.00  0.00    +0.028 C 
ATOM     25  C   UNL     1     -12.742  -3.440  -1.203  0.00  0.00    +0.031 C 
ATOM     26  C   UNL     1     -12.499  -5.597   0.034  0.00  0.00    +0.031 C 
ATOM     27  C   UNL     1     -12.730  -3.453   1.296  0.00  0.00    +0.031 C 
ENDBRANCH  21  24
ENDBRANCH  15  16
ENDBRANCH   1  15
TORSDOF 5
