REMARK  Name = ZINC14269806
REMARK  8 active torsions:
REMARK  status: ('A' for Active; 'I' for Inactive)
REMARK    1  A    between atoms: C_1  and  C_2
REMARK    2  A    between atoms: C_2  and  O_3
REMARK    3  A    between atoms: O_3  and  C_4
REMARK    4  A    between atoms: C_4  and  C_6
REMARK    5  A    between atoms: C_10  and  N_11
REMARK    6  A    between atoms: N_11  and  C_12
REMARK    7  A    between atoms: C_12  and  N_14
REMARK    8  A    between atoms: C_15  and  C_17
REMARK                            x       y       z     vdW  Elec       q    Type
REMARK                         _______ _______ _______ _____ _____    ______ ____
ROOT
ATOM      1  C   UNL     1      -2.055   1.851   5.840  0.00  0.00    +0.141 C 
ATOM      2  S   UNL     1      -3.049   3.139   5.306  0.00  0.00    -0.018 S 
ENDROOT
BRANCH   1   3
ATOM      3  N   UNL     1      -2.062   1.489   7.138  0.00  0.00    -0.264 N 
ATOM      4  C   UNL     1      -2.850   2.141   8.016  0.00  0.00    +0.250 C 
ATOM      5  O   UNL     1      -3.556   3.055   7.636  0.00  0.00    -0.270 OA
ATOM      6  H   UNL     1      -1.499   0.759   7.441  0.00  0.00    +0.157 HD
BRANCH   4   7
ATOM      7  C   UNL     1      -2.857   1.745   9.435  0.00  0.00    +0.045 A 
ATOM      8  C   UNL     1      -2.150   0.628   9.864  0.00  0.00    +0.014 A 
ATOM      9  C   UNL     1      -2.154   0.261  11.202  0.00  0.00    +0.001 A 
ATOM     10  C   UNL     1      -2.851   0.963  12.137  0.00  0.00    +0.010 A 
ATOM     11  C   UNL     1      -3.593   2.099  11.775  0.00  0.00    +0.001 A 
ATOM     12  C   UNL     1      -3.614   2.514  10.421  0.00  0.00    -0.004 A 
ATOM     13  C   UNL     1      -4.353   3.646  10.055  0.00  0.00    +0.009 A 
ATOM     14  C   UNL     1      -5.045   4.335  11.006  0.00  0.00    +0.002 A 
ATOM     15  C   UNL     1      -5.027   3.931  12.338  0.00  0.00    +0.020 A 
ATOM     16  C   UNL     1      -4.319   2.834  12.729  0.00  0.00    +0.049 A 
ATOM     17 CL   UNL     1      -4.311   2.349  14.396  0.00  0.00    -0.083 Cl
ENDBRANCH   4   7
ENDBRANCH   1   3
BRANCH   1  18
ATOM     18  N   UNL     1      -1.267   1.200   4.963  0.00  0.00    -0.290 N 
ATOM     19  H   UNL     1      -0.704   0.470   5.265  0.00  0.00    +0.154 HD
BRANCH  18  24
ATOM     20  C   UNL     1      -0.524   1.027   2.584  0.00  0.00    +0.091 A 
ATOM     21  C   UNL     1      -0.700   1.607   1.265  0.00  0.00    -0.021 A 
ATOM     22  C   UNL     1      -1.582   2.630   1.199  0.00  0.00    -0.004 A 
ATOM     23  S   UNL     1      -2.169   2.829   2.857  0.00  0.00    -0.077 S 
ATOM     24  C   UNL     1      -1.260   1.572   3.629  0.00  0.00    +0.086 A 
ATOM     25  C   UNL     1      -1.967   3.415  -0.018  0.00  0.00    +0.043 C 
ATOM     26  C   UNL     1      -0.936   3.135  -1.120  0.00  0.00    +0.005 C 
ATOM     27  C   UNL     1      -0.718   1.622  -1.219  0.00  0.00    +0.005 C 
ATOM     28  C   UNL     1       0.030   1.122   0.018  0.00  0.00    +0.037 C 
BRANCH  20  29
ATOM     29  C   UNL     1       0.397  -0.089   2.805  0.00  0.00    +0.342 C 
ATOM     30  O   UNL     1       0.001  -1.234   2.703  0.00  0.00    -0.245 OA
BRANCH  29  31
ATOM     31  O   UNL     1       1.686   0.153   3.122  0.00  0.00    -0.461 OA
BRANCH  31  33
ATOM     32  C   UNL     1       3.957  -0.532   3.674  0.00  0.00    +0.048 C 
ATOM     33  C   UNL     1       2.542  -1.001   3.326  0.00  0.00    +0.229 C 
ENDBRANCH  31  33
ENDBRANCH  29  31
ENDBRANCH  20  29
ENDBRANCH  18  24
ENDBRANCH   1  18
TORSDOF 7
