REMARK  Name = ZINC12468137
REMARK  10 active torsions:
REMARK  status: ('A' for Active; 'I' for Inactive)
REMARK    1  A    between atoms: C_1  and  C_2
REMARK    2  A    between atoms: C_5  and  N_9
REMARK    3  A    between atoms: C_6  and  C_8
REMARK    4  A    between atoms: N_9  and  C_10
REMARK    5  A    between atoms: C_10  and  N_12
REMARK    6  A    between atoms: N_12  and  C_13
REMARK    7  A    between atoms: N_12  and  C_20
REMARK    8  A    between atoms: C_13  and  C_14
REMARK    9  A    between atoms: C_14  and  N_68
REMARK   10  A    between atoms: C_20  and  C_21
REMARK                            x       y       z     vdW  Elec       q    Type
REMARK                         _______ _______ _______ _____ _____    ______ ____
ROOT
ATOM      1  N   UNL     1      -3.654   2.186  -0.175  0.00  0.00    -0.310 N 
ENDROOT
BRANCH   1   2
ATOM      2  C   UNL     1      -2.419   1.659  -0.054  0.00  0.00    +0.137 C 
ATOM      3  S   UNL     1      -2.212  -0.040  -0.031  0.00  0.00    -0.018 S 
BRANCH   2   4
ATOM      4  N   UNL     1      -1.347   2.470   0.049  0.00  0.00    -0.297 N 
ATOM      5  H   UNL     1      -1.469   3.431   0.097  0.00  0.00    +0.154 HD
BRANCH   4  10
ATOM      6  C   UNL     1       3.872   0.251   0.184  0.00  0.00    +0.044 C 
ATOM      7  C   UNL     1       2.486   0.842   0.150  0.00  0.00    -0.050 A 
ATOM      8  C   UNL     1       1.491   0.316   0.954  0.00  0.00    +0.005 A 
ATOM      9  C   UNL     1       0.220   0.855   0.924  0.00  0.00    +0.024 A 
ATOM     10  C   UNL     1      -0.059   1.926   0.086  0.00  0.00    +0.036 A 
ATOM     11  C   UNL     1       0.941   2.451  -0.721  0.00  0.00    -0.029 A 
ATOM     12  C   UNL     1       2.211   1.908  -0.687  0.00  0.00    +0.008 A 
ATOM     13  C   UNL     1       0.643   3.613  -1.633  0.00  0.00    +0.045 C 
ENDBRANCH   4  10
ENDBRANCH   2   4
ENDBRANCH   1   2
BRANCH   1  14
ATOM     14  C   UNL     1      -3.822   3.635  -0.311  0.00  0.00    +0.088 C 
BRANCH  14  15
ATOM     15  C   UNL     1      -3.792   4.016  -1.792  0.00  0.00    -0.059 C 
BRANCH  15  21
ATOM     16  C   UNL     1      -5.301   5.886  -1.493  0.00  0.00    -0.050 C 
ATOM     17  C   UNL     1      -5.413   7.410  -1.594  0.00  0.00    +0.141 C 
ATOM     18  O   UNL     1      -5.129   7.816  -2.936  0.00  0.00    -0.383 OA
ATOM     19  C   UNL     1      -3.830   7.426  -3.392  0.00  0.00    +0.141 C 
ATOM     20  C   UNL     1      -3.703   5.902  -3.309  0.00  0.00    -0.050 C 
ATOM     21  N   UNL     1      -3.943   5.482  -1.912  0.00  0.00    +0.384 N 
ATOM     22  H   UNL     1      -3.255   5.939  -1.302  0.00  0.00    -0.082 HD
ENDBRANCH  15  21
ENDBRANCH  14  15
ENDBRANCH   1  14
BRANCH   1  23
ATOM     23  C   UNL     1      -4.828   1.310  -0.172  0.00  0.00    +0.147 C 
BRANCH  23  24
ATOM     24  C   UNL     1      -5.255   1.048   1.250  0.00  0.00    +0.035 A 
ATOM     25  C   UNL     1      -4.852  -0.086   1.879  0.00  0.00    +0.020 A 
ATOM     26  C   UNL     1      -5.278  -0.308   3.260  0.00  0.00    +0.003 A 
ATOM     27  C   UNL     1      -4.890  -1.457   3.960  0.00  0.00    +0.059 A 
ATOM     28  C   UNL     1      -5.311  -1.642   5.260  0.00  0.00    +0.163 A 
ATOM     29  C   UNL     1      -6.124  -0.688   5.879  0.00  0.00    +0.164 A 
ATOM     30  C   UNL     1      -6.513   0.451   5.194  0.00  0.00    +0.075 A 
ATOM     31  C   UNL     1      -6.098   0.652   3.885  0.00  0.00    +0.053 A 
ATOM     32  N   UNL     1      -6.477   1.781   3.187  0.00  0.00    -0.322 N 
ATOM     33  H   UNL     1      -7.042   2.441   3.617  0.00  0.00    +0.169 HD
ATOM     34  C   UNL     1      -6.075   1.978   1.919  0.00  0.00    +0.254 A 
ATOM     35  O   UNL     1      -6.430   2.987   1.333  0.00  0.00    -0.268 OA
ATOM     36  O   UNL     1      -6.541  -0.861   7.162  0.00  0.00    -0.485 OA
ATOM     37  C   UNL     1      -6.445  -2.185   7.698  0.00  0.00    +0.270 C 
ATOM     38  C   UNL     1      -5.059  -2.745   7.352  0.00  0.00    +0.270 C 
ATOM     39  O   UNL     1      -4.928  -2.766   5.926  0.00  0.00    -0.485 OA
ENDBRANCH  23  24
ENDBRANCH   1  23
TORSDOF 8
