REMARK  Name = ZINC36806968
REMARK  10 active torsions:
REMARK  status: ('A' for Active; 'I' for Inactive)
REMARK    1  A    between atoms: C_1  and  C_2
REMARK    2  A    between atoms: C_7  and  N_8
REMARK    3  A    between atoms: C_9  and  C_11
REMARK    4  A    between atoms: C_11  and  N_12
REMARK    5  A    between atoms: C_15  and  C_19
REMARK    6  A    between atoms: C_15  and  C_20
REMARK    7  A    between atoms: C_23  and  C_26
REMARK    8  A    between atoms: C_26  and  C_27
REMARK    9  A    between atoms: C_26  and  C_28
REMARK   10  A    between atoms: C_26  and  C_29
REMARK                            x       y       z     vdW  Elec       q    Type
REMARK                         _______ _______ _______ _____ _____    ______ ____
ROOT
ATOM      1  N   UNL     1      -0.240  -0.903   5.989  0.00  0.00    -0.215 N 
ATOM      2  C   UNL     1      -1.390  -1.416   6.471  0.00  0.00    +0.251 C 
ATOM      3  O   UNL     1      -2.515  -1.182   6.085  0.00  0.00    -0.272 OA
ATOM      4  C   UNL     1      -0.983  -2.349   7.595  0.00  0.00    +0.135 C 
ATOM      5  N   UNL     1       0.486  -2.243   7.618  0.00  0.00    -0.281 N 
ATOM      6  C   UNL     1       0.825  -1.381   6.642  0.00  0.00    +0.310 C 
ATOM      7  O   UNL     1       1.971  -1.068   6.385  0.00  0.00    -0.252 OA
ATOM      8  C   UNL     1      -1.414  -3.784   7.287  0.00  0.00    +0.047 C 
ATOM      9  H   UNL     1       1.092  -2.706   8.217  0.00  0.00    +0.152 HD
ENDROOT
BRANCH   4  10
ATOM     10  C   UNL     1      -1.568  -1.887   8.905  0.00  0.00    -0.015 A 
ATOM     11  C   UNL     1      -2.775  -1.213   8.923  0.00  0.00    +0.006 A 
ATOM     12  C   UNL     1      -3.312  -0.790  10.124  0.00  0.00    +0.004 A 
ATOM     13  C   UNL     1      -2.642  -1.041  11.307  0.00  0.00    -0.042 A 
ATOM     14  C   UNL     1      -1.436  -1.715  11.289  0.00  0.00    +0.004 A 
ATOM     15  C   UNL     1      -0.901  -2.143  10.088  0.00  0.00    +0.006 A 
BRANCH  13  16
ATOM     16  C   UNL     1      -3.227  -0.578  12.617  0.00  0.00    -0.013 C 
ATOM     17  C   UNL     1      -4.596  -1.229  12.822  0.00  0.00    +0.015 C 
ATOM     18  C   UNL     1      -2.295  -0.980  13.762  0.00  0.00    +0.015 C 
ATOM     19  C   UNL     1      -3.384   0.944  12.597  0.00  0.00    +0.015 C 
ENDBRANCH  13  16
ENDBRANCH   4  10
BRANCH   1  20
ATOM     20  C   UNL     1      -0.167   0.054   4.882  0.00  0.00    +0.214 C 
BRANCH  20  22
ATOM     21  N   UNL     1       0.026  -0.014   2.417  0.00  0.00    -0.284 N 
ATOM     22  C   UNL     1      -0.056  -0.694   3.578  0.00  0.00    +0.235 C 
ATOM     23  O   UNL     1      -0.040  -1.906   3.574  0.00  0.00    -0.274 OA
ATOM     24  H   UNL     1       0.079   0.955   2.425  0.00  0.00    +0.155 HD
BRANCH  21  31
ATOM     25  C   UNL     1      -1.265   1.183   0.182  0.00  0.00    +0.046 C 
ATOM     26  C   UNL     1      -0.584  -0.158   0.085  0.00  0.00    -0.028 A 
ATOM     27  C   UNL     1      -0.570  -0.840  -1.116  0.00  0.00    +0.020 A 
ATOM     28  C   UNL     1       0.055  -2.071  -1.206  0.00  0.00    +0.018 A 
ATOM     29  C   UNL     1       0.666  -2.623  -0.094  0.00  0.00    +0.017 A 
ATOM     30  C   UNL     1       0.655  -1.945   1.109  0.00  0.00    +0.024 A 
ATOM     31  C   UNL     1       0.034  -0.706   1.201  0.00  0.00    +0.036 A 
ATOM     32 BR   UNL     1       0.072  -3.002  -2.852  0.00  0.00    -0.050 Br
ENDBRANCH  21  31
ENDBRANCH  20  22
ENDBRANCH   1  20
TORSDOF 5
