REMARK  Name = ZINC00842502
REMARK  4 active torsions:
REMARK  status: ('A' for Active; 'I' for Inactive)
REMARK    1  A    between atoms: C_3  and  N_16
REMARK    2  A    between atoms: C_6  and  N_7
REMARK    3  A    between atoms: C_8  and  C_10
REMARK    4  A    between atoms: C_17  and  C_19
REMARK                            x       y       z     vdW  Elec       q    Type
REMARK                         _______ _______ _______ _____ _____    ______ ____
ROOT
ATOM      1  C   UNL     1      -5.052   0.476   0.215  0.00  0.00    +0.025 A 
ATOM      2  C   UNL     1      -6.341  -0.010   0.305  0.00  0.00    +0.025 A 
ATOM      3  C   UNL     1      -7.416   0.871   0.312  0.00  0.00    +0.034 A 
ATOM      4  C   UNL     1      -7.193   2.239   0.233  0.00  0.00    +0.025 A 
ATOM      5  C   UNL     1      -5.904   2.725   0.148  0.00  0.00    +0.025 A 
ATOM      6  C   UNL     1      -4.829   1.845   0.142  0.00  0.00    +0.034 A 
ENDROOT
BRANCH   6   7
ATOM      7  N   UNL     1      -3.522   2.337   0.055  0.00  0.00    -0.279 N 
ATOM      8  C   UNL     1      -3.199   3.501   0.654  0.00  0.00    +0.284 C 
ATOM      9  O   UNL     1      -4.061   4.165   1.199  0.00  0.00    -0.266 OA
ATOM     10  H   UNL     1      -2.848   1.841  -0.436  0.00  0.00    +0.155 HD
BRANCH   8  11
ATOM     11  C   UNL     1      -1.809   3.966   0.650  0.00  0.00    +0.191 A 
ATOM     12  C   UNL     1      -1.347   5.120   1.217  0.00  0.00    +0.056 A 
ATOM     13  C   UNL     1       0.035   5.161   0.980  0.00  0.00    +0.058 A 
ATOM     14  C   UNL     1       0.353   4.046   0.283  0.00  0.00    +0.171 A 
ATOM     15  O   UNL     1      -0.762   3.330   0.083  0.00  0.00    -0.444 OA
ATOM     16 BR   UNL     1       2.085   3.576  -0.313  0.00  0.00    -0.008 Br
ENDBRANCH   8  11
ENDBRANCH   6   7
BRANCH   3  17
ATOM     17  N   UNL     1      -8.723   0.378   0.399  0.00  0.00    -0.279 N 
ATOM     18  C   UNL     1      -9.723   1.000  -0.257  0.00  0.00    +0.284 C 
ATOM     19  O   UNL     1      -9.505   2.037  -0.856  0.00  0.00    -0.266 OA
ATOM     20  H   UNL     1      -8.910  -0.411   0.932  0.00  0.00    +0.155 HD
BRANCH  18  21
ATOM     21  C   UNL     1     -11.072   0.428  -0.249  0.00  0.00    +0.191 A 
ATOM     22  C   UNL     1     -12.171   0.956  -0.865  0.00  0.00    +0.056 A 
ATOM     23  C   UNL     1     -13.239   0.087  -0.600  0.00  0.00    +0.058 A 
ATOM     24  C   UNL     1     -12.754  -0.919   0.165  0.00  0.00    +0.171 A 
ATOM     25  O   UNL     1     -11.447  -0.709   0.374  0.00  0.00    -0.444 OA
ATOM     26 BR   UNL     1     -13.754  -2.380   0.828  0.00  0.00    -0.008 Br
ENDBRANCH  18  21
ENDBRANCH   3  17
TORSDOF 4
