REMARK  Name = ZINC48279035
REMARK  7 active torsions:
REMARK  status: ('A' for Active; 'I' for Inactive)
REMARK    1  A    between atoms: C_1  and  C_2
REMARK    2  A    between atoms: C_7  and  C_8
REMARK    3  A    between atoms: N_10  and  C_11
REMARK    4  A    between atoms: C_11  and  C_12
REMARK    5  A    between atoms: C_12  and  C_13
REMARK    6  A    between atoms: N_15  and  C_16
REMARK    7  A    between atoms: C_23  and  C_26
REMARK                            x       y       z     vdW  Elec       q    Type
REMARK                         _______ _______ _______ _____ _____    ______ ____
ROOT
ATOM      1  C   UNL     1       1.171  -0.186   9.703  0.00  0.00    +0.036 A 
ATOM      2  C   UNL     1       0.460   1.004   9.839  0.00  0.00    +0.025 A 
ATOM      3  C   UNL     1       0.455   1.681  11.039  0.00  0.00    +0.029 A 
ATOM      4  C   UNL     1       1.163   1.177  12.122  0.00  0.00    +0.067 A 
ATOM      5  C   UNL     1       1.884  -0.024  11.994  0.00  0.00    +0.091 A 
ATOM      6  C   UNL     1       1.877  -0.705  10.772  0.00  0.00    +0.053 A 
ATOM      7  N   UNL     1       2.468  -0.270  13.192  0.00  0.00    -0.228 NA
ATOM      8  C   UNL     1       2.160   0.684  14.037  0.00  0.00    +0.142 A 
ATOM      9  N   UNL     1       1.354   1.604  13.423  0.00  0.00    -0.338 N 
ATOM     10  H   UNL     1       0.986   2.406  13.826  0.00  0.00    +0.167 HD
ENDROOT
BRANCH   8  11
ATOM     11  C   UNL     1       2.615   0.755  15.442  0.00  0.00    +0.055 A 
ATOM     12  C   UNL     1       2.218   1.818  16.254  0.00  0.00    +0.052 A 
ATOM     13  C   UNL     1       2.646   1.878  17.566  0.00  0.00    +0.124 A 
ATOM     14  C   UNL     1       3.468   0.885  18.076  0.00  0.00    +0.041 A 
ATOM     15  C   UNL     1       3.864  -0.171  17.277  0.00  0.00    +0.042 A 
ATOM     16  C   UNL     1       3.439  -0.246  15.964  0.00  0.00    +0.134 A 
ATOM     17  F   UNL     1       3.823  -1.281  15.185  0.00  0.00    -0.205 F 
ATOM     18  F   UNL     1       2.263   2.906  18.354  0.00  0.00    -0.205 F 
ENDBRANCH   8  11
BRANCH   1  21
ATOM     19  C   UNL     1       1.127  -0.169   7.323  0.00  0.00    +0.219 C 
ATOM     20  O   UNL     1       1.188   1.042   7.342  0.00  0.00    -0.275 OA
ATOM     21  N   UNL     1       1.168  -0.864   8.477  0.00  0.00    -0.285 N 
ATOM     22  H   UNL     1       1.194  -1.833   8.459  0.00  0.00    +0.155 HD
BRANCH  19  23
ATOM     23  C   UNL     1       1.005  -0.896   6.009  0.00  0.00    +0.115 C 
BRANCH  23  24
ATOM     24  C   UNL     1       0.981   0.118   4.864  0.00  0.00    +0.113 C 
BRANCH  24  27
ATOM     25  C   UNL     1       0.822   0.106   2.433  0.00  0.00    +0.244 C 
ATOM     26  O   UNL     1       0.883   1.320   2.452  0.00  0.00    -0.270 OA
ATOM     27  N   UNL     1       0.863  -0.589   3.587  0.00  0.00    -0.311 N 
ATOM     28  H   UNL     1       0.814  -1.558   3.572  0.00  0.00    +0.149 HD
BRANCH  25  35
ATOM     29  C   UNL     1       0.446   1.614  -0.008  0.00  0.00    +0.044 C 
ATOM     30  C   UNL     1       0.521   0.109  -0.040  0.00  0.00    -0.038 A 
ATOM     31  C   UNL     1       0.416  -0.563  -1.240  0.00  0.00    +0.004 A 
ATOM     32  C   UNL     1       0.484  -1.945  -1.272  0.00  0.00    +0.000 A 
ATOM     33  C   UNL     1       0.659  -2.661  -0.101  0.00  0.00    +0.001 A 
ATOM     34  C   UNL     1       0.765  -2.002   1.106  0.00  0.00    +0.013 A 
ATOM     35  C   UNL     1       0.702  -0.608   1.144  0.00  0.00    +0.040 A 
ENDBRANCH  25  35
ENDBRANCH  24  27
ENDBRANCH  23  24
ENDBRANCH  19  23
ENDBRANCH   1  21
TORSDOF 6
