REMARK  Name = ZINC03840959
REMARK  10 active torsions:
REMARK  status: ('A' for Active; 'I' for Inactive)
REMARK    1  A    between atoms: C_1  and  C_2
REMARK    2  A    between atoms: C_10  and  C_12
REMARK    3  A    between atoms: C_12  and  N_71
REMARK    4  A    between atoms: C_13  and  N_71
REMARK    5  A    between atoms: C_14  and  N_71
REMARK    6  A    between atoms: C_16  and  C_37
REMARK    7  A    between atoms: C_19  and  O_36
REMARK    8  A    between atoms: C_21  and  C_25
REMARK    9  A    between atoms: C_25  and  C_27
REMARK   10  A    between atoms: C_25  and  C_28
REMARK                            x       y       z     vdW  Elec       q    Type
REMARK                         _______ _______ _______ _____ _____    ______ ____
ROOT
ATOM      1  C   UNL     1       6.716  -5.441  -2.218  0.00  0.00    +0.014 C 
ATOM      2  C   UNL     1       5.959  -4.112  -2.259  0.00  0.00    +0.042 C 
ATOM      3  C   UNL     1       6.383  -3.324  -3.492  0.00  0.00    +0.057 A 
ATOM      4  C   UNL     1       7.255  -2.289  -3.373  0.00  0.00    +0.015 A 
ATOM      5  S   UNL     1       7.418  -1.726  -5.046  0.00  0.00    -0.057 S 
ATOM      6  C   UNL     1       6.337  -2.881  -5.766  0.00  0.00    +0.165 A 
ATOM      7  N   UNL     1       5.947  -3.582  -4.722  0.00  0.00    -0.229 NA
ATOM      8  N   UNL     1       5.976  -3.026  -7.101  0.00  0.00    -0.266 N 
ATOM      9  C   UNL     1       6.490  -2.199  -8.032  0.00  0.00    +0.202 C 
ATOM     10  O   UNL     1       7.268  -1.327  -7.706  0.00  0.00    -0.277 OA
ATOM     11  C   UNL     1       7.902  -1.776  -2.134  0.00  0.00    +0.051 C 
ATOM     12  C   UNL     1       7.737  -2.825  -1.020  0.00  0.00    -0.022 C 
ATOM     13  C   UNL     1       6.281  -3.304  -1.008  0.00  0.00    +0.033 C 
ATOM     14  C   UNL     1       5.354  -2.096  -0.888  0.00  0.00    +0.123 C 
ATOM     15  C   UNL     1       5.642  -1.374   0.432  0.00  0.00    +0.029 C 
ATOM     16  C   UNL     1       7.103  -0.924   0.466  0.00  0.00    +0.007 C 
ATOM     17  C   UNL     1       8.024  -2.138   0.323  0.00  0.00    +0.008 C 
ATOM     18  C   UNL     1       8.687  -4.003  -1.247  0.00  0.00    +0.012 C 
ATOM     19  H   UNL     1       5.354  -3.723  -7.362  0.00  0.00    +0.157 HD
ENDROOT
BRANCH  15  20
ATOM     20  C   UNL     1       4.731  -0.150   0.552  0.00  0.00    +0.078 C 
ATOM     21  C   UNL     1       5.076   0.853  -0.550  0.00  0.00    +0.017 C 
BRANCH  20  22
ATOM     22  C   UNL     1       4.930   0.494   1.899  0.00  0.00    +0.219 C 
ATOM     23  O   UNL     1       5.679   1.442   2.013  0.00  0.00    -0.275 OA
ATOM     24  N   UNL     1       4.277   0.018   2.978  0.00  0.00    -0.300 N 
ATOM     25  C   UNL     1       4.563   0.576   4.300  0.00  0.00    +0.118 C 
ATOM     26  C   UNL     1       5.214  -0.498   5.178  0.00  0.00    +0.088 C 
ATOM     27  S   UNL     1       4.102  -1.934   5.262  0.00  0.00    -0.158 S 
ATOM     28  C   UNL     1       3.792  -2.320   3.513  0.00  0.00    +0.088 C 
ATOM     29  C   UNL     1       3.292  -1.052   2.812  0.00  0.00    +0.118 C 
ENDBRANCH  20  22
ENDBRANCH  15  20
BRANCH  14  30
ATOM     30  O   UNL     1       3.993  -2.532  -0.907  0.00  0.00    -0.391 OA
ATOM     31  H   UNL     1       3.349  -1.810  -0.911  0.00  0.00    +0.210 HD
ENDBRANCH  14  30
BRANCH   9  32
ATOM     32  C   UNL     1       6.099  -2.356  -9.479  0.00  0.00    +0.018 C 
BRANCH  32  35
ATOM     33  C   UNL     1       8.241  -1.570 -10.290  0.00  0.00    -0.096 C 
ATOM     34  C   UNL     1       6.259  -1.308 -11.656  0.00  0.00    -0.096 C 
ATOM     35  N   UNL     1       6.785  -1.316 -10.274  0.00  0.00    +0.382 N 
ATOM     36  H   UNL     1       6.611  -0.400  -9.846  0.00  0.00    -0.082 HD
ENDBRANCH  32  35
ENDBRANCH   9  32
TORSDOF 5
