REMARK  Name = ZINC64437736
REMARK  7 active torsions:
REMARK  status: ('A' for Active; 'I' for Inactive)
REMARK    1  A    between atoms: C_1  and  N_2
REMARK    2  A    between atoms: C_3  and  C_5
REMARK    3  A    between atoms: C_7  and  N_12
REMARK    4  A    between atoms: C_13  and  C_15
REMARK    5  A    between atoms: C_15  and  C_16
REMARK    6  A    between atoms: C_16  and  C_17
REMARK    7  A    between atoms: C_19  and  C_22
REMARK                            x       y       z     vdW  Elec       q    Type
REMARK                         _______ _______ _______ _____ _____    ______ ____
ROOT
ATOM      1  N   UNL     1       1.311  -4.930  -0.025  0.00  0.00    -0.285 N 
ATOM      2  C   UNL     1       1.325  -6.274   0.070  0.00  0.00    +0.218 C 
ATOM      3  O   UNL     1       0.281  -6.893   0.072  0.00  0.00    -0.275 OA
ATOM      4  H   UNL     1       2.145  -4.440  -0.094  0.00  0.00    +0.155 HD
ENDROOT
BRANCH   1   7
ATOM      5  C   UNL     1      -1.218  -2.315   0.584  0.00  0.00    +0.074 A 
ATOM      6  C   UNL     1      -0.001  -2.999   0.585  0.00  0.00    +0.039 A 
ATOM      7  C   UNL     1       0.091  -4.240  -0.024  0.00  0.00    +0.034 A 
ATOM      8  C   UNL     1      -1.025  -4.802  -0.633  0.00  0.00    +0.026 A 
ATOM      9  C   UNL     1      -2.230  -4.128  -0.635  0.00  0.00    +0.041 A 
ATOM     10  C   UNL     1      -2.336  -2.891  -0.026  0.00  0.00    +0.136 A 
ATOM     11  F   UNL     1      -3.518  -2.236  -0.026  0.00  0.00    -0.205 F 
BRANCH   5  14
ATOM     12  C   UNL     1      -0.350   0.873   2.460  0.00  0.00    +0.128 C 
ATOM     13  N   UNL     1      -0.244  -0.440   1.818  0.00  0.00    -0.314 N 
ATOM     14  C   UNL     1      -1.325  -0.992   1.231  0.00  0.00    +0.247 C 
ATOM     15  O   UNL     1      -2.387  -0.400   1.233  0.00  0.00    -0.270 OA
ATOM     16  H   UNL     1       0.603  -0.912   1.816  0.00  0.00    +0.149 HD
ENDBRANCH   5  14
ENDBRANCH   1   7
BRANCH   2  17
ATOM     17  C   UNL     1       2.637  -7.008   0.173  0.00  0.00    +0.105 C 
BRANCH  17  18
ATOM     18  C   UNL     1       2.373  -8.512   0.268  0.00  0.00    +0.108 C 
BRANCH  18  19
ATOM     19  C   UNL     1       3.685  -9.247   0.372  0.00  0.00    +0.228 A 
ATOM     20  N   UNL     1       4.302  -9.548   1.478  0.00  0.00    -0.191 NA
ATOM     21  C   UNL     1       5.446 -10.204   1.203  0.00  0.00    +0.209 A 
ATOM     22  N   UNL     1       5.558 -10.322  -0.100  0.00  0.00    -0.056 NA
ATOM     23  O   UNL     1       4.408  -9.704  -0.658  0.00  0.00    -0.338 OA
BRANCH  21  24
ATOM     24  C   UNL     1       6.413 -10.706   2.201  0.00  0.00    +0.060 A 
ATOM     25  C   UNL     1       7.593 -11.372   2.000  0.00  0.00    +0.019 A 
ATOM     26  C   UNL     1       8.337 -11.746   3.096  0.00  0.00    +0.008 A 
ATOM     27  C   UNL     1       7.882 -11.444   4.340  0.00  0.00    +0.046 A 
ATOM     28  S   UNL     1       6.352 -10.596   3.982  0.00  0.00    -0.093 S 
ENDBRANCH  21  24
ENDBRANCH  18  19
ENDBRANCH  17  18
ENDBRANCH   2  17
TORSDOF 6
