REMARK  Name = ZINC07913683
REMARK  8 active torsions:
REMARK  status: ('A' for Active; 'I' for Inactive)
REMARK    1  A    between atoms: C_1  and  C_2
REMARK    2  A    between atoms: C_2  and  C_3
REMARK    3  A    between atoms: C_2  and  C_4
REMARK    4  A    between atoms: C_4  and  C_6
REMARK    5  A    between atoms: C_4  and  N_19
REMARK    6  A    between atoms: N_8  and  N_9
REMARK    7  A    between atoms: C_10  and  C_12
REMARK    8  A    between atoms: C_20  and  C_22
REMARK                            x       y       z     vdW  Elec       q    Type
REMARK                         _______ _______ _______ _____ _____    ______ ____
ROOT
ATOM      1  C   UNL     1      -2.132   7.259  -0.950  0.00  0.00    +0.163 C 
ENDROOT
BRANCH   1   2
ATOM      2  C   UNL     1      -2.276   7.767  -2.361  0.00  0.00    +0.250 C 
ATOM      3  O   UNL     1      -2.355   6.983  -3.283  0.00  0.00    -0.272 OA
ATOM      4  N   UNL     1      -2.318   9.093  -2.599  0.00  0.00    -0.233 N 
ATOM      5  H   UNL     1      -2.255   9.720  -1.861  0.00  0.00    +0.173 HD
BRANCH   4   6
ATOM      6  N   UNL     1      -2.452   9.566  -3.911  0.00  0.00    -0.230 N 
ATOM      7  C   UNL     1      -2.494  10.891  -4.149  0.00  0.00    +0.260 C 
ATOM      8  O   UNL     1      -2.415  11.678  -3.225  0.00  0.00    -0.269 OA
ATOM      9  H   UNL     1      -2.515   8.938  -4.648  0.00  0.00    +0.173 HD
BRANCH   7  10
ATOM     10  C   UNL     1      -2.635  11.390  -5.532  0.00  0.00    +0.038 A 
ATOM     11  C   UNL     1      -2.720  10.489  -6.596  0.00  0.00    +0.016 A 
ATOM     12  C   UNL     1      -2.858  10.959  -7.884  0.00  0.00    +0.039 A 
ATOM     13  C   UNL     1      -2.900  12.324  -8.126  0.00  0.00    +0.123 A 
ATOM     14  C   UNL     1      -2.811  13.222  -7.074  0.00  0.00    +0.039 A 
ATOM     15  C   UNL     1      -2.679  12.763  -5.781  0.00  0.00    +0.016 A 
ATOM     16  F   UNL     1      -3.030  12.779  -9.392  0.00  0.00    -0.205 F 
ENDBRANCH   7  10
ENDBRANCH   4   6
ENDBRANCH   1   2
BRANCH   1  17
ATOM     17  N   UNL     1      -2.112   5.794  -0.958  0.00  0.00    -0.303 N 
ATOM     18  C   UNL     1      -1.510   5.123   0.044  0.00  0.00    +0.220 C 
ATOM     19  O   UNL     1      -0.985   5.731   0.952  0.00  0.00    -0.275 OA
ATOM     20  H   UNL     1      -2.533   5.307  -1.684  0.00  0.00    +0.149 HD
BRANCH  18  21
ATOM     21  C   UNL     1      -1.490   3.616   0.036  0.00  0.00    +0.048 C 
ATOM     22  C   UNL     1      -0.773   3.123  -1.223  0.00  0.00    +0.019 C 
ATOM     23  C   UNL     1      -0.753   1.593  -1.232  0.00  0.00    -0.009 C 
ATOM     24  C   UNL     1      -0.013   1.086   0.008  0.00  0.00    +0.007 C 
ATOM     25  C   UNL     1      -0.729   1.579   1.267  0.00  0.00    -0.009 C 
ATOM     26  C   UNL     1      -0.750   3.109   1.275  0.00  0.00    +0.019 C 
ATOM     27  C   UNL     1      -2.164   1.050   1.278  0.00  0.00    +0.007 C 
ATOM     28  C   UNL     1      -2.904   1.556   0.038  0.00  0.00    -0.009 C 
ATOM     29  C   UNL     1      -2.188   1.063  -1.221  0.00  0.00    +0.007 C 
ATOM     30  C   UNL     1      -2.925   3.086   0.047  0.00  0.00    +0.019 C 
ENDBRANCH  18  21
ENDBRANCH   1  17
BRANCH   1  32
ATOM     31  C   UNL     1      -4.607   7.123  -0.633  0.00  0.00    +0.009 C 
ATOM     32  C   UNL     1      -3.313   7.748  -0.108  0.00  0.00    +0.012 C 
ATOM     33  C   UNL     1      -3.104   7.338   1.351  0.00  0.00    +0.009 C 
ENDBRANCH   1  32
TORSDOF 6
