REMARK  Name = ZINC14743981
REMARK  9 active torsions:
REMARK  status: ('A' for Active; 'I' for Inactive)
REMARK    1  A    between atoms: C_1  and  O_2
REMARK    2  A    between atoms: O_2  and  C_3
REMARK    3  A    between atoms: C_6  and  C_9
REMARK    4  A    between atoms: C_10  and  C_15
REMARK    5  A    between atoms: C_15  and  N_71
REMARK    6  A    between atoms: C_17  and  O_30
REMARK    7  A    between atoms: N_20  and  C_24
REMARK    8  A    between atoms: O_30  and  C_31
REMARK    9  A    between atoms: C_31  and  C_32
REMARK                            x       y       z     vdW  Elec       q    Type
REMARK                         _______ _______ _______ _____ _____    ______ ____
ROOT
ATOM      1  C   UNL     1      -6.159   0.810  -1.077  0.00  0.00    -0.044 C 
ATOM      2  C   UNL     1      -4.935   1.705  -1.077  0.00  0.00    +0.120 C 
ATOM      3  C   UNL     1      -4.196   1.615   0.267  0.00  0.00    +0.137 C 
ATOM      4  N   UNL     1      -3.276   0.467   0.208  0.00  0.00    -0.298 N 
ATOM      5  C   UNL     1      -3.765  -0.777   0.204  0.00  0.00    +0.199 C 
ATOM      6  O   UNL     1      -3.008  -1.723   0.151  0.00  0.00    -0.278 OA
ATOM      7  C   UNL     1      -5.260  -1.009   0.265  0.00  0.00    +0.019 C 
ATOM      8  N   UNL     1      -5.830  -0.629  -1.051  0.00  0.00    +0.390 N 
ATOM      9  H   UNL     1      -5.134  -0.823  -1.780  0.00  0.00    -0.081 HD
ENDROOT
BRANCH   4  10
ATOM     10  C   UNL     1      -1.829   0.687   0.160  0.00  0.00    +0.076 C 
ATOM     11  C   UNL     1      -1.262   0.072  -1.121  0.00  0.00    +0.022 C 
ATOM     12  C   UNL     1       0.250   0.302  -1.172  0.00  0.00    +0.002 C 
ATOM     13  C   UNL     1       0.907  -0.355   0.044  0.00  0.00    +0.000 C 
ATOM     14  C   UNL     1       0.339   0.260   1.325  0.00  0.00    +0.002 C 
ATOM     15  C   UNL     1      -1.172   0.030   1.375  0.00  0.00    +0.022 C 
ENDBRANCH   4  10
BRANCH   8  16
ATOM     16  C   UNL     1      -7.038  -1.422  -1.325  0.00  0.00    -0.039 C 
BRANCH  16  18
ATOM     17  C   UNL     1      -6.051  -3.122  -3.025  0.00  0.00    +0.094 A 
ATOM     18  C   UNL     1      -6.610  -2.796  -1.774  0.00  0.00    -0.019 A 
ATOM     19  C   UNL     1      -6.698  -3.933  -1.051  0.00  0.00    +0.107 A 
ATOM     20  N   UNL     1      -6.213  -4.944  -1.803  0.00  0.00    -0.284 N 
ATOM     21  H   UNL     1      -6.152  -5.903  -1.527  0.00  0.00    +0.188 HD
ATOM     22  N   UNL     1      -5.809  -4.416  -3.035  0.00  0.00    -0.174 NA
BRANCH  17  26
ATOM     23  C   UNL     1      -5.277  -0.405  -6.206  0.00  0.00    +0.120 A 
ATOM     24  C   UNL     1      -4.339  -1.375  -5.879  0.00  0.00    +0.046 A 
ATOM     25  C   UNL     1      -4.587  -2.257  -4.848  0.00  0.00    +0.013 A 
ATOM     26  C   UNL     1      -5.781  -2.174  -4.135  0.00  0.00    +0.003 A 
ATOM     27  C   UNL     1      -6.724  -1.204  -4.469  0.00  0.00    +0.013 A 
ATOM     28  C   UNL     1      -6.467  -0.320  -5.497  0.00  0.00    +0.046 A 
BRANCH  23  30
ATOM     29  C   UNL     1      -6.038   1.435  -7.505  0.00  0.00    +0.277 C 
ATOM     30  O   UNL     1      -5.030   0.463  -7.222  0.00  0.00    -0.495 OA
ENDBRANCH  23  30
ENDBRANCH  17  26
ENDBRANCH  16  18
ENDBRANCH   8  16
BRANCH   2  31
ATOM     31  O   UNL     1      -5.341   3.057  -1.301  0.00  0.00    -0.371 OA
BRANCH  31  32
ATOM     32  C   UNL     1      -5.378   3.432  -2.679  0.00  0.00    +0.215 C 
BRANCH  32  33
ATOM     33  C   UNL     1      -5.817   4.869  -2.797  0.00  0.00    +0.067 A 
ATOM     34  C   UNL     1      -6.106   5.591  -1.654  0.00  0.00    +0.025 A 
ATOM     35  C   UNL     1      -6.508   6.912  -1.774  0.00  0.00    +0.003 A 
ATOM     36  C   UNL     1      -6.605   7.461  -3.043  0.00  0.00    +0.020 A 
ATOM     37  C   UNL     1      -6.300   6.677  -4.140  0.00  0.00    +0.111 A 
ATOM     38  N   UNL     1      -5.915   5.425  -3.989  0.00  0.00    -0.258 NA
ENDBRANCH  32  33
ENDBRANCH  31  32
ENDBRANCH   2  31
TORSDOF 8
