REMARK  Name = ZINC25918903
REMARK  7 active torsions:
REMARK  status: ('A' for Active; 'I' for Inactive)
REMARK    1  A    between atoms: C_1  and  C_2
REMARK    2  A    between atoms: C_2  and  C_3
REMARK    3  A    between atoms: C_2  and  C_4
REMARK    4  A    between atoms: C_4  and  C_6
REMARK    5  A    between atoms: C_4  and  N_22
REMARK    6  A    between atoms: C_6  and  N_7
REMARK    7  A    between atoms: C_8  and  C_10
REMARK                            x       y       z     vdW  Elec       q    Type
REMARK                         _______ _______ _______ _____ _____    ______ ____
ROOT
ATOM      1  C   UNL     1       6.296   3.443   0.685  0.00  0.00    +0.089 C 
ENDROOT
BRANCH   1   2
ATOM      2  N   UNL     1       6.682   2.274  -0.109  0.00  0.00    -0.316 N 
ATOM      3  C   UNL     1       7.824   1.616   0.171  0.00  0.00    +0.221 C 
ATOM      4  O   UNL     1       8.532   1.991   1.081  0.00  0.00    -0.275 OA
ATOM      5  H   UNL     1       6.040   1.934  -0.935  0.00  0.00    +0.149 HD
BRANCH   3   6
ATOM      6  C   UNL     1       8.221   0.414  -0.646  0.00  0.00    +0.115 C 
ATOM      7  C   UNL     1       8.379   0.824  -2.111  0.00  0.00    +0.113 C 
ATOM      8  C   UNL     1       9.617   1.664  -2.277  0.00  0.00    +0.218 C 
ATOM      9  O   UNL     1       9.621   2.572  -3.081  0.00  0.00    -0.275 OA
ATOM     10  N   UNL     1      10.719   1.419  -1.544  0.00  0.00    -0.285 N 
ATOM     11  C   UNL     1      10.727   0.388  -0.599  0.00  0.00    +0.037 A 
ATOM     12  C   UNL     1       9.527  -0.133  -0.132  0.00  0.00    -0.014 A 
ATOM     13  C   UNL     1       9.534  -1.151   0.801  0.00  0.00    +0.006 A 
ATOM     14  C   UNL     1      10.736  -1.650   1.271  0.00  0.00    +0.000 A 
ATOM     15  C   UNL     1      11.931  -1.133   0.808  0.00  0.00    +0.002 A 
ATOM     16  C   UNL     1      11.931  -0.116  -0.126  0.00  0.00    +0.023 A 
ATOM     17  H   UNL     1      11.621   2.032  -1.686  0.00  0.00    +0.155 HD
ENDBRANCH   3   6
ENDBRANCH   1   2
BRANCH   1  18
ATOM     18  C   UNL     1       5.033   4.070   0.091  0.00  0.00    -0.048 C 
BRANCH  18  19
ATOM     19  N   UNL     1       3.971   3.058   0.019  0.00  0.00    +0.386 N 
ATOM     20  C   UNL     1       2.950   3.433  -0.972  0.00  0.00    -0.073 C 
ATOM     21  C   UNL     1       2.088   2.206  -1.270  0.00  0.00    +0.017 C 
ATOM     22  C   UNL     1       1.609   1.589   0.019  0.00  0.00    -0.048 A 
ATOM     23  C   UNL     1       0.547   0.699  -0.029  0.00  0.00    +0.004 A 
ATOM     24  C   UNL     1       0.075   0.113   1.129  0.00  0.00    +0.000 A 
ATOM     25  C   UNL     1       0.674   0.405   2.341  0.00  0.00    +0.000 A 
ATOM     26  C   UNL     1       1.730   1.292   2.389  0.00  0.00    +0.002 A 
ATOM     27  C   UNL     1       2.200   1.888   1.228  0.00  0.00    -0.061 A 
ATOM     28  C   UNL     1       3.352   2.853   1.333  0.00  0.00    -0.042 C 
ATOM     29  H   UNL     1       4.434   2.111  -0.295  0.00  0.00    -0.081 HD
ENDBRANCH  18  19
BRANCH  18  31
ATOM     30  C   UNL     1       5.717   6.235   1.133  0.00  0.00    +0.005 C 
ATOM     31  C   UNL     1       4.574   5.230   0.976  0.00  0.00    -0.029 C 
ATOM     32  C   UNL     1       3.373   5.921   0.329  0.00  0.00    +0.005 C 
ENDBRANCH  18  31
ENDBRANCH   1  18
TORSDOF 5
