REMARK  Name = ZINC22214939
REMARK  11 active torsions:
REMARK  status: ('A' for Active; 'I' for Inactive)
REMARK    1  A    between atoms: C_1  and  C_2
REMARK    2  A    between atoms: C_3  and  C_26
REMARK    3  A    between atoms: C_4  and  C_25
REMARK    4  A    between atoms: C_7  and  C_8
REMARK    5  A    between atoms: C_8  and  O_10
REMARK    6  A    between atoms: O_10  and  C_11
REMARK    7  A    between atoms: C_11  and  C_13
REMARK    8  A    between atoms: C_11  and  C_14
REMARK    9  A    between atoms: N_16  and  C_17
REMARK   10  A    between atoms: C_26  and  O_28
REMARK   11  A    between atoms: O_28  and  C_29
REMARK                            x       y       z     vdW  Elec       q    Type
REMARK                         _______ _______ _______ _____ _____    ______ ____
ROOT
ATOM      1  O   UNL     1       2.775  -0.004  -0.044  0.00  0.00    -0.448 OA
ENDROOT
BRANCH   1   2
ATOM      2  C   UNL     1       2.492   1.315  -0.045  0.00  0.00    +0.357 C 
ATOM      3  O   UNL     1       3.394   2.130  -0.055  0.00  0.00    -0.243 OA
BRANCH   2  10
ATOM      4  C   UNL     1       1.552   4.289  -0.046  0.00  0.00    +0.047 C 
ATOM      5  C   UNL     1       0.676   3.063  -0.035  0.00  0.00    -0.005 A 
ATOM      6  C   UNL     1      -0.737   3.040  -0.024  0.00  0.00    +0.083 A 
ATOM      7  C   UNL     1      -1.121   1.711  -0.022  0.00  0.00    +0.028 A 
ATOM      8  N   UNL     1      -0.015   0.950  -0.024  0.00  0.00    -0.352 N 
ATOM      9  H   UNL     1      -0.102  -0.146  -0.017  0.00  0.00    +0.166 HD
ATOM     10  C   UNL     1       1.097   1.766  -0.035  0.00  0.00    +0.128 A 
ATOM     11  C   UNL     1      -2.539   1.203  -0.016  0.00  0.00    +0.064 C 
BRANCH   6  12
ATOM     12  C   UNL     1      -1.631   4.209  -0.021  0.00  0.00    +0.341 C 
ATOM     13  O   UNL     1      -2.009   4.688  -1.072  0.00  0.00    -0.245 OA
BRANCH  12  14
ATOM     14  O   UNL     1      -2.032   4.748   1.147  0.00  0.00    -0.464 OA
ATOM     15  C   UNL     1      -2.913   5.900   1.074  0.00  0.00    +0.280 C 
ENDBRANCH  12  14
ENDBRANCH   6  12
ENDBRANCH   2  10
ENDBRANCH   1   2
BRANCH   1  16
ATOM     16  C   UNL     1       4.178  -0.377  -0.054  0.00  0.00    +0.259 C 
ATOM     17  C   UNL     1       4.659  -0.513  -1.500  0.00  0.00    +0.062 C 
BRANCH  16  18
ATOM     18  C   UNL     1       4.353  -1.693   0.659  0.00  0.00    +0.258 C 
ATOM     19  O   UNL     1       3.381  -2.305   1.050  0.00  0.00    -0.271 OA
ATOM     20  N   UNL     1       5.589  -2.191   0.862  0.00  0.00    -0.281 N 
ATOM     21  H   UNL     1       6.465  -1.674   0.444  0.00  0.00    +0.155 HD
BRANCH  20  22
ATOM     22  C   UNL     1       5.758  -3.365   1.605  0.00  0.00    +0.053 A 
ATOM     23  C   UNL     1       4.809  -4.376   1.533  0.00  0.00    +0.044 A 
ATOM     24  C   UNL     1       4.979  -5.534   2.269  0.00  0.00    +0.043 A 
ATOM     25  C   UNL     1       6.093  -5.686   3.076  0.00  0.00    +0.021 A 
ATOM     26  C   UNL     1       7.039  -4.681   3.150  0.00  0.00    +0.023 A 
ATOM     27  C   UNL     1       6.878  -3.523   2.412  0.00  0.00    +0.062 A 
ATOM     28 CL   UNL     1       8.070  -2.264   2.500  0.00  0.00    -0.082 Cl
ATOM     29 CL   UNL     1       3.793  -6.799   2.179  0.00  0.00    -0.083 Cl
ENDBRANCH  20  22
ENDBRANCH  16  18
ENDBRANCH   1  16
TORSDOF 7
