REMARK  Name = ZINC42776277
REMARK  11 active torsions:
REMARK  status: ('A' for Active; 'I' for Inactive)
REMARK    1  A    between atoms: C_1  and  C_2
REMARK    2  A    between atoms: C_2  and  C_3
REMARK    3  A    between atoms: C_2  and  N_4
REMARK    4  A    between atoms: N_4  and  C_5
REMARK    5  A    between atoms: C_11  and  C_13
REMARK    6  A    between atoms: C_13  and  O_14
REMARK    7  A    between atoms: O_14  and  C_15
REMARK    8  A    between atoms: C_15  and  C_17
REMARK    9  A    between atoms: C_18  and  N_22
REMARK   10  A    between atoms: N_22  and  S_23
REMARK   11  A    between atoms: S_23  and  C_26
REMARK                            x       y       z     vdW  Elec       q    Type
REMARK                         _______ _______ _______ _____ _____    ______ ____
ROOT
ATOM      1  O   UNL     1      -2.997   0.646   2.896  0.00  0.00    -0.451 OA
ENDROOT
BRANCH   1   2
ATOM      2  C   UNL     1      -2.874   1.414   3.999  0.00  0.00    +0.348 C 
ATOM      3  O   UNL     1      -1.855   2.054   4.185  0.00  0.00    -0.244 OA
BRANCH   2   4
ATOM      4  C   UNL     1      -3.927   1.476   4.939  0.00  0.00    +0.118 A 
ATOM      5  C   UNL     1      -4.005   2.204   6.127  0.00  0.00    +0.069 A 
ATOM      6  C   UNL     1      -5.181   2.055   6.837  0.00  0.00    +0.033 A 
ATOM      7  C   UNL     1      -6.145   1.241   6.348  0.00  0.00    +0.048 A 
ATOM      8  S   UNL     1      -5.507   0.651   4.911  0.00  0.00    -0.088 S 
BRANCH   5   9
ATOM      9  N   UNL     1      -2.970   3.023   6.567  0.00  0.00    -0.220 N 
ATOM     10  H   UNL     1      -2.431   3.511   5.925  0.00  0.00    +0.173 HD
BRANCH   9  11
ATOM     11  S   UNL     1      -2.657   3.164   8.187  0.00  0.00    +0.040 S 
ATOM     12  O   UNL     1      -1.573   4.079   8.269  0.00  0.00    -0.155 OA
ATOM     13  O   UNL     1      -3.913   3.474   8.774  0.00  0.00    -0.155 OA
ATOM     14  C   UNL     1      -2.118   1.510   8.703  0.00  0.00    +0.218 C 
ENDBRANCH   9  11
ENDBRANCH   5   9
ENDBRANCH   2   4
ENDBRANCH   1   2
BRANCH   1  15
ATOM     15  C   UNL     1      -1.893   0.631   1.989  0.00  0.00    +0.328 C 
BRANCH  15  17
ATOM     16  N   UNL     1      -1.273  -0.521  -0.110  0.00  0.00    -0.266 N 
ATOM     17  C   UNL     1      -2.210  -0.275   0.827  0.00  0.00    +0.258 C 
ATOM     18  O   UNL     1      -3.308  -0.781   0.735  0.00  0.00    -0.272 OA
BRANCH  16  19
ATOM     19  C   UNL     1      -1.597  -1.276  -1.242  0.00  0.00    +0.037 A 
ATOM     20  C   UNL     1      -0.681  -1.407  -2.277  0.00  0.00    +0.023 A 
ATOM     21  C   UNL     1      -1.005  -2.153  -3.394  0.00  0.00    +0.002 A 
ATOM     22  C   UNL     1      -2.239  -2.770  -3.481  0.00  0.00    +0.000 A 
ATOM     23  C   UNL     1      -3.154  -2.642  -2.452  0.00  0.00    +0.002 A 
ATOM     24  C   UNL     1      -2.835  -1.901  -1.331  0.00  0.00    +0.023 A 
ENDBRANCH  16  19
BRANCH  16  26
ATOM     25  C   UNL     1       1.090  -1.149  -0.045  0.00  0.00    +0.028 C 
ATOM     26  C   UNL     1       0.086   0.001   0.058  0.00  0.00    +0.075 C 
ATOM     27  C   UNL     1       0.375   1.030  -1.037  0.00  0.00    +0.028 C 
ENDBRANCH  16  26
ENDBRANCH  15  17
ENDBRANCH   1  15
TORSDOF 8
