REMARK  Name = ZINC39990698
REMARK  7 active torsions:
REMARK  status: ('A' for Active; 'I' for Inactive)
REMARK    1  A    between atoms: C_1  and  C_2
REMARK    2  A    between atoms: C_8  and  C_10
REMARK    3  A    between atoms: C_10  and  C_12
REMARK    4  A    between atoms: C_10  and  S_13
REMARK    5  A    between atoms: S_13  and  C_14
REMARK    6  A    between atoms: C_18  and  C_23
REMARK    7  A    between atoms: N_19  and  C_20
REMARK                            x       y       z     vdW  Elec       q    Type
REMARK                         _______ _______ _______ _____ _____    ______ ____
ROOT
ATOM      1  C   UNL     1      -6.051  -5.546  -0.789  0.00  0.00    +0.238 C 
ATOM      2  N   UNL     1      -5.969  -6.076   0.582  0.00  0.00    -0.237 N 
ATOM      3  N   UNL     1      -5.447  -7.371   0.477  0.00  0.00    -0.169 NA
ATOM      4  C   UNL     1      -5.206  -7.686  -0.768  0.00  0.00    +0.147 C 
ATOM      5  N   UNL     1      -5.542  -6.638  -1.634  0.00  0.00    -0.282 N 
ATOM      6  H   UNL     1      -6.226  -5.618   1.398  0.00  0.00    +0.171 HD
ENDROOT
BRANCH   4   7
ATOM      7  C   UNL     1      -4.679  -8.918  -1.184  0.00  0.00    +0.022 C 
ATOM      8  C   UNL     1      -4.418 -10.035  -0.391  0.00  0.00    +0.006 A 
ATOM      9  C   UNL     1      -4.582 -10.284   0.989  0.00  0.00    +0.010 A 
ATOM     10  C   UNL     1      -4.236 -11.493   1.501  0.00  0.00    +0.001 A 
ATOM     11  C   UNL     1      -3.716 -12.507   0.694  0.00  0.00    +0.002 A 
ATOM     12  C   UNL     1      -3.531 -12.338  -0.638  0.00  0.00    +0.026 A 
ATOM     13  C   UNL     1      -3.870 -11.101  -1.246  0.00  0.00    +0.043 A 
ATOM     14  N   UNL     1      -3.789 -10.692  -2.497  0.00  0.00    -0.380 N 
ATOM     15  C   UNL     1      -4.282  -9.315  -2.589  0.00  0.00    +0.152 C 
ATOM     16  H   UNL     1      -3.458 -11.221  -3.240  0.00  0.00    +0.160 HD
ENDBRANCH   4   7
BRANCH   5  17
ATOM     17  C   UNL     1      -5.412  -6.628  -3.093  0.00  0.00    +0.078 C 
ATOM     18  C   UNL     1      -5.762  -5.332  -3.825  0.00  0.00    +0.024 C 
ATOM     19  C   UNL     1      -6.698  -6.538  -3.917  0.00  0.00    +0.024 C 
ENDBRANCH   5  17
BRANCH   1  20
ATOM     20  S   UNL     1      -5.009  -4.071  -0.962  0.00  0.00    -0.106 S 
BRANCH  20  21
ATOM     21  C   UNL     1      -3.357  -4.641  -0.476  0.00  0.00    +0.133 C 
ATOM     22  C   UNL     1      -3.368  -5.036   1.002  0.00  0.00    +0.029 C 
BRANCH  21  30
ATOM     23  C   UNL     1       0.887   0.739  -1.430  0.00  0.00    +0.089 C 
ATOM     24  C   UNL     1       0.731  -0.757  -1.334  0.00  0.00    +0.136 A 
ATOM     25  C   UNL     1      -0.420  -1.417  -1.113  0.00  0.00    +0.091 A 
ATOM     26  C   UNL     1      -0.135  -2.801  -1.096  0.00  0.00    +0.168 A 
ATOM     27  N   UNL     1       1.148  -2.949  -1.302  0.00  0.00    -0.063 NA
ATOM     28  O   UNL     1       1.714  -1.661  -1.461  0.00  0.00    -0.358 OA
ATOM     29  N   UNL     1      -1.059  -3.826  -0.895  0.00  0.00    -0.267 N 
ATOM     30  C   UNL     1      -2.359  -3.533  -0.693  0.00  0.00    +0.231 C 
ATOM     31  O   UNL     1      -2.725  -2.377  -0.686  0.00  0.00    -0.274 OA
ATOM     32  H   UNL     1      -0.766  -4.751  -0.901  0.00  0.00    +0.156 HD
ENDBRANCH  21  30
ENDBRANCH  20  21
ENDBRANCH   1  20
TORSDOF 5
