REMARK  Name = ZINC64185808
REMARK  10 active torsions:
REMARK  status: ('A' for Active; 'I' for Inactive)
REMARK    1  A    between atoms: C_1  and  C_2
REMARK    2  A    between atoms: N_5  and  C_11
REMARK    3  A    between atoms: C_7  and  C_10
REMARK    4  A    between atoms: C_11  and  C_12
REMARK    5  A    between atoms: C_14  and  N_18
REMARK    6  A    between atoms: C_19  and  C_21
REMARK    7  A    between atoms: C_21  and  C_23
REMARK    8  A    between atoms: C_21  and  N_33
REMARK    9  A    between atoms: C_23  and  C_24
REMARK   10  A    between atoms: C_34  and  C_36
REMARK                            x       y       z     vdW  Elec       q    Type
REMARK                         _______ _______ _______ _____ _____    ______ ____
ROOT
ATOM      1  N   UNL     1      -0.592  -6.469  -1.453  0.00  0.00    -0.284 N 
ATOM      2  C   UNL     1      -0.161  -7.741  -1.564  0.00  0.00    +0.236 C 
ATOM      3  O   UNL     1      -0.540  -8.581  -0.777  0.00  0.00    -0.274 OA
ATOM      4  H   UNL     1      -0.288  -5.796  -2.083  0.00  0.00    +0.152 HD
ENDROOT
BRANCH   1   7
ATOM      5  C   UNL     1      -2.696  -4.052  -0.132  0.00  0.00    +0.040 C 
ATOM      6  N   UNL     1      -1.586  -4.635  -0.211  0.00  0.00    -0.258 NA
ATOM      7  C   UNL     1      -1.519  -6.101  -0.380  0.00  0.00    +0.251 C 
ATOM      8  S   UNL     1      -3.266  -6.472  -0.851  0.00  0.00    -0.109 S 
ATOM      9  C   UNL     1      -3.967  -4.886  -0.208  0.00  0.00    +0.124 C 
BRANCH   5  10
ATOM     10  C   UNL     1      -2.768  -2.557   0.042  0.00  0.00    +0.136 C 
BRANCH  10  14
ATOM     11  C   UNL     1      -0.019   1.526   0.010  0.00  0.00    +0.039 C 
ATOM     12  C   UNL     1       0.002  -0.004   0.002  0.00  0.00    +0.130 C 
ATOM     13  C   UNL     1      -1.434  -0.535   0.015  0.00  0.00    +0.116 C 
ATOM     14  N   UNL     1      -1.407  -2.003   0.085  0.00  0.00    -0.292 NA
ATOM     15  C   UNL     1      -0.692  -2.455   1.287  0.00  0.00    +0.116 C 
ATOM     16  C   UNL     1       0.736  -1.905   1.261  0.00  0.00    +0.130 C 
ATOM     17  O   UNL     1       0.692  -0.479   1.161  0.00  0.00    -0.371 OA
ATOM     18  C   UNL     1       1.483  -2.478   0.055  0.00  0.00    +0.039 C 
ENDBRANCH  10  14
ENDBRANCH   5  10
ENDBRANCH   1   7
BRANCH   2  19
ATOM     19  C   UNL     1       0.793  -8.119  -2.668  0.00  0.00    +0.163 C 
BRANCH  19  20
ATOM     20  N   UNL     1       0.742  -9.567  -2.883  0.00  0.00    -0.304 N 
ATOM     21  C   UNL     1       1.056 -10.409  -1.879  0.00  0.00    +0.211 C 
ATOM     22  O   UNL     1       1.381  -9.968  -0.797  0.00  0.00    -0.276 OA
ATOM     23  C   UNL     1       1.003 -11.899  -2.100  0.00  0.00    +0.109 C 
ATOM     24  H   UNL     1       0.482  -9.920  -3.748  0.00  0.00    +0.149 HD
ENDBRANCH  19  20
BRANCH  19  25
ATOM     25  C   UNL     1       2.215  -7.712  -2.275  0.00  0.00    +0.065 C 
BRANCH  25  26
ATOM     26  C   UNL     1       3.150  -7.977  -3.426  0.00  0.00    -0.039 C 
ATOM     27  C   UNL     1       3.551  -7.094  -4.369  0.00  0.00    -0.001 A 
ATOM     28  C   UNL     1       3.247  -5.676  -4.596  0.00  0.00    +0.010 A 
ATOM     29  C   UNL     1       3.812  -5.045  -5.650  0.00  0.00    +0.001 A 
ATOM     30  C   UNL     1       4.678  -5.709  -6.529  0.00  0.00    +0.002 A 
ATOM     31  C   UNL     1       5.006  -7.010  -6.386  0.00  0.00    +0.026 A 
ATOM     32  C   UNL     1       4.469  -7.772  -5.311  0.00  0.00    +0.043 A 
ATOM     33  N   UNL     1       4.630  -9.026  -4.965  0.00  0.00    -0.380 N 
ATOM     34  C   UNL     1       3.836  -9.284  -3.758  0.00  0.00    +0.144 C 
ATOM     35  H   UNL     1       5.185  -9.674  -5.426  0.00  0.00    +0.160 HD
ENDBRANCH  25  26
ENDBRANCH  19  25
ENDBRANCH   2  19
TORSDOF 7
