REMARK  Name = ZINC23828695
REMARK  6 active torsions:
REMARK  status: ('A' for Active; 'I' for Inactive)
REMARK    1  A    between atoms: C_1  and  C_2
REMARK    2  A    between atoms: C_3  and  C_31
REMARK    3  A    between atoms: C_11  and  C_13
REMARK    4  A    between atoms: C_13  and  C_15
REMARK    5  A    between atoms: C_13  and  N_16
REMARK    6  A    between atoms: C_19  and  C_22
REMARK                            x       y       z     vdW  Elec       q    Type
REMARK                         _______ _______ _______ _____ _____    ______ ____
ROOT
ATOM      1  N   UNL     1       3.121  -4.463   0.013  0.00  0.00    +0.386 N 
ATOM      2  C   UNL     1       2.286  -4.028  -1.114  0.00  0.00    -0.077 C 
ATOM      3  C   UNL     1       2.142  -2.505  -1.086  0.00  0.00    -0.009 C 
ATOM      4  C   UNL     1       1.504  -2.082   0.240  0.00  0.00    +0.041 C 
ATOM      5  C   UNL     1       2.366  -2.589   1.399  0.00  0.00    -0.009 C 
ATOM      6  C   UNL     1       2.505  -4.109   1.298  0.00  0.00    -0.077 C 
ATOM      7  H   UNL     1       4.081  -3.931  -0.056  0.00  0.00    -0.081 HD
ENDROOT
BRANCH   4   8
ATOM      8  C   UNL     1       1.414  -0.579   0.299  0.00  0.00    +0.082 A 
ATOM      9  N   UNL     1       0.350   0.164   0.420  0.00  0.00    -0.244 NA
ATOM     10  C   UNL     1       0.407   1.511   0.461  0.00  0.00    +0.078 A 
ATOM     11  C   UNL     1      -0.646   2.444   0.593  0.00  0.00    +0.029 A 
ATOM     12  C   UNL     1      -0.393   3.780   0.612  0.00  0.00    +0.002 A 
ATOM     13  C   UNL     1       0.900   4.277   0.513  0.00  0.00    +0.001 A 
ATOM     14  C   UNL     1       1.958   3.397   0.387  0.00  0.00    +0.017 A 
ATOM     15  C   UNL     1       1.712   2.046   0.362  0.00  0.00    +0.039 A 
ATOM     16  S   UNL     1       2.704   0.581   0.223  0.00  0.00    -0.072 S 
ENDBRANCH   4   8
BRANCH   1  17
ATOM     17  C   UNL     1       3.395  -5.904  -0.061  0.00  0.00    -0.004 C 
ATOM     18  C   UNL     1       4.035  -6.369   1.249  0.00  0.00    -0.005 C 
BRANCH  17  29
ATOM     19  C   UNL     1       7.574  -8.035  -4.851  0.00  0.00    +0.045 C 
ATOM     20  C   UNL     1       6.942  -6.731  -4.438  0.00  0.00    -0.026 A 
ATOM     21  C   UNL     1       7.193  -5.606  -5.126  0.00  0.00    -0.008 A 
ATOM     22  S   UNL     1       6.235  -4.373  -4.266  0.00  0.00    -0.073 S 
ATOM     23  C   UNL     1       5.526  -5.404  -3.008  0.00  0.00    +0.116 A 
ATOM     24  C   UNL     1       6.053  -6.677  -3.292  0.00  0.00    +0.075 A 
ATOM     25  C   UNL     1       5.637  -7.730  -2.413  0.00  0.00    +0.260 A 
ATOM     26  O   UNL     1       6.040  -8.868  -2.577  0.00  0.00    -0.267 OA
ATOM     27  N   UNL     1       4.800  -7.440  -1.400  0.00  0.00    -0.312 N 
ATOM     28  H   UNL     1       4.478  -8.233  -0.709  0.00  0.00    +0.170 HD
ATOM     29  C   UNL     1       4.337  -6.179  -1.205  0.00  0.00    +0.097 A 
ATOM     30  N   UNL     1       4.697  -5.198  -1.989  0.00  0.00    -0.228 NA
ATOM     31  C   UNL     1       8.075  -5.428  -6.335  0.00  0.00    +0.052 C 
ENDBRANCH  17  29
ENDBRANCH   1  17
TORSDOF 3
