REMARK  Name = ZINC39534414
REMARK  12 active torsions:
REMARK  status: ('A' for Active; 'I' for Inactive)
REMARK    1  A    between atoms: C_1  and  C_2
REMARK    2  A    between atoms: C_2  and  C_3
REMARK    3  A    between atoms: C_2  and  S_4
REMARK    4  A    between atoms: S_4  and  C_7
REMARK    5  A    between atoms: C_10  and  C_13
REMARK    6  A    between atoms: C_13  and  C_15
REMARK    7  A    between atoms: C_13  and  N_24
REMARK    8  A    between atoms: C_15  and  N_16
REMARK    9  A    between atoms: N_16  and  C_17
REMARK   10  A    between atoms: C_17  and  C_18
REMARK   11  A    between atoms: C_28  and  C_31
REMARK   12  A    between atoms: C_31  and  C_32
REMARK                            x       y       z     vdW  Elec       q    Type
REMARK                         _______ _______ _______ _____ _____    ______ ____
ROOT
ATOM      1  C   UNL     1      -2.262   1.559   6.146  0.00  0.00    -0.024 C 
ENDROOT
BRANCH   1   2
ATOM      2  N   UNL     1      -3.643   1.134   5.883  0.00  0.00    +0.383 N 
ATOM      3  C   UNL     1      -4.082   1.671   4.588  0.00  0.00    -0.097 C 
ATOM      4  C   UNL     1      -5.521   1.228   4.313  0.00  0.00    -0.101 C 
ATOM      5  N   UNL     1      -6.400   1.733   5.376  0.00  0.00    +0.379 N 
ATOM      6  C   UNL     1      -5.961   1.196   6.671  0.00  0.00    -0.085 C 
ATOM      7  C   UNL     1      -4.523   1.639   6.946  0.00  0.00    -0.094 C 
ATOM      8  H   UNL     1      -6.357   2.741   5.397  0.00  0.00    -0.086 HD
ATOM      9  H   UNL     1      -7.349   1.441   5.194  0.00  0.00    -0.086 HD
ATOM     10  H   UNL     1      -3.687   0.126   5.861  0.00  0.00    -0.081 HD
BRANCH   6  11
ATOM     11  C   UNL     1      -6.877   1.722   7.778  0.00  0.00    +0.017 C 
BRANCH  11  12
ATOM     12  C   UNL     1      -8.270   1.185   7.575  0.00  0.00    -0.049 A 
ATOM     13  C   UNL     1      -9.176   1.887   6.802  0.00  0.00    +0.003 A 
ATOM     14  C   UNL     1     -10.454   1.395   6.616  0.00  0.00    +0.000 A 
ATOM     15  C   UNL     1     -10.826   0.199   7.202  0.00  0.00    +0.000 A 
ATOM     16  C   UNL     1      -9.920  -0.504   7.973  0.00  0.00    +0.000 A 
ATOM     17  C   UNL     1      -8.641  -0.013   8.156  0.00  0.00    +0.003 A 
ENDBRANCH  11  12
ENDBRANCH   6  11
ENDBRANCH   1   2
BRANCH   1  21
ATOM     18  C   UNL     1       0.221   0.462   2.849  0.00  0.00    +0.088 A 
ATOM     19  C   UNL     1       0.400   1.682   3.473  0.00  0.00    +0.027 A 
ATOM     20  C   UNL     1      -0.404   2.037   4.540  0.00  0.00    +0.004 A 
ATOM     21  C   UNL     1      -1.387   1.172   4.982  0.00  0.00    -0.060 A 
ATOM     22  C   UNL     1      -1.566  -0.048   4.358  0.00  0.00    +0.004 A 
ATOM     23  C   UNL     1      -0.765  -0.401   3.288  0.00  0.00    +0.027 A 
BRANCH  18  24
ATOM     24  S   UNL     1       1.246   0.009   1.488  0.00  0.00    -0.001 S 
ATOM     25  O   UNL     1       1.246  -1.412   1.492  0.00  0.00    -0.169 OA
ATOM     26  O   UNL     1       2.452   0.735   1.686  0.00  0.00    -0.169 OA
BRANCH  24  28
ATOM     27  C   UNL     1       0.215   2.148   0.130  0.00  0.00    +0.032 C 
ATOM     28  C   UNL     1       0.376   0.630   0.023  0.00  0.00    +0.130 C 
ATOM     29  C   UNL     1       1.183   0.290  -1.232  0.00  0.00    +0.032 C 
ENDBRANCH  24  28
ENDBRANCH  18  24
ENDBRANCH   1  21
BRANCH   1  30
ATOM     30  C   UNL     1      -1.752   0.876   7.417  0.00  0.00    +0.070 C 
BRANCH  30  31
ATOM     31  N   UNL     1      -2.500   1.379   8.577  0.00  0.00    -0.313 NA
ATOM     32  H   UNL     1      -2.437   2.384   8.640  0.00  0.00    +0.122 HD
BRANCH  31  33
ATOM     33  C   UNL     1      -2.037   0.744   9.818  0.00  0.00    +0.116 C 
BRANCH  33  34
ATOM     34  C   UNL     1      -2.825   1.283  10.983  0.00  0.00    -0.034 A 
ATOM     35  C   UNL     1      -2.381   2.405  11.658  0.00  0.00    +0.005 A 
ATOM     36  C   UNL     1      -3.104   2.900  12.727  0.00  0.00    +0.000 A 
ATOM     37  C   UNL     1      -4.272   2.273  13.121  0.00  0.00    +0.000 A 
ATOM     38  C   UNL     1      -4.716   1.152  12.446  0.00  0.00    +0.000 A 
ATOM     39  C   UNL     1      -3.995   0.660  11.374  0.00  0.00    +0.005 A 
ENDBRANCH  33  34
ENDBRANCH  31  33
ENDBRANCH  30  31
ENDBRANCH   1  30
TORSDOF 10
