REMARK  Name = ZINC63874645
REMARK  7 active torsions:
REMARK  status: ('A' for Active; 'I' for Inactive)
REMARK    1  A    between atoms: C_4  and  O_7
REMARK    2  A    between atoms: O_7  and  C_8
REMARK    3  A    between atoms: C_13  and  N_14
REMARK    4  A    between atoms: C_15  and  C_17
REMARK    5  A    between atoms: C_17  and  N_18
REMARK    6  A    between atoms: C_21  and  C_26
REMARK    7  A    between atoms: C_26  and  C_27
REMARK                            x       y       z     vdW  Elec       q    Type
REMARK                         _______ _______ _______ _____ _____    ______ ____
ROOT
ATOM      1  C   UNL     1       8.398  -1.907  -0.025  0.00  0.00    +0.214 C 
ENDROOT
BRANCH   1   2
ATOM      2  N   UNL     1       9.494  -2.879  -0.014  0.00  0.00    -0.216 N 
ATOM      3  C   UNL     1      10.117  -3.306   1.102  0.00  0.00    +0.244 C 
ATOM      4  O   UNL     1       9.886  -2.970   2.244  0.00  0.00    -0.273 OA
ATOM      5  C   UNL     1      11.166  -4.294   0.633  0.00  0.00    +0.165 C 
ATOM      6  N   UNL     1      10.997  -4.311  -0.830  0.00  0.00    -0.287 N 
ATOM      7  C   UNL     1       9.995  -3.458  -1.111  0.00  0.00    +0.310 C 
ATOM      8  O   UNL     1       9.593  -3.236  -2.236  0.00  0.00    -0.252 OA
ATOM      9  H   UNL     1      11.506  -4.837  -1.466  0.00  0.00    +0.151 HD
BRANCH   5  10
ATOM     10  C   UNL     1      10.903  -5.680   1.225  0.00  0.00    +0.065 C 
BRANCH  10  11
ATOM     11  C   UNL     1      12.026  -6.610   0.844  0.00  0.00    -0.039 C 
ATOM     12  C   UNL     1      13.121  -6.907   1.579  0.00  0.00    -0.001 A 
ATOM     13  C   UNL     1      13.579  -6.468   2.903  0.00  0.00    +0.010 A 
ATOM     14  C   UNL     1      14.747  -6.950   3.387  0.00  0.00    +0.001 A 
ATOM     15  C   UNL     1      15.529  -7.855   2.656  0.00  0.00    +0.002 A 
ATOM     16  C   UNL     1      15.175  -8.304   1.434  0.00  0.00    +0.026 A 
ATOM     17  C   UNL     1      13.966  -7.864   0.829  0.00  0.00    +0.043 A 
ATOM     18  N   UNL     1      13.414  -8.147  -0.326  0.00  0.00    -0.380 N 
ATOM     19  C   UNL     1      12.152  -7.406  -0.436  0.00  0.00    +0.144 C 
ATOM     20  H   UNL     1      13.777  -8.749  -0.994  0.00  0.00    +0.160 HD
ENDBRANCH  10  11
ENDBRANCH   5  10
ENDBRANCH   1   2
BRANCH   1  22
ATOM     21  N   UNL     1       5.929  -1.934   0.112  0.00  0.00    -0.281 N 
ATOM     22  C   UNL     1       7.082  -2.630   0.100  0.00  0.00    +0.235 C 
ATOM     23  O   UNL     1       7.062  -3.840   0.188  0.00  0.00    -0.274 OA
ATOM     24  H   UNL     1       5.947  -0.964   0.099  0.00  0.00    +0.155 HD
BRANCH  21  30
ATOM     25  C   UNL     1       3.595  -2.082  -0.516  0.00  0.00    +0.150 A 
ATOM     26  C   UNL     1       2.386  -2.758  -0.487  0.00  0.00    +0.049 A 
ATOM     27  C   UNL     1       2.278  -3.951   0.202  0.00  0.00    +0.024 A 
ATOM     28  C   UNL     1       3.375  -4.474   0.864  0.00  0.00    +0.043 A 
ATOM     29  C   UNL     1       4.585  -3.806   0.839  0.00  0.00    +0.047 A 
ATOM     30  C   UNL     1       4.702  -2.610   0.144  0.00  0.00    +0.078 A 
ATOM     31 CL   UNL     1       3.232  -5.973   1.728  0.00  0.00    -0.083 Cl
BRANCH  25  32
ATOM     32  O   UNL     1       3.703  -0.907  -1.193  0.00  0.00    -0.454 OA
BRANCH  32  36
ATOM     33  C   UNL     1       0.272   0.723  -2.802  0.00  0.00    +0.000 A 
ATOM     34  C   UNL     1       0.421   0.646  -1.430  0.00  0.00    +0.004 A 
ATOM     35  C   UNL     1       1.569   0.100  -0.888  0.00  0.00    +0.046 A 
ATOM     36  C   UNL     1       2.573  -0.371  -1.723  0.00  0.00    +0.129 A 
ATOM     37  C   UNL     1       2.420  -0.292  -3.100  0.00  0.00    +0.046 A 
ATOM     38  C   UNL     1       1.270   0.254  -3.636  0.00  0.00    +0.004 A 
ENDBRANCH  32  36
ENDBRANCH  25  32
ENDBRANCH  21  30
ENDBRANCH   1  22
TORSDOF 7
