REMARK  Name = ZINC11297854
REMARK  9 active torsions:
REMARK  status: ('A' for Active; 'I' for Inactive)
REMARK    1  A    between atoms: C_1  and  C_2
REMARK    2  A    between atoms: C_5  and  N_8
REMARK    3  A    between atoms: C_9  and  C_28
REMARK    4  A    between atoms: C_11  and  C_14
REMARK    5  A    between atoms: C_12  and  C_13
REMARK    6  A    between atoms: C_15  and  C_16
REMARK    7  A    between atoms: C_15  and  C_18
REMARK    8  A    between atoms: N_24  and  C_25
REMARK    9  A    between atoms: N_24  and  C_26
REMARK                            x       y       z     vdW  Elec       q    Type
REMARK                         _______ _______ _______ _____ _____    ______ ____
ROOT
ATOM      1  C   UNL     1       3.540   3.487  -0.011  0.00  0.00    +0.032 C 
ATOM      2  C   UNL     1       3.556   2.166  -0.398  0.00  0.00    +0.097 C 
ENDROOT
BRANCH   2   3
ATOM      3  C   UNL     1       2.286   1.455  -0.650  0.00  0.00    +0.177 A 
ATOM      4  N   UNL     1       1.124   2.091  -0.502  0.00  0.00    -0.194 NA
ATOM      5  C   UNL     1      -0.017   1.450  -0.729  0.00  0.00    +0.217 A 
ATOM      6  N   UNL     1      -0.001   0.173  -1.102  0.00  0.00    -0.181 NA
ATOM      7  C   UNL     1       1.157  -0.463  -1.250  0.00  0.00    +0.222 A 
ATOM      8  N   UNL     1       2.301   0.176  -1.024  0.00  0.00    -0.194 NA
ATOM      9  N   UNL     1       1.172  -1.787  -1.637  0.00  0.00    -0.306 N 
ATOM     10  C   UNL     1      -0.088  -2.492  -1.886  0.00  0.00    +0.132 C 
ATOM     11  C   UNL     1       2.448  -2.488  -1.800  0.00  0.00    +0.132 C 
ATOM     12  N   UNL     1      -1.220   2.110  -0.581  0.00  0.00    -0.327 N 
ATOM     13  H   UNL     1      -2.054   1.643  -0.750  0.00  0.00    +0.145 HD
ATOM     14  H   UNL     1      -1.232   3.041  -0.309  0.00  0.00    +0.145 HD
ENDBRANCH   2   3
BRANCH   1  18
ATOM     15  N   UNL     1       6.263   5.881   0.275  0.00  0.00    -0.317 N 
ATOM     16  C   UNL     1       6.992   4.726   0.205  0.00  0.00    +0.022 A 
ATOM     17  C   UNL     1       6.155   3.682   0.092  0.00  0.00    +0.031 A 
ATOM     18  C   UNL     1       4.793   4.234   0.092  0.00  0.00    -0.003 A 
ATOM     19  C   UNL     1       4.939   5.605   0.203  0.00  0.00    +0.028 A 
ATOM     20  C   UNL     1       3.820   6.614   0.241  0.00  0.00    +0.064 C 
ATOM     21  C   UNL     1       8.496   4.639   0.249  0.00  0.00    +0.064 C 
BRANCH  15  26
ATOM     22  C   UNL     1       8.470  11.087   0.770  0.00  0.00    +0.044 C 
ATOM     23  C   UNL     1       7.884   9.704   0.638  0.00  0.00    -0.050 A 
ATOM     24  C   UNL     1       8.118   8.961  -0.504  0.00  0.00    +0.005 A 
ATOM     25  C   UNL     1       7.583   7.694  -0.627  0.00  0.00    +0.026 A 
ATOM     26  C   UNL     1       6.809   7.167   0.398  0.00  0.00    +0.047 A 
ATOM     27  C   UNL     1       6.571   7.917   1.541  0.00  0.00    +0.026 A 
ATOM     28  C   UNL     1       7.113   9.182   1.661  0.00  0.00    +0.005 A 
ENDBRANCH  15  26
ENDBRANCH   1  18
BRANCH   2  29
ATOM     29  C   UNL     1       4.803   1.482  -0.556  0.00  0.00    +0.103 C 
ATOM     30  N   UNL     1       5.793   0.938  -0.682  0.00  0.00    -0.191 NA
ENDBRANCH   2  29
TORSDOF 4
