REMARK  Name = ZINC17100255
REMARK  8 active torsions:
REMARK  status: ('A' for Active; 'I' for Inactive)
REMARK    1  A    between atoms: C_1  and  O_2
REMARK    2  A    between atoms: O_2  and  C_3
REMARK    3  A    between atoms: C_3  and  C_5
REMARK    4  A    between atoms: C_9  and  N_10
REMARK    5  A    between atoms: C_11  and  C_13
REMARK    6  A    between atoms: C_17  and  N_18
REMARK    7  A    between atoms: C_19  and  C_21
REMARK    8  A    between atoms: C_27  and  C_29
REMARK                            x       y       z     vdW  Elec       q    Type
REMARK                         _______ _______ _______ _____ _____    ______ ____
ROOT
ATOM      1  C   UNL     1       6.149   3.975  -0.035  0.00  0.00    +0.065 A 
ATOM      2  C   UNL     1       6.386   2.552  -0.038  0.00  0.00    +0.022 A 
ATOM      3  C   UNL     1       7.668   2.143  -0.058  0.00  0.00    +0.048 A 
ATOM      4  S   UNL     1       8.585   3.670  -0.059  0.00  0.00    -0.081 S 
ATOM      5  C   UNL     1       7.270   4.797  -0.041  0.00  0.00    +0.084 A 
ENDROOT
BRANCH   1   7
ATOM      6  N   UNL     1       3.727   3.701  -0.013  0.00  0.00    -0.275 N 
ATOM      7  C   UNL     1       4.791   4.528  -0.019  0.00  0.00    +0.251 C 
ATOM      8  O   UNL     1       4.625   5.734  -0.011  0.00  0.00    -0.270 OA
ATOM      9  H   UNL     1       3.859   2.740  -0.019  0.00  0.00    +0.156 HD
BRANCH   6  14
ATOM     10  C   UNL     1       1.233   3.539   0.009  0.00  0.00    +0.087 A 
ATOM     11  C   UNL     1       0.034   4.344   0.019  0.00  0.00    +0.024 A 
ATOM     12  C   UNL     1       0.191   5.680   0.031  0.00  0.00    +0.048 A 
ATOM     13  S   UNL     1       1.960   5.885   0.015  0.00  0.00    -0.081 S 
ATOM     14  C   UNL     1       2.444   4.223   0.001  0.00  0.00    +0.086 A 
BRANCH  10  15
ATOM     15  C   UNL     1       1.176   2.076   0.002  0.00  0.00    +0.341 C 
ATOM     16  O   UNL     1       2.205   1.428  -0.011  0.00  0.00    -0.245 OA
BRANCH  15  18
ATOM     17  C   UNL     1       0.002  -0.004   0.002  0.00  0.00    +0.280 C 
ATOM     18  O   UNL     1      -0.018   1.448   0.010  0.00  0.00    -0.464 OA
ENDBRANCH  15  18
ENDBRANCH  10  15
ENDBRANCH   6  14
ENDBRANCH   1   7
BRANCH   5  19
ATOM     19  N   UNL     1       7.323   6.182  -0.035  0.00  0.00    -0.279 N 
ATOM     20  C   UNL     1       8.516   6.811  -0.043  0.00  0.00    +0.221 C 
ATOM     21  O   UNL     1       9.542   6.165  -0.055  0.00  0.00    -0.275 OA
ATOM     22  H   UNL     1       6.503   6.699  -0.025  0.00  0.00    +0.155 HD
BRANCH  20  23
ATOM     23  C   UNL     1       8.573   8.317  -0.036  0.00  0.00    +0.089 C 
ATOM     24  C   UNL     1       7.884   8.848   1.222  0.00  0.00    +0.013 C 
ATOM     25  C   UNL     1       7.942  10.377   1.229  0.00  0.00    +0.001 C 
ATOM     26  C   UNL     1       9.403  10.831   1.218  0.00  0.00    +0.001 C 
ATOM     27  C   UNL     1      10.093  10.300  -0.040  0.00  0.00    +0.015 C 
ATOM     28  C   UNL     1      10.034   8.771  -0.047  0.00  0.00    +0.114 C 
BRANCH  28  29
ATOM     29  C   UNL     1      10.714   8.248  -1.286  0.00  0.00    +0.360 C 
ATOM     30  O   UNL     1      10.093   7.580  -2.079  0.00  0.00    -0.246 OA
ATOM     31  O   UNL     1      12.008   8.524  -1.510  0.00  0.00    -0.246 OA
ENDBRANCH  28  29
ENDBRANCH  20  23
ENDBRANCH   5  19
TORSDOF 7
