REMARK  Name = ZINC09390902
REMARK  10 active torsions:
REMARK  status: ('A' for Active; 'I' for Inactive)
REMARK    1  A    between atoms: C_1  and  C_2
REMARK    2  A    between atoms: C_5  and  N_8
REMARK    3  A    between atoms: C_9  and  C_11
REMARK    4  A    between atoms: C_11  and  S_12
REMARK    5  A    between atoms: S_12  and  C_13
REMARK    6  A    between atoms: C_16  and  C_25
REMARK    7  A    between atoms: N_17  and  C_18
REMARK    8  A    between atoms: C_18  and  C_19
REMARK    9  A    between atoms: C_25  and  N_26
REMARK   10  A    between atoms: C_27  and  C_29
REMARK                            x       y       z     vdW  Elec       q    Type
REMARK                         _______ _______ _______ _____ _____    ______ ____
ROOT
ATOM      1  C   UNL     1       0.003  -0.004   0.015  0.00  0.00    +0.192 A 
ATOM      2  N   UNL     1       1.069  -0.770   0.011  0.00  0.00    -0.122 NA
ATOM      3  N   UNL     1       0.718  -2.007   0.014  0.00  0.00    -0.132 NA
ATOM      4  C   UNL     1      -0.582  -2.103   0.021  0.00  0.00    +0.152 A 
ATOM      5  N   UNL     1      -1.084  -0.831   0.028  0.00  0.00    -0.300 N 
ENDROOT
BRANCH   1   6
ATOM      6  S   UNL     1      -0.021   1.757   0.014  0.00  0.00    -0.077 S 
BRANCH   6   7
ATOM      7  C   UNL     1       1.756   2.096   0.003  0.00  0.00    +0.173 C 
BRANCH   7   9
ATOM      8  N   UNL     1       3.240   4.076  -0.007  0.00  0.00    -0.285 N 
ATOM      9  C   UNL     1       1.984   3.586   0.001  0.00  0.00    +0.227 C 
ATOM     10  O   UNL     1       1.037   4.344   0.005  0.00  0.00    -0.275 OA
ATOM     11  H   UNL     1       3.996   3.472   0.057  0.00  0.00    +0.155 HD
BRANCH   8  16
ATOM     12  C   UNL     1       4.100   9.668  -0.413  0.00  0.00    +0.044 C 
ATOM     13  C   UNL     1       3.871   8.183  -0.305  0.00  0.00    -0.050 A 
ATOM     14  C   UNL     1       2.781   7.702   0.397  0.00  0.00    +0.005 A 
ATOM     15  C   UNL     1       2.569   6.341   0.497  0.00  0.00    +0.023 A 
ATOM     16  C   UNL     1       3.452   5.455  -0.107  0.00  0.00    +0.033 A 
ATOM     17  C   UNL     1       4.548   5.941  -0.807  0.00  0.00    +0.023 A 
ATOM     18  C   UNL     1       4.752   7.304  -0.909  0.00  0.00    +0.005 A 
ENDBRANCH   8  16
ENDBRANCH   7   9
ENDBRANCH   6   7
ENDBRANCH   1   6
BRANCH   5  19
ATOM     19  C   UNL     1      -2.495  -0.438   0.043  0.00  0.00    +0.160 C 
BRANCH  19  20
ATOM     20  C   UNL     1      -2.994  -0.305  -1.373  0.00  0.00    -0.028 A 
ATOM     21  C   UNL     1      -2.906   0.911  -2.026  0.00  0.00    +0.005 A 
ATOM     22  C   UNL     1      -3.360   1.031  -3.326  0.00  0.00    +0.000 A 
ATOM     23  C   UNL     1      -3.910  -0.061  -3.970  0.00  0.00    +0.000 A 
ATOM     24  C   UNL     1      -4.003  -1.275  -3.316  0.00  0.00    +0.000 A 
ATOM     25  C   UNL     1      -3.545  -1.397  -2.017  0.00  0.00    +0.005 A 
ENDBRANCH  19  20
ENDBRANCH   5  19
BRANCH   4  26
ATOM     26  C   UNL     1      -1.382  -3.380   0.026  0.00  0.00    +0.180 C 
BRANCH  26  27
ATOM     27  N   UNL     1      -1.635  -3.792   1.409  0.00  0.00    -0.308 N 
ATOM     28  C   UNL     1      -2.338  -4.914   1.660  0.00  0.00    +0.220 C 
ATOM     29  O   UNL     1      -2.761  -5.583   0.741  0.00  0.00    -0.275 OA
ATOM     30  H   UNL     1      -1.296  -3.257   2.144  0.00  0.00    +0.149 HD
BRANCH  28  31
ATOM     31  C   UNL     1      -2.598  -5.338   3.083  0.00  0.00    +0.048 C 
ATOM     32  C   UNL     1      -1.265  -5.569   3.797  0.00  0.00    +0.019 C 
ATOM     33  C   UNL     1      -1.529  -5.999   5.242  0.00  0.00    -0.009 C 
ATOM     34  C   UNL     1      -2.342  -7.295   5.247  0.00  0.00    +0.007 C 
ATOM     35  C   UNL     1      -3.675  -7.064   4.532  0.00  0.00    -0.009 C 
ATOM     36  C   UNL     1      -3.411  -6.634   3.088  0.00  0.00    +0.019 C 
ATOM     37  C   UNL     1      -4.459  -5.967   5.256  0.00  0.00    +0.007 C 
ATOM     38  C   UNL     1      -3.646  -4.671   5.251  0.00  0.00    -0.009 C 
ATOM     39  C   UNL     1      -2.313  -4.902   5.966  0.00  0.00    +0.007 C 
ATOM     40  C   UNL     1      -3.382  -4.241   3.806  0.00  0.00    +0.019 C 
ENDBRANCH  28  31
ENDBRANCH  26  27
ENDBRANCH   4  26
TORSDOF 9
