REMARK  Name = ZINC31527463
REMARK  11 active torsions:
REMARK  status: ('A' for Active; 'I' for Inactive)
REMARK    1  A    between atoms: C_1  and  N_2
REMARK    2  A    between atoms: C_3  and  C_5
REMARK    3  A    between atoms: C_8  and  C_11
REMARK    4  A    between atoms: C_11  and  N_12
REMARK    5  A    between atoms: N_12  and  C_13
REMARK    6  A    between atoms: C_14  and  C_16
REMARK    7  A    between atoms: C_16  and  C_18
REMARK    8  A    between atoms: C_16  and  N_25
REMARK    9  A    between atoms: C_18  and  C_19
REMARK   10  A    between atoms: N_25  and  S_26
REMARK   11  A    between atoms: S_26  and  C_29
REMARK                            x       y       z     vdW  Elec       q    Type
REMARK                         _______ _______ _______ _____ _____    ______ ____
ROOT
ATOM      1  C   UNL     1       1.250   0.895  -0.370  0.00  0.00    +0.166 C 
ENDROOT
BRANCH   1   4
ATOM      2  N   UNL     1       3.038  -0.597  -1.204  0.00  0.00    -0.299 N 
ATOM      3  C   UNL     1       3.922   0.570  -1.255  0.00  0.00    +0.132 C 
ATOM      4  C   UNL     1       1.764  -0.459  -0.785  0.00  0.00    +0.235 C 
ATOM      5  O   UNL     1       1.032  -1.425  -0.743  0.00  0.00    -0.274 OA
BRANCH   2   6
ATOM      6  C   UNL     1       3.538  -1.913  -1.608  0.00  0.00    +0.142 C 
BRANCH   6  10
ATOM      7  C   UNL     1       2.858  -2.475  -5.792  0.00  0.00    +0.037 A 
ATOM      8  C   UNL     1       4.048  -1.899  -5.346  0.00  0.00    +0.013 A 
ATOM      9  C   UNL     1       4.262  -1.720  -3.995  0.00  0.00    +0.006 A 
ATOM     10  C   UNL     1       3.298  -2.111  -3.082  0.00  0.00    -0.030 A 
ATOM     11  C   UNL     1       2.118  -2.687  -3.517  0.00  0.00    +0.006 A 
ATOM     12  C   UNL     1       1.890  -2.867  -4.865  0.00  0.00    +0.013 A 
BRANCH   7  15
ATOM     13  C   UNL     1       1.239  -3.418  -9.099  0.00  0.00    +0.128 C 
ATOM     14  N   UNL     1       1.472  -3.226  -7.665  0.00  0.00    -0.314 N 
ATOM     15  C   UNL     1       2.623  -2.669  -7.238  0.00  0.00    +0.244 C 
ATOM     16  O   UNL     1       3.467  -2.327  -8.043  0.00  0.00    -0.270 OA
ATOM     17  H   UNL     1       0.708  -3.536  -6.937  0.00  0.00    +0.149 HD
ENDBRANCH   7  15
ENDBRANCH   6  10
ENDBRANCH   2   6
ENDBRANCH   1   4
BRANCH   1  18
ATOM     18  N   UNL     1      -0.152   0.780   0.040  0.00  0.00    -0.178 NA
ATOM     19  H   UNL     1      -0.434   0.091   0.849  0.00  0.00    +0.149 HD
BRANCH  18  20
ATOM     20  S   UNL     1      -1.341   1.492  -0.868  0.00  0.00    +0.062 S 
ATOM     21  O   UNL     1      -2.569   1.237  -0.200  0.00  0.00    -0.153 OA
ATOM     22  O   UNL     1      -0.893   2.807  -1.164  0.00  0.00    -0.153 OA
BRANCH  20  23
ATOM     23  C   UNL     1      -1.414   0.627  -2.401  0.00  0.00    +0.140 A 
ATOM     24  C   UNL     1      -2.514  -0.152  -2.704  0.00  0.00    +0.031 A 
ATOM     25  C   UNL     1      -2.574  -0.826  -3.909  0.00  0.00    +0.002 A 
ATOM     26  C   UNL     1      -1.528  -0.731  -4.809  0.00  0.00    +0.003 A 
ATOM     27  C   UNL     1      -0.424   0.043  -4.506  0.00  0.00    +0.040 A 
ATOM     28  C   UNL     1      -0.366   0.723  -3.301  0.00  0.00    +0.150 A 
ATOM     29  F   UNL     1       0.713   1.480  -3.003  0.00  0.00    -0.203 F 
ENDBRANCH  20  23
ENDBRANCH  18  20
ENDBRANCH   1  18
BRANCH   1  30
ATOM     30  C   UNL     1       2.082   1.420   0.801  0.00  0.00    +0.065 C 
BRANCH  30  31
ATOM     31  C   UNL     1       1.648   2.824   1.137  0.00  0.00    -0.045 A 
ATOM     32  C   UNL     1       2.262   3.901   0.527  0.00  0.00    +0.004 A 
ATOM     33  C   UNL     1       1.861   5.189   0.831  0.00  0.00    +0.000 A 
ATOM     34  C   UNL     1       0.854   5.399   1.754  0.00  0.00    +0.000 A 
ATOM     35  C   UNL     1       0.243   4.321   2.368  0.00  0.00    +0.000 A 
ATOM     36  C   UNL     1       0.641   3.034   2.060  0.00  0.00    +0.004 A 
ENDBRANCH  30  31
ENDBRANCH   1  30
TORSDOF 9
