REMARK  Name = ZINC36329762
REMARK  10 active torsions:
REMARK  status: ('A' for Active; 'I' for Inactive)
REMARK    1  A    between atoms: C_1  and  C_2
REMARK    2  A    between atoms: C_5  and  C_8
REMARK    3  A    between atoms: C_8  and  C_32
REMARK    4  A    between atoms: N_11  and  C_15
REMARK    5  A    between atoms: C_15  and  C_16
REMARK    6  A    between atoms: N_18  and  C_19
REMARK    7  A    between atoms: C_19  and  C_20
REMARK    8  A    between atoms: C_20  and  C_22
REMARK    9  A    between atoms: C_20  and  O_31
REMARK   10  A    between atoms: C_25  and  N_28
REMARK                            x       y       z     vdW  Elec       q    Type
REMARK                         _______ _______ _______ _____ _____    ______ ____
ROOT
ATOM      1  C   UNL     1       2.931  -6.184   1.360  0.00  0.00    +0.213 C 
ENDROOT
BRANCH   1   5
ATOM      2  C   UNL     1       0.059  -4.275  -0.021  0.00  0.00    +0.135 C 
ATOM      3  C   UNL     1       0.874  -4.805   1.142  0.00  0.00    +0.251 C 
ATOM      4  O   UNL     1       0.656  -4.640   2.324  0.00  0.00    -0.272 OA
ATOM      5  N   UNL     1       1.890  -5.497   0.591  0.00  0.00    -0.215 N 
ATOM      6  C   UNL     1       1.832  -5.479  -0.746  0.00  0.00    +0.310 C 
ATOM      7  O   UNL     1       2.639  -6.033  -1.465  0.00  0.00    -0.252 OA
ATOM      8  N   UNL     1       0.779  -4.778  -1.205  0.00  0.00    -0.281 N 
ATOM      9  C   UNL     1      -1.366  -4.831   0.018  0.00  0.00    +0.047 C 
ATOM     10  H   UNL     1       0.540  -4.632  -2.133  0.00  0.00    +0.152 HD
BRANCH   2  15
ATOM     11  C   UNL     1      -0.018   1.503   0.010  0.00  0.00    +0.044 C 
ATOM     12  C   UNL     1       0.002  -0.004   0.002  0.00  0.00    -0.050 A 
ATOM     13  C   UNL     1       0.006  -0.689  -1.199  0.00  0.00    +0.004 A 
ATOM     14  C   UNL     1       0.025  -2.071  -1.206  0.00  0.00    +0.006 A 
ATOM     15  C   UNL     1       0.040  -2.768  -0.013  0.00  0.00    -0.015 A 
ATOM     16  C   UNL     1       0.037  -2.084   1.188  0.00  0.00    +0.006 A 
ATOM     17  C   UNL     1       0.023  -0.702   1.195  0.00  0.00    +0.004 A 
ENDBRANCH   2  15
ENDBRANCH   1   5
BRANCH   1  18
ATOM     18  C   UNL     1       2.495  -7.598   1.643  0.00  0.00    +0.231 C 
ATOM     19  O   UNL     1       1.421  -7.994   1.242  0.00  0.00    -0.274 OA
ATOM     20  N   UNL     1       3.299  -8.424   2.342  0.00  0.00    -0.311 N 
ATOM     21  H   UNL     1       4.158  -8.107   2.663  0.00  0.00    +0.149 HD
BRANCH  20  22
ATOM     22  C   UNL     1       2.876  -9.799   2.617  0.00  0.00    +0.140 C 
BRANCH  22  23
ATOM     23  C   UNL     1       3.963 -10.516   3.420  0.00  0.00    +0.162 C 
BRANCH  23  24
ATOM     24  C   UNL     1       3.584 -11.964   3.598  0.00  0.00    -0.018 A 
ATOM     25  C   UNL     1       2.669 -12.324   4.569  0.00  0.00    +0.008 A 
ATOM     26  C   UNL     1       2.321 -13.652   4.732  0.00  0.00    +0.033 A 
ATOM     27  C   UNL     1       2.887 -14.619   3.923  0.00  0.00    +0.126 A 
ATOM     28  C   UNL     1       3.801 -14.259   2.951  0.00  0.00    +0.033 A 
ATOM     29  C   UNL     1       4.146 -12.930   2.785  0.00  0.00    +0.008 A 
BRANCH  27  30
ATOM     30  N   UNL     1       2.515 -16.041   4.098  0.00  0.00    +0.056 N 
ATOM     31  O   UNL     1       1.716 -16.357   4.949  0.00  0.00    -0.126 OA
ATOM     32  O   UNL     1       3.011 -16.887   3.391  0.00  0.00    -0.126 OA
ENDBRANCH  27  30
ENDBRANCH  23  24
BRANCH  23  33
ATOM     33  O   UNL     1       4.095  -9.898   4.702  0.00  0.00    -0.386 OA
ATOM     34  H   UNL     1       3.287  -9.918   5.233  0.00  0.00    +0.210 HD
ENDBRANCH  23  33
ENDBRANCH  22  23
ENDBRANCH  20  22
ENDBRANCH   1  18
TORSDOF 8
