REMARK  Name = ZINC17167095
REMARK  9 active torsions:
REMARK  status: ('A' for Active; 'I' for Inactive)
REMARK    1  A    between atoms: C_1  and  C_2
REMARK    2  A    between atoms: C_3  and  C_34
REMARK    3  A    between atoms: N_6  and  C_26
REMARK    4  A    between atoms: C_10  and  C_11
REMARK    5  A    between atoms: C_14  and  C_16
REMARK    6  A    between atoms: C_19  and  S_22
REMARK    7  A    between atoms: S_22  and  N_25
REMARK    8  A    between atoms: C_26  and  C_27
REMARK    9  A    between atoms: C_27  and  C_28
REMARK                            x       y       z     vdW  Elec       q    Type
REMARK                         _______ _______ _______ _____ _____    ______ ____
ROOT
ATOM      1  C   UNL     1      -0.203   1.402  -0.041  0.00  0.00    +0.046 C 
ATOM      2  C   UNL     1       0.248  -0.035   0.012  0.00  0.00    -0.016 C 
ATOM      3  C   UNL     1       0.580  -0.716  -1.153  0.00  0.00    +0.117 C 
ATOM      4  C   UNL     1       1.016  -2.111  -1.074  0.00  0.00    +0.264 C 
ATOM      5  O   UNL     1       1.307  -2.709  -2.094  0.00  0.00    -0.269 OA
ATOM      6  N   UNL     1       1.099  -2.740   0.111  0.00  0.00    -0.233 N 
ATOM      7  C   UNL     1       0.785  -2.113   1.259  0.00  0.00    +0.254 C 
ATOM      8  O   UNL     1       0.869  -2.709   2.317  0.00  0.00    -0.270 OA
ATOM      9  C   UNL     1       0.347  -0.712   1.244  0.00  0.00    +0.045 C 
ATOM     10  C   UNL     1       0.026  -0.056   2.440  0.00  0.00    +0.059 C 
ENDROOT
BRANCH  10  11
ATOM     11  C   UNL     1      -0.058  -0.780   3.631  0.00  0.00    +0.129 A 
ATOM     12  C   UNL     1       0.406  -0.362   4.877  0.00  0.00    +0.050 A 
ATOM     13  C   UNL     1       0.118  -1.383   5.776  0.00  0.00    +0.050 A 
ATOM     14  C   UNL     1      -0.507  -2.388   5.062  0.00  0.00    +0.136 A 
ATOM     15  O   UNL     1      -0.609  -2.005   3.778  0.00  0.00    -0.455 OA
BRANCH  14  16
ATOM     16  C   UNL     1      -0.988  -3.666   5.619  0.00  0.00    +0.017 A 
ATOM     17  C   UNL     1      -0.833  -3.942   6.980  0.00  0.00    +0.013 A 
ATOM     18  C   UNL     1      -1.285  -5.140   7.493  0.00  0.00    +0.029 A 
ATOM     19  C   UNL     1      -1.892  -6.067   6.664  0.00  0.00    +0.105 A 
ATOM     20  C   UNL     1      -2.050  -5.800   5.315  0.00  0.00    +0.029 A 
ATOM     21  C   UNL     1      -1.608  -4.605   4.788  0.00  0.00    +0.013 A 
BRANCH  19  22
ATOM     22  S   UNL     1      -2.466  -7.594   7.329  0.00  0.00    +0.056 S 
ATOM     23  O   UNL     1      -2.504  -8.518   6.250  0.00  0.00    -0.153 OA
ATOM     24  O   UNL     1      -1.711  -7.833   8.509  0.00  0.00    -0.153 OA
BRANCH  22  25
ATOM     25  N   UNL     1      -4.033  -7.361   7.809  0.00  0.00    -0.204 NA
ATOM     26  H   UNL     1      -4.452  -6.494   7.693  0.00  0.00    +0.144 HD
ATOM     27  H   UNL     1      -4.533  -8.092   8.206  0.00  0.00    +0.144 HD
ENDBRANCH  22  25
ENDBRANCH  19  22
ENDBRANCH  14  16
ENDBRANCH  10  11
BRANCH   3  28
ATOM     28  C   UNL     1       0.497  -0.057  -2.422  0.00  0.00    +0.105 C 
ATOM     29  N   UNL     1       0.430   0.465  -3.429  0.00  0.00    -0.191 NA
ENDBRANCH   3  28
BRANCH   6  30
ATOM     30  C   UNL     1       1.539  -4.136   0.153  0.00  0.00    +0.121 C 
BRANCH  30  31
ATOM     31  C   UNL     1       3.061  -4.187   0.304  0.00  0.00    +0.054 C 
BRANCH  31  32
ATOM     32  C   UNL     1       3.514  -5.624   0.347  0.00  0.00    -0.046 A 
ATOM     33  C   UNL     1       3.598  -6.286   1.558  0.00  0.00    +0.004 A 
ATOM     34  C   UNL     1       4.013  -7.604   1.598  0.00  0.00    +0.000 A 
ATOM     35  C   UNL     1       4.344  -8.260   0.427  0.00  0.00    +0.000 A 
ATOM     36  C   UNL     1       4.259  -7.598  -0.784  0.00  0.00    +0.000 A 
ATOM     37  C   UNL     1       3.839  -6.282  -0.824  0.00  0.00    +0.004 A 
ENDBRANCH  31  32
ENDBRANCH  30  31
ENDBRANCH   6  30
TORSDOF 8
