REMARK  Name = ZINC36773502
REMARK  9 active torsions:
REMARK  status: ('A' for Active; 'I' for Inactive)
REMARK    1  A    between atoms: C_1  and  C_2
REMARK    2  A    between atoms: C_2  and  C_3
REMARK    3  A    between atoms: C_3  and  N_4
REMARK    4  A    between atoms: C_8  and  S_27
REMARK    5  A    between atoms: C_12  and  S_13
REMARK    6  A    between atoms: S_13  and  C_14
REMARK    7  A    between atoms: C_14  and  C_15
REMARK    8  A    between atoms: C_24  and  O_26
REMARK    9  A    between atoms: S_27  and  N_30
REMARK                            x       y       z     vdW  Elec       q    Type
REMARK                         _______ _______ _______ _____ _____    ______ ____
ROOT
ATOM      1  N   UNL     1      -1.413  -1.998   0.005  0.00  0.00    -0.319 N 
ATOM      2  C   UNL     1      -1.407  -2.814  -1.115  0.00  0.00    +0.070 A 
ATOM      3  C   UNL     1      -1.417  -2.572  -2.480  0.00  0.00    +0.030 A 
ATOM      4  C   UNL     1      -1.406  -3.631  -3.365  0.00  0.00    +0.030 A 
ATOM      5  C   UNL     1      -1.387  -4.937  -2.899  0.00  0.00    +0.107 A 
ATOM      6  C   UNL     1      -1.378  -5.195  -1.546  0.00  0.00    +0.058 A 
ATOM      7  C   UNL     1      -1.387  -4.135  -0.637  0.00  0.00    +0.092 A 
ATOM      8  N   UNL     1      -1.382  -4.069   0.720  0.00  0.00    -0.222 NA
ATOM      9  C   UNL     1      -1.391  -2.815   1.100  0.00  0.00    +0.170 A 
ENDROOT
BRANCH   5  10
ATOM     10  S   UNL     1      -1.375  -6.275  -4.045  0.00  0.00    +0.056 S 
ATOM     11  O   UNL     1      -1.907  -7.401  -3.361  0.00  0.00    -0.153 OA
ATOM     12  O   UNL     1      -1.938  -5.780  -5.252  0.00  0.00    -0.153 OA
BRANCH  10  13
ATOM     13  N   UNL     1       0.211  -6.626  -4.371  0.00  0.00    -0.204 NA
ATOM     14  H   UNL     1       0.918  -6.116  -3.945  0.00  0.00    +0.144 HD
ATOM     15  H   UNL     1       0.432  -7.341  -4.987  0.00  0.00    +0.144 HD
ENDBRANCH  10  13
ENDBRANCH   5  10
BRANCH   1  16
ATOM     16  C   UNL     1      -1.433  -0.534   0.013  0.00  0.00    +0.124 C 
BRANCH  16  18
ATOM     17  C   UNL     1      -0.019   1.526   0.010  0.00  0.00    +0.005 C 
ATOM     18  C   UNL     1       0.002  -0.004   0.002  0.00  0.00    +0.018 C 
ENDBRANCH  16  18
ENDBRANCH   1  16
BRANCH   9  19
ATOM     19  S   UNL     1      -1.382  -2.264   2.774  0.00  0.00    -0.083 S 
BRANCH  19  20
ATOM     20  C   UNL     1      -1.352  -3.798   3.741  0.00  0.00    +0.113 C 
BRANCH  20  21
ATOM     21  C   UNL     1      -1.342  -3.465   5.211  0.00  0.00    -0.020 A 
ATOM     22  C   UNL     1      -2.457  -3.626   5.970  0.00  0.00    +0.097 A 
ATOM     23  C   UNL     1      -2.422  -3.308   7.343  0.00  0.00    +0.338 A 
ATOM     24  O   UNL     1      -3.428  -3.457   8.013  0.00  0.00    -0.245 OA
ATOM     25  O   UNL     1      -1.308  -2.845   7.932  0.00  0.00    -0.422 OA
ATOM     26  C   UNL     1      -0.166  -2.663   7.235  0.00  0.00    +0.143 A 
ATOM     27  C   UNL     1      -0.128  -2.965   5.861  0.00  0.00    +0.022 A 
ATOM     28  C   UNL     1       1.054  -2.782   5.135  0.00  0.00    +0.015 A 
ATOM     29  C   UNL     1       2.171  -2.314   5.766  0.00  0.00    +0.046 A 
ATOM     30  C   UNL     1       2.141  -2.018   7.127  0.00  0.00    +0.120 A 
ATOM     31  C   UNL     1       0.976  -2.183   7.858  0.00  0.00    +0.092 A 
BRANCH  30  32
ATOM     32  O   UNL     1       3.260  -1.554   7.739  0.00  0.00    -0.507 OA
ATOM     33  H   UNL     1       3.342  -0.591   7.731  0.00  0.00    +0.292 HD
ENDBRANCH  30  32
ENDBRANCH  20  21
ENDBRANCH  19  20
ENDBRANCH   9  19
TORSDOF 8
