REMARK  Name = ZINC63698361
REMARK  7 active torsions:
REMARK  status: ('A' for Active; 'I' for Inactive)
REMARK    1  A    between atoms: C_1  and  C_2
REMARK    2  A    between atoms: C_7  and  C_12
REMARK    3  A    between atoms: C_12  and  N_13
REMARK    4  A    between atoms: C_14  and  C_16
REMARK    5  A    between atoms: N_21  and  S_23
REMARK    6  A    between atoms: S_23  and  C_26
REMARK    7  A    between atoms: C_36  and  C_38
REMARK                            x       y       z     vdW  Elec       q    Type
REMARK                         _______ _______ _______ _____ _____    ______ ____
ROOT
ATOM      1  C   UNL     1       4.884  -4.220   2.233  0.00  0.00    +0.091 C 
ATOM      2  C   UNL     1       4.580  -4.099   0.738  0.00  0.00    +0.015 C 
ATOM      3  C   UNL     1       5.656  -3.244   0.064  0.00  0.00    +0.018 C 
ATOM      4  C   UNL     1       7.019  -3.925   0.228  0.00  0.00    +0.109 C 
ATOM      5  N   UNL     1       7.254  -4.176   1.656  0.00  0.00    -0.176 NA
ATOM      6  C   UNL     1       6.238  -4.910   2.422  0.00  0.00    +0.122 C 
ENDROOT
BRANCH   1   8
ATOM      7  N   UNL     1       2.525  -4.617   2.863  0.00  0.00    -0.311 N 
ATOM      8  C   UNL     1       3.806  -5.034   2.901  0.00  0.00    +0.218 C 
ATOM      9  O   UNL     1       4.092  -6.065   3.473  0.00  0.00    -0.275 OA
ATOM     10  H   UNL     1       2.297  -3.793   2.406  0.00  0.00    +0.149 HD
BRANCH   7  11
ATOM     11  C   UNL     1       1.478  -5.409   3.513  0.00  0.00    +0.150 C 
BRANCH  11  18
ATOM     12  C   UNL     1      -0.508   1.042   1.640  0.00  0.00    +0.044 C 
ATOM     13  C   UNL     1      -0.421  -0.462   1.678  0.00  0.00    -0.048 A 
ATOM     14  C   UNL     1      -0.619  -1.180   0.486  0.00  0.00    +0.005 A 
ATOM     15  C   UNL     1      -0.560  -2.526   0.429  0.00  0.00    +0.027 A 
ATOM     16  C   UNL     1      -0.279  -3.291   1.652  0.00  0.00    +0.060 A 
ATOM     17  N   UNL     1      -0.165  -4.565   1.892  0.00  0.00    -0.362 N 
ATOM     18  C   UNL     1       0.125  -4.720   3.323  0.00  0.00    +0.191 C 
ATOM     19  N   UNL     1       0.166  -3.364   3.886  0.00  0.00    -0.362 N 
ATOM     20  C   UNL     1      -0.069  -2.530   2.914  0.00  0.00    +0.060 A 
ATOM     21  C   UNL     1      -0.152  -1.065   2.854  0.00  0.00    +0.030 A 
ATOM     22  H   UNL     1      -0.256  -5.281   1.244  0.00  0.00    +0.162 HD
ATOM     23  H   UNL     1       0.337  -3.132   4.812  0.00  0.00    +0.162 HD
ENDBRANCH  11  18
ENDBRANCH   7  11
ENDBRANCH   1   8
BRANCH   5  24
ATOM     24  S   UNL     1       8.639  -3.640   2.390  0.00  0.00    +0.061 S 
ATOM     25  O   UNL     1       8.844  -4.469   3.525  0.00  0.00    -0.153 OA
ATOM     26  O   UNL     1       9.613  -3.498   1.365  0.00  0.00    -0.153 OA
BRANCH  24  27
ATOM     27  C   UNL     1       8.312  -2.020   3.001  0.00  0.00    +0.106 A 
ATOM     28  C   UNL     1       8.549  -0.919   2.198  0.00  0.00    +0.030 A 
ATOM     29  C   UNL     1       8.294   0.350   2.678  0.00  0.00    +0.026 A 
ATOM     30  C   UNL     1       7.798   0.520   3.966  0.00  0.00    +0.040 A 
ATOM     31  C   UNL     1       7.558  -0.584   4.769  0.00  0.00    -0.024 A 
ATOM     32  C   UNL     1       7.814  -1.853   4.279  0.00  0.00    +0.034 A 
ATOM     33  C   UNL     1       7.012  -0.438   6.165  0.00  0.00    +0.038 C 
ATOM     34  C   UNL     1       7.265   0.974   6.694  0.00  0.00    +0.024 C 
ATOM     35  C   UNL     1       6.758   1.989   5.661  0.00  0.00    +0.114 C 
ATOM     36  N   UNL     1       7.551   1.817   4.436  0.00  0.00    -0.271 N 
ATOM     37  C   UNL     1       8.032   2.889   3.775  0.00  0.00    +0.217 C 
ATOM     38  O   UNL     1       8.780   2.735   2.833  0.00  0.00    -0.276 OA
ATOM     39  C   UNL     1       7.640   4.279   4.207  0.00  0.00    +0.109 C 
ENDBRANCH  24  27
ENDBRANCH   5  24
TORSDOF 5
