REMARK  Name = ZINC39635083
REMARK  9 active torsions:
REMARK  status: ('A' for Active; 'I' for Inactive)
REMARK    1  A    between atoms: C_1  and  O_2
REMARK    2  A    between atoms: O_2  and  C_3
REMARK    3  A    between atoms: C_6  and  C_9
REMARK    4  A    between atoms: C_9  and  C_10
REMARK    5  A    between atoms: C_10  and  N_11
REMARK    6  A    between atoms: C_12  and  C_14
REMARK    7  A    between atoms: C_25  and  C_27
REMARK    8  A    between atoms: C_31  and  O_32
REMARK    9  A    between atoms: O_32  and  C_33
REMARK                            x       y       z     vdW  Elec       q    Type
REMARK                         _______ _______ _______ _____ _____    ______ ____
ROOT
ATOM      1  C   UNL     1       2.260  -4.486   8.815  0.00  0.00    +0.100 C 
ATOM      2  C   UNL     1       3.429  -3.615   9.330  0.00  0.00    +0.121 C 
ATOM      3  N   UNL     1       2.850  -2.837  10.451  0.00  0.00    -0.296 N 
ATOM      4  C   UNL     1       1.961  -3.798  11.146  0.00  0.00    +0.115 C 
ATOM      5  C   UNL     1       1.301  -4.606  10.011  0.00  0.00    -0.004 C 
ATOM      6  C   UNL     1      -0.058  -4.008   9.661  0.00  0.00    -0.010 C 
ATOM      7  C   UNL     1      -1.011  -4.191  10.845  0.00  0.00    -0.082 C 
ATOM      8  N   UNL     1      -1.147  -5.620  11.150  0.00  0.00    +0.379 N 
ATOM      9  C   UNL     1       0.147  -6.167  11.576  0.00  0.00    -0.082 C 
ATOM     10  C   UNL     1       1.149  -6.067  10.422  0.00  0.00    -0.010 C 
ATOM     11  C   UNL     1       3.081  -1.547  10.767  0.00  0.00    +0.251 C 
ATOM     12  O   UNL     1       3.767  -0.856  10.038  0.00  0.00    -0.270 OA
ATOM     13  H   UNL     1      -1.822  -5.742  11.891  0.00  0.00    -0.086 HD
ATOM     14  H   UNL     1      -1.463  -6.110  10.327  0.00  0.00    -0.086 HD
ENDROOT
BRANCH  11  15
ATOM     15  C   UNL     1       2.504  -0.976  11.993  0.00  0.00    +0.087 A 
ATOM     16  C   UNL     1       2.357  -1.727  13.139  0.00  0.00    +0.063 A 
ATOM     17  S   UNL     1       1.670  -0.667  14.243  0.00  0.00    -0.081 S 
ATOM     18  C   UNL     1       1.552   0.798  13.239  0.00  0.00    +0.120 A 
ATOM     19  C   UNL     1       2.069   0.401  12.055  0.00  0.00    +0.158 A 
ATOM     20 CL   UNL     1       0.930   2.359  13.676  0.00  0.00    -0.072 Cl
BRANCH  19  21
ATOM     21  O   UNL     1       2.170   1.242  10.988  0.00  0.00    -0.492 OA
ATOM     22  C   UNL     1       1.055   1.293  10.095  0.00  0.00    +0.277 C 
ENDBRANCH  19  21
ENDBRANCH  11  15
BRANCH   1  24
ATOM     23  N   UNL     1       0.990  -4.550   6.694  0.00  0.00    -0.315 N 
ATOM     24  C   UNL     1       1.573  -3.809   7.657  0.00  0.00    +0.218 C 
ATOM     25  O   UNL     1       1.544  -2.599   7.592  0.00  0.00    -0.275 OA
ATOM     26  H   UNL     1       1.014  -5.519   6.746  0.00  0.00    +0.149 HD
BRANCH  23  27
ATOM     27  C   UNL     1       0.322  -3.893   5.568  0.00  0.00    +0.109 C 
BRANCH  27  28
ATOM     28  C   UNL     1      -0.251  -4.954   4.625  0.00  0.00    +0.054 C 
BRANCH  28  32
ATOM     29  C   UNL     1      -2.200  -3.037   1.341  0.00  0.00    +0.120 A 
ATOM     30  C   UNL     1      -0.853  -3.357   1.258  0.00  0.00    +0.046 A 
ATOM     31  C   UNL     1      -0.225  -3.976   2.321  0.00  0.00    +0.007 A 
ATOM     32  C   UNL     1      -0.938  -4.277   3.467  0.00  0.00    -0.046 A 
ATOM     33  C   UNL     1      -2.281  -3.960   3.551  0.00  0.00    +0.007 A 
ATOM     34  C   UNL     1      -2.913  -3.335   2.494  0.00  0.00    +0.046 A 
BRANCH  29  36
ATOM     35  C   UNL     1      -2.026  -2.150  -0.858  0.00  0.00    +0.277 C 
ATOM     36  O   UNL     1      -2.821  -2.427   0.296  0.00  0.00    -0.495 OA
ENDBRANCH  29  36
ENDBRANCH  28  32
ENDBRANCH  27  28
ENDBRANCH  23  27
ENDBRANCH   1  24
TORSDOF 7
