REMARK  Name = ZINC20568206
REMARK  12 active torsions:
REMARK  status: ('A' for Active; 'I' for Inactive)
REMARK    1  A    between atoms: C_1  and  C_2
REMARK    2  A    between atoms: C_2  and  C_31
REMARK    3  A    between atoms: C_4  and  N_10
REMARK    4  A    between atoms: C_6  and  C_8
REMARK    5  A    between atoms: C_6  and  C_9
REMARK    6  A    between atoms: N_10  and  C_11
REMARK    7  A    between atoms: N_10  and  C_20
REMARK    8  A    between atoms: C_11  and  C_12
REMARK    9  A    between atoms: C_15  and  O_18
REMARK   10  A    between atoms: O_18  and  C_19
REMARK   11  A    between atoms: C_20  and  N_22
REMARK   12  A    between atoms: N_22  and  C_23
REMARK                            x       y       z     vdW  Elec       q    Type
REMARK                         _______ _______ _______ _____ _____    ______ ____
ROOT
ATOM      1  N   UNL     1       1.270   3.192  -3.507  0.00  0.00    -0.305 N 
ENDROOT
BRANCH   1   5
ATOM      2  C   UNL     1       2.995   2.888   1.081  0.00  0.00    -0.010 C 
ATOM      3  C   UNL     1       1.887   2.357   0.144  0.00  0.00    -0.072 C 
ATOM      4  C   UNL     1       2.173   2.892  -1.256  0.00  0.00    +0.009 C 
ATOM      5  C   UNL     1       0.976   2.647  -2.175  0.00  0.00    +0.073 C 
ATOM      6  C   UNL     1      -0.238   3.369  -1.593  0.00  0.00    +0.009 C 
ATOM      7  C   UNL     1      -0.554   2.837  -0.197  0.00  0.00    -0.072 C 
ATOM      8  N   UNL     1       0.608   2.791   0.665  0.00  0.00    +0.386 N 
ATOM      9  C   UNL     1      -1.215   1.458  -0.312  0.00  0.00    -0.010 C 
ATOM     10  C   UNL     1      -1.590   3.789   0.440  0.00  0.00    -0.010 C 
ATOM     11  C   UNL     1       1.993   0.827   0.139  0.00  0.00    -0.010 C 
ATOM     12  H   UNL     1       0.301   2.124   1.485  0.00  0.00    -0.084 HD
ATOM     13  H   UNL     1       0.696   3.820   1.043  0.00  0.00    -0.084 HD
ENDBRANCH   1   5
BRANCH   1  14
ATOM     14  C   UNL     1       1.365   2.364  -4.567  0.00  0.00    +0.138 C 
ATOM     15  S   UNL     1       1.809   2.985  -6.100  0.00  0.00    -0.018 S 
BRANCH  14  16
ATOM     16  N   UNL     1       1.112   1.049  -4.420  0.00  0.00    -0.296 N 
ATOM     17  H   UNL     1       0.136   0.640  -4.720  0.00  0.00    +0.154 HD
BRANCH  16  18
ATOM     18  C   UNL     1       2.090   0.203  -3.886  0.00  0.00    +0.053 A 
ATOM     19  C   UNL     1       3.312   0.723  -3.478  0.00  0.00    +0.044 A 
ATOM     20  C   UNL     1       4.276  -0.116  -2.950  0.00  0.00    +0.043 A 
ATOM     21  C   UNL     1       4.025  -1.471  -2.828  0.00  0.00    +0.021 A 
ATOM     22  C   UNL     1       2.810  -1.992  -3.234  0.00  0.00    +0.023 A 
ATOM     23  C   UNL     1       1.840  -1.158  -3.758  0.00  0.00    +0.062 A 
ATOM     24 CL   UNL     1       0.312  -1.811  -4.260  0.00  0.00    -0.082 Cl
ATOM     25 CL   UNL     1       5.803   0.533  -2.440  0.00  0.00    -0.083 Cl
ENDBRANCH  16  18
ENDBRANCH  14  16
ENDBRANCH   1  14
BRANCH   1  26
ATOM     26  C   UNL     1       1.459   4.633  -3.684  0.00  0.00    +0.142 C 
BRANCH  26  27
ATOM     27  C   UNL     1       2.915   4.975  -3.501  0.00  0.00    -0.030 A 
ATOM     28  C   UNL     1       3.364   5.456  -2.285  0.00  0.00    +0.009 A 
ATOM     29  C   UNL     1       4.699   5.764  -2.113  0.00  0.00    +0.046 A 
ATOM     30  C   UNL     1       5.589   5.603  -3.166  0.00  0.00    +0.120 A 
ATOM     31  C   UNL     1       5.135   5.126  -4.387  0.00  0.00    +0.046 A 
ATOM     32  C   UNL     1       3.799   4.814  -4.552  0.00  0.00    +0.009 A 
BRANCH  30  33
ATOM     33  O   UNL     1       6.902   5.911  -3.001  0.00  0.00    -0.495 OA
ATOM     34  C   UNL     1       7.298   6.396  -1.716  0.00  0.00    +0.277 C 
ENDBRANCH  30  33
ENDBRANCH  26  27
ENDBRANCH   1  26
TORSDOF 7
