REMARK  Name = ZINC00708003
REMARK  9 active torsions:
REMARK  status: ('A' for Active; 'I' for Inactive)
REMARK    1  A    between atoms: C_1  and  C_2
REMARK    2  A    between atoms: C_3  and  C_32
REMARK    3  A    between atoms: C_4  and  C_23
REMARK    4  A    between atoms: C_10  and  C_15
REMARK    5  A    between atoms: C_18  and  O_21
REMARK    6  A    between atoms: O_21  and  C_22
REMARK    7  A    between atoms: C_26  and  N_29
REMARK    8  A    between atoms: C_32  and  O_34
REMARK    9  A    between atoms: O_34  and  C_35
REMARK                            x       y       z     vdW  Elec       q    Type
REMARK                         _______ _______ _______ _____ _____    ______ ____
ROOT
ATOM      1  C   UNL     1      -5.048   2.303   2.551  0.00  0.00    +0.061 C 
ATOM      2  C   UNL     1      -4.324   2.642   1.273  0.00  0.00    +0.016 C 
ATOM      3  C   UNL     1      -3.301   3.513   1.297  0.00  0.00    +0.065 C 
ATOM      4  C   UNL     1      -2.553   3.869   0.045  0.00  0.00    +0.092 C 
ATOM      5  C   UNL     1      -3.344   3.494  -1.183  0.00  0.00    +0.024 C 
ATOM      6  C   UNL     1      -4.366   2.617  -1.103  0.00  0.00    +0.016 C 
ATOM      7  N   UNL     1      -4.713   2.060   0.099  0.00  0.00    -0.321 N 
ATOM      8  C   UNL     1      -5.154   2.228  -2.330  0.00  0.00    +0.059 C 
ATOM      9  C   UNL     1      -5.184   3.399  -3.314  0.00  0.00    +0.032 C 
ATOM     10  C   UNL     1      -3.741   3.771  -3.672  0.00  0.00    +0.088 C 
ATOM     11  C   UNL     1      -2.989   4.086  -2.408  0.00  0.00    +0.162 C 
ATOM     12  O   UNL     1      -2.057   4.865  -2.446  0.00  0.00    -0.292 OA
ATOM     13  H   UNL     1      -5.310   1.137   0.113  0.00  0.00    +0.152 HD
ENDROOT
BRANCH   9  14
ATOM     14  C   UNL     1      -5.926   2.994  -4.561  0.00  0.00    -0.043 A 
ATOM     15  C   UNL     1      -5.468   1.937  -5.325  0.00  0.00    +0.007 A 
ATOM     16  C   UNL     1      -6.150   1.560  -6.465  0.00  0.00    +0.046 A 
ATOM     17  C   UNL     1      -7.290   2.251  -6.851  0.00  0.00    +0.120 A 
ATOM     18  C   UNL     1      -7.744   3.315  -6.086  0.00  0.00    +0.046 A 
ATOM     19  C   UNL     1      -7.062   3.684  -4.943  0.00  0.00    +0.007 A 
BRANCH  17  20
ATOM     20  O   UNL     1      -7.959   1.886  -7.976  0.00  0.00    -0.495 OA
ATOM     21  C   UNL     1      -7.433   0.781  -8.714  0.00  0.00    +0.277 C 
ENDBRANCH  17  20
ENDBRANCH   9  14
BRANCH   4  22
ATOM     22  C   UNL     1      -1.238   3.133   0.030  0.00  0.00    -0.035 A 
ATOM     23  C   UNL     1      -1.219   1.751   0.017  0.00  0.00    +0.007 A 
ATOM     24  C   UNL     1      -0.013   1.076   0.008  0.00  0.00    +0.033 A 
ATOM     25  C   UNL     1       1.175   1.783   0.000  0.00  0.00    +0.126 A 
ATOM     26  C   UNL     1       1.156   3.165   0.008  0.00  0.00    +0.033 A 
ATOM     27  C   UNL     1      -0.050   3.840   0.022  0.00  0.00    +0.007 A 
BRANCH  25  28
ATOM     28  N   UNL     1       2.467   1.061  -0.016  0.00  0.00    +0.056 N 
ATOM     29  O   UNL     1       2.483  -0.157  -0.023  0.00  0.00    -0.126 OA
ATOM     30  O   UNL     1       3.513   1.684  -0.022  0.00  0.00    -0.126 OA
ENDBRANCH  25  28
ENDBRANCH   4  22
BRANCH   3  31
ATOM     31  C   UNL     1      -2.923   4.107   2.523  0.00  0.00    +0.338 C 
ATOM     32  O   UNL     1      -3.522   3.827   3.545  0.00  0.00    -0.245 OA
BRANCH  31  33
ATOM     33  O   UNL     1      -1.898   4.984   2.561  0.00  0.00    -0.458 OA
BRANCH  33  34
ATOM     34  C   UNL     1      -1.571   5.544   3.834  0.00  0.00    +0.177 C 
ATOM     35  C   UNL     1      -2.319   6.879   4.032  0.00  0.00    +0.044 C 
ATOM     36  C   UNL     1      -1.305   7.775   4.785  0.00  0.00    +0.004 C 
ATOM     37  C   UNL     1       0.044   7.391   4.129  0.00  0.00    +0.004 C 
ATOM     38  C   UNL     1      -0.068   5.870   3.896  0.00  0.00    +0.044 C 
ENDBRANCH  33  34
ENDBRANCH  31  33
ENDBRANCH   3  31
TORSDOF 7
