REMARK  Name = ZINC20831750
REMARK  10 active torsions:
REMARK  status: ('A' for Active; 'I' for Inactive)
REMARK    1  A    between atoms: C_4  and  C_7
REMARK    2  A    between atoms: N_8  and  N_9
REMARK    3  A    between atoms: C_12  and  S_15
REMARK    4  A    between atoms: S_15  and  C_16
REMARK    5  A    between atoms: C_16  and  C_17
REMARK    6  A    between atoms: C_17  and  C_18
REMARK    7  A    between atoms: N_20  and  C_21
REMARK    8  A    between atoms: C_24  and  S_27
REMARK    9  A    between atoms: S_27  and  N_30
REMARK   10  A    between atoms: N_30  and  C_31
REMARK                            x       y       z     vdW  Elec       q    Type
REMARK                         _______ _______ _______ _____ _____    ______ ____
ROOT
ATOM      1  C   UNL     1      -1.256  -5.149  -0.016  0.00  0.00    +0.218 C 
ATOM      2  O   UNL     1      -0.053  -5.302  -0.036  0.00  0.00    -0.275 OA
ATOM      3  N   UNL     1      -2.071  -6.223  -0.013  0.00  0.00    -0.285 N 
ATOM      4  H   UNL     1      -3.159  -6.087   0.082  0.00  0.00    +0.155 HD
ENDROOT
BRANCH   3   5
ATOM      5  C   UNL     1      -1.534  -7.510  -0.130  0.00  0.00    +0.033 A 
ATOM      6  C   UNL     1      -2.230  -8.493  -0.821  0.00  0.00    +0.025 A 
ATOM      7  C   UNL     1      -1.694  -9.761  -0.940  0.00  0.00    +0.030 A 
ATOM      8  C   UNL     1      -0.472 -10.054  -0.363  0.00  0.00    +0.105 A 
ATOM      9  C   UNL     1       0.220  -9.078   0.331  0.00  0.00    +0.030 A 
ATOM     10  C   UNL     1      -0.308  -7.807   0.449  0.00  0.00    +0.025 A 
BRANCH   8  11
ATOM     11  S   UNL     1       0.204 -11.674  -0.511  0.00  0.00    +0.059 S 
ATOM     12  O   UNL     1      -0.379 -12.253  -1.670  0.00  0.00    -0.153 OA
ATOM     13  O   UNL     1       1.610 -11.543  -0.349  0.00  0.00    -0.153 OA
BRANCH  11  14
ATOM     14  N   UNL     1      -0.341 -12.553   0.782  0.00  0.00    -0.187 NA
ATOM     15  H   UNL     1       0.348 -12.773   1.611  0.00  0.00    +0.148 HD
BRANCH  14  16
ATOM     16  C   UNL     1      -1.771 -12.841   0.921  0.00  0.00    +0.077 C 
ATOM     17  C   UNL     1      -2.417 -11.791   1.828  0.00  0.00    +0.020 C 
ATOM     18  C   UNL     1      -3.910 -12.092   1.973  0.00  0.00    +0.002 C 
ATOM     19  C   UNL     1      -4.093 -13.481   2.590  0.00  0.00    +0.000 C 
ATOM     20  C   UNL     1      -3.446 -14.530   1.683  0.00  0.00    +0.002 C 
ATOM     21  C   UNL     1      -1.954 -14.229   1.538  0.00  0.00    +0.020 C 
ENDBRANCH  14  16
ENDBRANCH  11  14
ENDBRANCH   8  11
ENDBRANCH   3   5
BRANCH   1  22
ATOM     22  C   UNL     1      -1.840  -3.760   0.005  0.00  0.00    +0.107 C 
BRANCH  22  23
ATOM     23  C   UNL     1      -0.707  -2.731  -0.003  0.00  0.00    +0.086 C 
BRANCH  23  24
ATOM     24  S   UNL     1      -1.410  -1.059   0.022  0.00  0.00    -0.084 S 
BRANCH  24  28
ATOM     25  N   UNL     1       1.688   3.128   0.009  0.00  0.00    -0.205 N 
ATOM     26  C   UNL     1       1.277   1.802   0.005  0.00  0.00    +0.232 A 
ATOM     27  N   UNL     1      -0.017   1.362   0.022  0.00  0.00    -0.186 NA
ATOM     28  C   UNL     1       0.002  -0.004   0.009  0.00  0.00    +0.210 A 
ATOM     29  N   UNL     1       1.254  -0.392  -0.014  0.00  0.00    -0.144 NA
ATOM     30  N   UNL     1       2.062   0.752  -0.017  0.00  0.00    -0.245 N 
ATOM     31  H   UNL     1       0.941   3.935   0.027  0.00  0.00    +0.177 HD
ATOM     32  H   UNL     1       3.154   0.883  -0.034  0.00  0.00    +0.192 HD
BRANCH  25  34
ATOM     33  C   UNL     1       3.438   4.678  -0.006  0.00  0.00    +0.138 C 
ATOM     34  N   UNL     1       3.054   3.438  -0.010  0.00  0.00    -0.188 NA
BRANCH  33  38
ATOM     35  C   UNL     1       7.576   5.618  -0.065  0.00  0.00    +0.000 A 
ATOM     36  C   UNL     1       6.639   6.636  -0.042  0.00  0.00    +0.001 A 
ATOM     37  C   UNL     1       5.293   6.338  -0.023  0.00  0.00    +0.009 A 
ATOM     38  C   UNL     1       4.875   5.005  -0.027  0.00  0.00    -0.005 A 
ATOM     39  C   UNL     1       5.827   3.982  -0.044  0.00  0.00    +0.009 A 
ATOM     40  C   UNL     1       7.170   4.295  -0.070  0.00  0.00    +0.001 A 
ENDBRANCH  33  38
ENDBRANCH  25  34
ENDBRANCH  24  28
ENDBRANCH  23  24
ENDBRANCH  22  23
ENDBRANCH   1  22
TORSDOF 10
