REMARK  Name = ZINC06134111
REMARK  8 active torsions:
REMARK  status: ('A' for Active; 'I' for Inactive)
REMARK    1  A    between atoms: C_1  and  C_2
REMARK    2  A    between atoms: C_2  and  O_3
REMARK    3  A    between atoms: O_3  and  C_4
REMARK    4  A    between atoms: C_11  and  C_16
REMARK    5  A    between atoms: C_16  and  C_18
REMARK    6  A    between atoms: C_16  and  N_73
REMARK    7  A    between atoms: N_22  and  C_23
REMARK    8  A    between atoms: N_31  and  C_34
REMARK                            x       y       z     vdW  Elec       q    Type
REMARK                         _______ _______ _______ _____ _____    ______ ____
ROOT
ATOM      1  C   UNL     1      -0.013   1.086   0.008  0.00  0.00    +0.039 C 
ENDROOT
BRANCH   1   9
ATOM      2  C   UNL     1      -2.883   0.823   5.496  0.00  0.00    +0.121 A 
ATOM      3  C   UNL     1      -3.092   2.195   5.622  0.00  0.00    +0.047 A 
ATOM      4  C   UNL     1      -2.665   3.062   4.641  0.00  0.00    +0.030 A 
ATOM      5  C   UNL     1      -2.018   2.571   3.512  0.00  0.00    +0.049 A 
ATOM      6  C   UNL     1      -1.805   1.186   3.381  0.00  0.00    +0.002 A 
ATOM      7  C   UNL     1      -2.243   0.315   4.384  0.00  0.00    +0.055 A 
ATOM      8  C   UNL     1      -1.122   0.682   2.188  0.00  0.00    +0.017 A 
ATOM      9  C   UNL     1      -0.718   1.572   1.248  0.00  0.00    +0.011 A 
ATOM     10  C   UNL     1      -0.951   2.952   1.429  0.00  0.00    +0.251 A 
ATOM     11  O   UNL     1      -0.575   3.735   0.574  0.00  0.00    -0.268 OA
ATOM     12  N   UNL     1      -1.582   3.424   2.518  0.00  0.00    -0.322 N 
ATOM     13  H   UNL     1      -1.737   4.407   2.610  0.00  0.00    +0.169 HD
BRANCH   2  14
ATOM     14  O   UNL     1      -3.312  -0.018   6.474  0.00  0.00    -0.492 OA
BRANCH  14  16
ATOM     15  C   UNL     1      -4.374  -0.522   8.585  0.00  0.00    +0.048 C 
ATOM     16  C   UNL     1      -3.966   0.573   7.598  0.00  0.00    +0.225 C 
ENDBRANCH  14  16
ENDBRANCH   2  14
ENDBRANCH   1   9
BRANCH   1  22
ATOM     17  C   UNL     1      -2.133   1.158  -1.160  0.00  0.00    -0.058 C 
ATOM     18  C   UNL     1      -2.855   1.750  -2.373  0.00  0.00    +0.086 C 
ATOM     19  N   UNL     1      -2.194   1.294  -3.604  0.00  0.00    -0.331 N 
ATOM     20  C   UNL     1      -0.784   1.709  -3.626  0.00  0.00    +0.086 C 
ATOM     21  C   UNL     1      -0.062   1.117  -2.413  0.00  0.00    -0.058 C 
ATOM     22  N   UNL     1      -0.723   1.600  -1.182  0.00  0.00    +0.391 N 
ATOM     23  H   UNL     1      -0.695   2.627  -1.170  0.00  0.00    -0.080 HD
BRANCH  19  24
ATOM     24  C   UNL     1      -2.870   1.757  -4.737  0.00  0.00    +0.065 A 
ATOM     25  C   UNL     1      -2.448   1.376  -6.003  0.00  0.00    +0.026 A 
ATOM     26  C   UNL     1      -3.121   1.833  -7.121  0.00  0.00    +0.002 A 
ATOM     27  C   UNL     1      -4.208   2.675  -6.980  0.00  0.00    +0.003 A 
ATOM     28  C   UNL     1      -4.629   3.062  -5.721  0.00  0.00    +0.040 A 
ATOM     29  C   UNL     1      -3.964   2.605  -4.598  0.00  0.00    +0.144 A 
ATOM     30  F   UNL     1      -4.375   2.983  -3.367  0.00  0.00    -0.204 F 
ENDBRANCH  19  24
ENDBRANCH   1  22
BRANCH   1  31
ATOM     31  C   UNL     1       1.401   1.607  -0.003  0.00  0.00    +0.143 A 
ATOM     32  N   UNL     1       1.781   2.833  -0.271  0.00  0.00    -0.115 NA
ATOM     33  N   UNL     1       3.065   2.881  -0.176  0.00  0.00    -0.023 NA
ATOM     34  N   UNL     1       3.514   1.718   0.146  0.00  0.00    -0.044 NA
ATOM     35  N   UNL     1       2.518   0.907   0.268  0.00  0.00    -0.227 N 
BRANCH  35  36
ATOM     36  C   UNL     1       2.590  -0.511   0.628  0.00  0.00    +0.111 C 
ATOM     37  C   UNL     1       3.230  -0.654   2.011  0.00  0.00    +0.027 C 
ATOM     38  C   UNL     1       3.305  -2.135   2.388  0.00  0.00    +0.002 C 
ATOM     39  C   UNL     1       4.151  -2.882   1.355  0.00  0.00    +0.000 C 
ATOM     40  C   UNL     1       3.511  -2.739  -0.028  0.00  0.00    +0.002 C 
ATOM     41  C   UNL     1       3.436  -1.258  -0.405  0.00  0.00    +0.027 C 
ENDBRANCH  35  36
ENDBRANCH   1  31
TORSDOF 7
