REMARK  Name = ZINC08635512
REMARK  11 active torsions:
REMARK  status: ('A' for Active; 'I' for Inactive)
REMARK    1  A    between atoms: C_1  and  N_2
REMARK    2  A    between atoms: C_3  and  C_17
REMARK    3  A    between atoms: C_5  and  C_7
REMARK    4  A    between atoms: C_10  and  O_15
REMARK    5  A    between atoms: C_11  and  O_13
REMARK    6  A    between atoms: O_13  and  C_14
REMARK    7  A    between atoms: O_15  and  C_16
REMARK    8  A    between atoms: C_25  and  C_27
REMARK    9  A    between atoms: C_27  and  N_28
REMARK   10  A    between atoms: N_28  and  S_29
REMARK   11  A    between atoms: S_29  and  C_32
REMARK                            x       y       z     vdW  Elec       q    Type
REMARK                         _______ _______ _______ _____ _____    ______ ____
ROOT
ATOM      1  C   UNL     1       1.903  -6.578   0.654  0.00  0.00    +0.024 C 
ATOM      2  C   UNL     1       2.139  -7.107  -0.764  0.00  0.00    -0.068 C 
ATOM      3  C   UNL     1       4.182  -8.210  -0.072  0.00  0.00    -0.078 C 
ATOM      4  C   UNL     1       4.004  -7.713   1.365  0.00  0.00    -0.015 C 
ATOM      5  C   UNL     1       3.261  -6.372   1.337  0.00  0.00    -0.007 C 
ATOM      6  C   UNL     1       4.080  -5.376   0.506  0.00  0.00    -0.010 C 
ATOM      7  C   UNL     1       4.256  -5.939  -0.907  0.00  0.00    -0.053 C 
ATOM      8  N   UNL     1       3.587  -7.251  -1.028  0.00  0.00    +0.383 N 
ATOM      9  H   UNL     1       3.719  -7.607  -1.982  0.00  0.00    -0.081 HD
ENDROOT
BRANCH   1  12
ATOM     10  C   UNL     1      -0.624  -5.963  -1.025  0.00  0.00    +0.172 C 
ATOM     11  N   UNL     1       0.064  -5.011  -0.150  0.00  0.00    -0.271 N 
ATOM     12  C   UNL     1       1.166  -5.266   0.587  0.00  0.00    +0.041 A 
ATOM     13  C   UNL     1       1.496  -4.135   1.249  0.00  0.00    +0.053 A 
ATOM     14  C   UNL     1       0.551  -3.147   0.912  0.00  0.00    +0.093 A 
ATOM     15  N   UNL     1      -0.307  -3.678   0.067  0.00  0.00    -0.171 NA
BRANCH  14  16
ATOM     16  C   UNL     1       0.529  -1.751   1.417  0.00  0.00    +0.006 A 
ATOM     17  C   UNL     1       1.561  -1.288   2.230  0.00  0.00    +0.014 A 
ATOM     18  C   UNL     1       1.541   0.010   2.700  0.00  0.00    +0.050 A 
ATOM     19  C   UNL     1       0.495   0.855   2.363  0.00  0.00    +0.162 A 
ATOM     20  C   UNL     1      -0.542   0.396   1.555  0.00  0.00    +0.162 A 
ATOM     21  C   UNL     1      -0.523  -0.903   1.078  0.00  0.00    +0.059 A 
BRANCH  20  22
ATOM     22  O   UNL     1      -1.570   1.224   1.230  0.00  0.00    -0.491 OA
ATOM     23  C   UNL     1      -2.599   0.686   0.397  0.00  0.00    +0.277 C 
ENDBRANCH  20  22
BRANCH  19  24
ATOM     24  O   UNL     1       0.478   2.133   2.828  0.00  0.00    -0.491 OA
ATOM     25  C   UNL     1       1.569   2.537   3.657  0.00  0.00    +0.277 C 
ENDBRANCH  19  24
ENDBRANCH  14  16
ENDBRANCH   1  12
BRANCH   7  26
ATOM     26  C   UNL     1       3.641  -4.973  -1.922  0.00  0.00    +0.090 C 
BRANCH  26  27
ATOM     27  N   UNL     1       3.772  -5.532  -3.270  0.00  0.00    -0.191 NA
ATOM     28  H   UNL     1       4.421  -6.231  -3.444  0.00  0.00    +0.148 HD
BRANCH  27  29
ATOM     29  S   UNL     1       2.811  -4.969  -4.496  0.00  0.00    +0.058 S 
ATOM     30  O   UNL     1       3.267  -5.593  -5.688  0.00  0.00    -0.153 OA
ATOM     31  O   UNL     1       1.468  -5.081  -4.044  0.00  0.00    -0.153 OA
BRANCH  29  32
ATOM     32  C   UNL     1       3.142  -3.247  -4.669  0.00  0.00    +0.105 A 
ATOM     33  C   UNL     1       2.403  -2.326  -3.951  0.00  0.00    +0.030 A 
ATOM     34  C   UNL     1       2.666  -0.975  -4.082  0.00  0.00    +0.022 A 
ATOM     35  C   UNL     1       3.661  -0.545  -4.941  0.00  0.00    +0.041 A 
ATOM     36  C   UNL     1       4.397  -1.468  -5.664  0.00  0.00    +0.022 A 
ATOM     37  C   UNL     1       4.136  -2.818  -5.528  0.00  0.00    +0.030 A 
ATOM     38 CL   UNL     1       3.988   1.151  -5.112  0.00  0.00    -0.084 Cl
ENDBRANCH  29  32
ENDBRANCH  27  29
ENDBRANCH  26  27
ENDBRANCH   7  26
TORSDOF 8
