REMARK  Name = ZINC12984154
REMARK  6 active torsions:
REMARK  status: ('A' for Active; 'I' for Inactive)
REMARK    1  A    between atoms: C_3  and  C_6
REMARK    2  A    between atoms: C_9  and  C_25
REMARK    3  A    between atoms: C_12  and  C_14
REMARK    4  A    between atoms: C_14  and  S_15
REMARK    5  A    between atoms: S_15  and  C_16
REMARK    6  A    between atoms: C_19  and  N_24
REMARK                            x       y       z     vdW  Elec       q    Type
REMARK                         _______ _______ _______ _____ _____    ______ ____
ROOT
ATOM      1  C   UNL     1       3.761   1.845  -0.024  0.00  0.00    +0.143 C 
ATOM      2  C   UNL     1       4.387   1.737   1.380  0.00  0.00    +0.088 C 
ATOM      3  C   UNL     1       5.556   0.798   1.186  0.00  0.00    +0.075 C 
ATOM      4  N   UNL     1       5.614   0.431  -0.051  0.00  0.00    -0.180 NA
ATOM      5  N   UNL     1       4.614   0.982  -0.856  0.00  0.00    -0.184 N 
ATOM      6  C   UNL     1       4.455   0.761  -2.176  0.00  0.00    +0.246 C 
ATOM      7  O   UNL     1       3.546   1.295  -2.776  0.00  0.00    -0.273 OA
ENDROOT
BRANCH   1  10
ATOM      8  C   UNL     1      -0.016   1.351   0.009  0.00  0.00    +0.008 A 
ATOM      9  C   UNL     1       1.183   2.038   0.002  0.00  0.00    +0.013 A 
ATOM     10  C   UNL     1       2.343   1.336  -0.013  0.00  0.00    +0.013 A 
ATOM     11  S   UNL     1       1.754  -0.349  -0.017  0.00  0.00    -0.100 S 
ATOM     12  C   UNL     1       0.002  -0.004   0.002  0.00  0.00    +0.045 A 
ENDBRANCH   1  10
BRANCH   3  13
ATOM     13  C   UNL     1       6.483   0.370   2.239  0.00  0.00    +0.035 A 
ATOM     14  C   UNL     1       7.575  -0.475   2.151  0.00  0.00    +0.017 A 
ATOM     15  C   UNL     1       8.300  -0.728   3.292  0.00  0.00    +0.008 A 
ATOM     16  C   UNL     1       7.925  -0.146   4.461  0.00  0.00    +0.046 A 
ATOM     17  S   UNL     1       6.501   0.811   3.969  0.00  0.00    -0.095 S 
ENDBRANCH   3  13
BRANCH   6  18
ATOM     18  C   UNL     1       5.407  -0.151  -2.907  0.00  0.00    +0.175 C 
BRANCH  18  19
ATOM     19  S   UNL     1       4.933  -0.244  -4.655  0.00  0.00    -0.078 S 
BRANCH  19  20
ATOM     20  C   UNL     1       6.124  -1.331  -5.363  0.00  0.00    +0.171 A 
ATOM     21  N   UNL     1       7.061  -1.850  -4.596  0.00  0.00    -0.209 NA
ATOM     22  H   UNL     1       5.355  -1.233  -7.238  0.00  0.00    +0.171 HD
ATOM     23  C   UNL     1       7.984  -2.680  -5.095  0.00  0.00    +0.124 A 
ATOM     24  C   UNL     1       7.960  -3.004  -6.444  0.00  0.00    +0.113 A 
ATOM     25  C   UNL     1       6.963  -2.450  -7.252  0.00  0.00    +0.254 A 
ATOM     26  O   UNL     1       6.911  -2.713  -8.443  0.00  0.00    -0.268 OA
ATOM     27  N   UNL     1       6.055  -1.623  -6.692  0.00  0.00    -0.302 N 
BRANCH  23  28
ATOM     28  N   UNL     1       8.956  -3.211  -4.271  0.00  0.00    -0.343 N 
ATOM     29  H   UNL     1       8.971  -2.982  -3.329  0.00  0.00    +0.144 HD
ATOM     30  H   UNL     1       9.625  -3.812  -4.635  0.00  0.00    +0.144 HD
ENDBRANCH  23  28
ENDBRANCH  19  20
ENDBRANCH  18  19
ENDBRANCH   6  18
TORSDOF 6
