REMARK  Name = ZINC34716896
REMARK  8 active torsions:
REMARK  status: ('A' for Active; 'I' for Inactive)
REMARK    1  A    between atoms: C_1  and  C_2
REMARK    2  A    between atoms: C_2  and  C_3
REMARK    3  A    between atoms: C_2  and  C_4
REMARK    4  A    between atoms: C_2  and  C_5
REMARK    5  A    between atoms: C_9  and  C_14
REMARK    6  A    between atoms: N_16  and  C_17
REMARK    7  A    between atoms: C_23  and  C_25
REMARK    8  A    between atoms: C_25  and  C_26
REMARK                            x       y       z     vdW  Elec       q    Type
REMARK                         _______ _______ _______ _____ _____    ______ ____
ROOT
ATOM      1  C   UNL     1       1.287  -4.605  -1.768  0.00  0.00    +0.266 C 
ATOM      2  O   UNL     1       0.638  -4.230  -0.811  0.00  0.00    -0.268 OA
ATOM      3  N   UNL     1       1.601  -5.909  -1.900  0.00  0.00    -0.307 N 
ATOM      4  H   UNL     1       2.119  -6.208  -2.664  0.00  0.00    +0.149 HD
ENDROOT
BRANCH   1   9
ATOM      5  C   UNL     1       0.752  -0.488  -1.215  0.00  0.00    +0.224 C 
ATOM      6  O   UNL     1       1.204   0.310  -2.009  0.00  0.00    -0.275 OA
ATOM      7  N   UNL     1       0.870  -1.810  -1.447  0.00  0.00    -0.268 N 
ATOM      8  C   UNL     1       1.508  -2.259  -2.595  0.00  0.00    +0.156 A 
ATOM      9  C   UNL     1       1.730  -3.631  -2.788  0.00  0.00    +0.165 A 
ATOM     10  N   UNL     1       2.343  -4.051  -3.891  0.00  0.00    -0.245 NA
ATOM     11  C   UNL     1       2.737  -3.179  -4.798  0.00  0.00    +0.131 A 
ATOM     12  C   UNL     1       2.518  -1.823  -4.607  0.00  0.00    +0.132 A 
ATOM     13  N   UNL     1       1.906  -1.393  -3.519  0.00  0.00    -0.236 NA
ATOM     14  H   UNL     1       0.509  -2.448  -0.812  0.00  0.00    +0.156 HD
BRANCH   5  16
ATOM     15  C   UNL     1       0.062   1.529   0.052  0.00  0.00    +0.020 C 
ATOM     16  C   UNL     1       0.059  -0.000   0.032  0.00  0.00    +0.039 C 
ATOM     17  C   UNL     1       0.797  -0.528   1.264  0.00  0.00    +0.020 C 
ATOM     18  C   UNL     1      -1.384  -0.508   0.045  0.00  0.00    +0.020 C 
ENDBRANCH   5  16
ENDBRANCH   1   9
BRANCH   3  19
ATOM     19  C   UNL     1       1.162  -6.875  -0.890  0.00  0.00    +0.076 C 
ATOM     20  C   UNL     1       2.167  -6.898   0.264  0.00  0.00    +0.041 C 
ATOM     21  C   UNL     1       1.686  -7.883   1.334  0.00  0.00    +0.109 C 
ATOM     22  N   UNL     1       1.459  -9.191   0.705  0.00  0.00    -0.301 N 
ATOM     23  C   UNL     1       0.580  -9.267  -0.470  0.00  0.00    +0.109 C 
ATOM     24  C   UNL     1       1.073  -8.267  -1.520  0.00  0.00    +0.041 C 
ATOM     25  C   UNL     1       2.046 -10.301   1.196  0.00  0.00    +0.216 C 
ATOM     26  O   UNL     1       2.770 -10.225   2.166  0.00  0.00    -0.276 OA
BRANCH  25  27
ATOM     27  C   UNL     1       1.803 -11.635   0.539  0.00  0.00    +0.099 C 
BRANCH  27  28
ATOM     28  C   UNL     1       2.580 -12.721   1.286  0.00  0.00    -0.002 C 
ATOM     29  C   UNL     1       1.954 -12.974   2.680  0.00  0.00    +0.004 C 
ATOM     30  C   UNL     1       2.420 -14.414   3.008  0.00  0.00    +0.000 C 
ATOM     31  C   UNL     1       2.347 -15.152   1.656  0.00  0.00    +0.000 C 
ATOM     32  C   UNL     1       2.449 -14.076   0.561  0.00  0.00    +0.004 C 
ENDBRANCH  27  28
ENDBRANCH  25  27
ENDBRANCH   3  19
TORSDOF 5
