REMARK  Name = ZINC64927282
REMARK  8 active torsions:
REMARK  status: ('A' for Active; 'I' for Inactive)
REMARK    1  A    between atoms: C_1  and  C_2
REMARK    2  A    between atoms: C_2  and  C_3
REMARK    3  A    between atoms: C_6  and  N_9
REMARK    4  A    between atoms: C_19  and  C_22
REMARK    5  A    between atoms: N_24  and  C_25
REMARK    6  A    between atoms: C_30  and  C_31
REMARK    7  A    between atoms: C_31  and  O_33
REMARK    8  A    between atoms: O_33  and  C_34
REMARK                            x       y       z     vdW  Elec       q    Type
REMARK                         _______ _______ _______ _____ _____    ______ ____
ROOT
ATOM      1  N   UNL     1      -6.974  -2.192  -0.831  0.00  0.00    -0.195 N 
ATOM      2  C   UNL     1      -5.716  -1.710  -0.787  0.00  0.00    +0.272 A 
ATOM      3  O   UNL     1      -5.100  -1.505  -1.821  0.00  0.00    -0.266 OA
ATOM      4  C   UNL     1      -5.117  -1.444   0.460  0.00  0.00    +0.075 A 
ATOM      5  C   UNL     1      -5.820  -1.678   1.601  0.00  0.00    +0.051 A 
ATOM      6  C   UNL     1      -7.133  -2.182   1.520  0.00  0.00    +0.142 A 
ATOM      7  N   UNL     1      -7.683  -2.421   0.354  0.00  0.00    -0.148 NA
ATOM      8  N   UNL     1      -7.855  -2.422   2.688  0.00  0.00    -0.314 N 
ATOM      9  C   UNL     1      -9.172  -3.070   2.634  0.00  0.00    +0.107 C 
ATOM     10  C   UNL     1      -9.166  -4.281   3.572  0.00  0.00    +0.032 C 
ATOM     11  C   UNL     1      -8.743  -3.833   4.973  0.00  0.00    +0.078 C 
ATOM     12  C   UNL     1      -7.327  -3.255   4.920  0.00  0.00    +0.032 C 
ATOM     13  C   UNL     1      -7.310  -2.038   3.997  0.00  0.00    +0.107 C 
ENDROOT
BRANCH   1  17
ATOM     14  C   UNL     1      -8.765  -2.985  -4.508  0.00  0.00    -0.047 A 
ATOM     15  C   UNL     1      -9.425  -2.210  -3.571  0.00  0.00    +0.006 A 
ATOM     16  C   UNL     1      -8.835  -1.945  -2.352  0.00  0.00    +0.028 A 
ATOM     17  C   UNL     1      -7.575  -2.458  -2.065  0.00  0.00    +0.069 A 
ATOM     18  C   UNL     1      -6.915  -3.236  -3.008  0.00  0.00    +0.028 A 
ATOM     19  C   UNL     1      -7.514  -3.502  -4.224  0.00  0.00    +0.006 A 
BRANCH  14  21
ATOM     20  C   UNL     1     -10.246  -4.551  -5.734  0.00  0.00    +0.009 C 
ATOM     21  C   UNL     1      -9.412  -3.272  -5.838  0.00  0.00    +0.032 C 
ENDBRANCH  14  21
ENDBRANCH   1  17
BRANCH  11  22
ATOM     22  C   UNL     1      -8.768  -5.016   5.907  0.00  0.00    +0.220 C 
ATOM     23  O   UNL     1      -9.092  -6.109   5.493  0.00  0.00    -0.275 OA
ATOM     24  N   UNL     1      -8.430  -4.859   7.202  0.00  0.00    -0.285 N 
ATOM     25  H   UNL     1      -8.223  -3.976   7.546  0.00  0.00    +0.155 HD
BRANCH  24  26
ATOM     26  C   UNL     1      -8.379  -5.964   8.047  0.00  0.00    +0.047 A 
ATOM     27  C   UNL     1      -9.366  -6.939   7.982  0.00  0.00    +0.024 A 
ATOM     28  C   UNL     1      -9.313  -8.034   8.821  0.00  0.00    +0.002 A 
ATOM     29  C   UNL     1      -8.278  -8.171   9.732  0.00  0.00    +0.001 A 
ATOM     30  C   UNL     1      -7.290  -7.214   9.811  0.00  0.00    +0.017 A 
ATOM     31  C   UNL     1      -7.326  -6.102   8.965  0.00  0.00    +0.080 A 
BRANCH  31  32
ATOM     32  C   UNL     1      -6.269  -5.078   9.040  0.00  0.00    +0.341 C 
ATOM     33  O   UNL     1      -6.335  -4.085   8.344  0.00  0.00    -0.245 OA
BRANCH  32  34
ATOM     34  O   UNL     1      -5.229  -5.243   9.882  0.00  0.00    -0.464 OA
ATOM     35  C   UNL     1      -4.241  -4.211   9.902  0.00  0.00    +0.280 C 
ENDBRANCH  32  34
ENDBRANCH  31  32
ENDBRANCH  24  26
ENDBRANCH  11  22
TORSDOF 6
