REMARK  Name = ZINC13147556
REMARK  8 active torsions:
REMARK  status: ('A' for Active; 'I' for Inactive)
REMARK    1  A    between atoms: C_10  and  C_12
REMARK    2  A    between atoms: C_12  and  S_13
REMARK    3  A    between atoms: S_13  and  C_14
REMARK    4  A    between atoms: C_19  and  C_20
REMARK    5  A    between atoms: C_20  and  O_22
REMARK    6  A    between atoms: O_22  and  C_23
REMARK    7  A    between atoms: C_23  and  C_24
REMARK    8  A    between atoms: N_29  and  C_30
REMARK                            x       y       z     vdW  Elec       q    Type
REMARK                         _______ _______ _______ _____ _____    ______ ____
ROOT
ATOM      1  C   UNL     1       0.122   0.990  -2.724  0.00  0.00    +0.022 A 
ATOM      2  C   UNL     1       1.238   0.231  -2.389  0.00  0.00    +0.015 A 
ATOM      3  C   UNL     1       2.024  -0.316  -3.381  0.00  0.00    +0.001 A 
ATOM      4  C   UNL     1       1.717  -0.107  -4.717  0.00  0.00    +0.001 A 
ATOM      5  C   UNL     1       0.619   0.647  -5.069  0.00  0.00    +0.016 A 
ATOM      6  C   UNL     1      -0.192   1.204  -4.076  0.00  0.00    +0.072 A 
ENDROOT
BRANCH   6   7
ATOM      7  C   UNL     1      -1.367   2.011  -4.445  0.00  0.00    +0.341 C 
ATOM      8  O   UNL     1      -2.069   2.494  -3.579  0.00  0.00    -0.245 OA
BRANCH   7   9
ATOM      9  O   UNL     1      -1.664   2.213  -5.744  0.00  0.00    -0.452 OA
BRANCH   9  10
ATOM     10  C   UNL     1      -2.837   3.019  -6.034  0.00  0.00    +0.328 C 
BRANCH  10  11
ATOM     11  C   UNL     1      -3.010   3.136  -7.526  0.00  0.00    +0.258 C 
ATOM     12  O   UNL     1      -2.222   2.594  -8.272  0.00  0.00    -0.272 OA
ATOM     13  N   UNL     1      -4.040   3.842  -8.032  0.00  0.00    -0.237 N 
ATOM     14  C   UNL     1      -4.194   3.947  -9.367  0.00  0.00    +0.306 C 
ATOM     15  O   UNL     1      -3.405   3.404 -10.115  0.00  0.00    -0.252 OA
ATOM     16  N   UNL     1      -5.224   4.654  -9.873  0.00  0.00    -0.296 N 
ATOM     17  H   UNL     1      -4.670   4.276  -7.436  0.00  0.00    +0.159 HD
ATOM     18  H   UNL     1      -5.854   5.087  -9.277  0.00  0.00    +0.151 HD
BRANCH  16  19
ATOM     19  C   UNL     1      -5.392   4.768 -11.324  0.00  0.00    +0.074 C 
ATOM     20  C   UNL     1      -4.588   5.971 -11.856  0.00  0.00    +0.022 C 
ATOM     21  C   UNL     1      -5.483   6.562 -12.974  0.00  0.00    +0.002 C 
ATOM     22  C   UNL     1      -6.909   6.399 -12.391  0.00  0.00    +0.002 C 
ATOM     23  C   UNL     1      -6.868   5.040 -11.664  0.00  0.00    +0.022 C 
ENDBRANCH  16  19
ENDBRANCH  10  11
ENDBRANCH   9  10
ENDBRANCH   7   9
ENDBRANCH   6   7
BRANCH   1  24
ATOM     24  S   UNL     1      -0.888   1.685  -1.458  0.00  0.00    -0.115 S 
BRANCH  24  25
ATOM     25  C   UNL     1      -0.013   1.086   0.008  0.00  0.00    +0.170 C 
BRANCH  25  35
ATOM     26  C   UNL     1       3.068  -1.026   3.579  0.00  0.00    +0.000 A 
ATOM     27  C   UNL     1       2.839  -0.870   2.224  0.00  0.00    +0.002 A 
ATOM     28  C   UNL     1       1.763  -0.131   1.782  0.00  0.00    +0.024 A 
ATOM     29  C   UNL     1       0.895   0.466   2.699  0.00  0.00    +0.039 A 
ATOM     30  C   UNL     1       1.133   0.304   4.055  0.00  0.00    -0.024 A 
ATOM     31  C   UNL     1       2.214  -0.438   4.492  0.00  0.00    +0.005 A 
ATOM     32  C   UNL     1       0.060   1.041   4.824  0.00  0.00    +0.056 C 
ATOM     33  C   UNL     1      -0.835   1.662   3.739  0.00  0.00    +0.118 C 
ATOM     34  N   UNL     1      -0.242   1.246   2.466  0.00  0.00    -0.270 N 
ATOM     35  C   UNL     1      -0.718   1.572   1.248  0.00  0.00    +0.230 C 
ATOM     36  O   UNL     1      -1.715   2.256   1.150  0.00  0.00    -0.274 OA
ENDBRANCH  25  35
ENDBRANCH  24  25
ENDBRANCH   1  24
TORSDOF 8
