REMARK  Name = ZINC33936816
REMARK  15 active torsions:
REMARK  status: ('A' for Active; 'I' for Inactive)
REMARK    1  A    between atoms: C_1  and  C_2
REMARK    2  A    between atoms: C_2  and  O_3
REMARK    3  A    between atoms: O_3  and  C_4
REMARK    4  A    between atoms: C_7  and  C_10
REMARK    5  A    between atoms: C_10  and  N_11
REMARK    6  A    between atoms: N_11  and  C_12
REMARK    7  A    between atoms: N_11  and  C_19
REMARK    8  A    between atoms: C_12  and  C_13
REMARK    9  A    between atoms: C_19  and  C_21
REMARK   10  A    between atoms: C_19  and  C_34
REMARK   11  A    between atoms: C_26  and  C_33
REMARK   12  A    between atoms: N_38  and  C_39
REMARK   13  A    between atoms: C_39  and  C_40
REMARK   14  A    between atoms: C_39  and  C_41
REMARK   15  A    between atoms: C_39  and  C_42
REMARK                            x       y       z     vdW  Elec       q    Type
REMARK                         _______ _______ _______ _____ _____    ______ ____
ROOT
ATOM      1  C   UNL     1      -2.202  -8.252   1.095  0.00  0.00    +0.163 C 
ENDROOT
BRANCH   1   2
ATOM      2  C   UNL     1      -2.443  -8.960   2.404  0.00  0.00    +0.042 A 
ATOM      3  C   UNL     1      -1.689 -10.036   2.738  0.00  0.00    +0.021 A 
ATOM      4  C   UNL     1      -1.947 -10.701   4.016  0.00  0.00    -0.001 A 
ATOM      5  C   UNL     1      -1.202 -11.815   4.416  0.00  0.00    +0.010 A 
ATOM      6  C   UNL     1      -1.468 -12.413   5.615  0.00  0.00    +0.004 A 
ATOM      7  C   UNL     1      -2.472 -11.925   6.441  0.00  0.00    -0.048 A 
ATOM      8  C   UNL     1      -3.219 -10.829   6.067  0.00  0.00    +0.029 A 
ATOM      9  C   UNL     1      -2.966 -10.203   4.851  0.00  0.00    +0.049 A 
ATOM     10  N   UNL     1      -3.697  -9.104   4.452  0.00  0.00    -0.322 N 
ATOM     11  H   UNL     1      -4.398  -8.762   5.029  0.00  0.00    +0.169 HD
ATOM     12  C   UNL     1      -3.448  -8.497   3.279  0.00  0.00    +0.254 A 
ATOM     13  O   UNL     1      -4.111  -7.525   2.961  0.00  0.00    -0.268 OA
ATOM     14  C   UNL     1      -2.748 -12.601   7.759  0.00  0.00    +0.044 C 
ENDBRANCH   1   2
BRANCH   1  15
ATOM     15  C   UNL     1      -3.400  -8.431   0.199  0.00  0.00    +0.174 A 
ATOM     16  N   UNL     1      -4.592  -7.914   0.374  0.00  0.00    -0.111 NA
ATOM     17  N   UNL     1      -5.339  -8.298  -0.603  0.00  0.00    -0.023 NA
ATOM     18  N   UNL     1      -4.655  -9.046  -1.396  0.00  0.00    -0.043 NA
ATOM     19  N   UNL     1      -3.453  -9.148  -0.939  0.00  0.00    -0.222 N 
BRANCH  19  20
ATOM     20  C   UNL     1      -2.353  -9.905  -1.542  0.00  0.00    +0.059 C 
ATOM     21  C   UNL     1      -1.809 -10.911  -0.526  0.00  0.00    +0.036 C 
ATOM     22  C   UNL     1      -2.865 -10.651  -2.776  0.00  0.00    +0.036 C 
ATOM     23  C   UNL     1      -1.238  -8.942  -1.954  0.00  0.00    +0.036 C 
ENDBRANCH  19  20
ENDBRANCH   1  15
BRANCH   1  24
ATOM     24  N   UNL     1      -1.987  -6.820   1.345  0.00  0.00    -0.282 NA
BRANCH  24  25
ATOM     25  C   UNL     1      -1.710  -6.103   0.094  0.00  0.00    +0.120 C 
BRANCH  25  29
ATOM     26  C   UNL     1      -2.288  -1.912   0.695  0.00  0.00    +0.121 A 
ATOM     27  C   UNL     1      -1.041  -2.480   0.915  0.00  0.00    +0.046 A 
ATOM     28  C   UNL     1      -0.857  -3.835   0.720  0.00  0.00    +0.008 A 
ATOM     29  C   UNL     1      -1.913  -4.625   0.306  0.00  0.00    -0.033 A 
ATOM     30  C   UNL     1      -3.156  -4.061   0.085  0.00  0.00    +0.008 A 
ATOM     31  C   UNL     1      -3.347  -2.708   0.285  0.00  0.00    +0.046 A 
BRANCH  26  32
ATOM     32  O   UNL     1      -2.471  -0.579   0.886  0.00  0.00    -0.492 OA
BRANCH  32  34
ATOM     33  C   UNL     1      -1.734   1.647   1.471  0.00  0.00    +0.048 C 
ATOM     34  C   UNL     1      -1.336   0.178   1.309  0.00  0.00    +0.225 C 
ENDBRANCH  32  34
ENDBRANCH  26  32
ENDBRANCH  25  29
ENDBRANCH  24  25
BRANCH  24  35
ATOM     35  C   UNL     1      -0.909  -6.612   2.321  0.00  0.00    +0.117 C 
BRANCH  35  36
ATOM     36  C   UNL     1       0.362  -7.311   1.833  0.00  0.00    +0.132 C 
ATOM     37  C   UNL     1       1.453  -7.234   2.923  0.00  0.00    +0.035 C 
ATOM     38  C   UNL     1       2.737  -6.983   2.087  0.00  0.00    +0.031 C 
ATOM     39  C   UNL     1       2.174  -6.113   0.936  0.00  0.00    +0.160 C 
ATOM     40  O   UNL     1       0.865  -6.646   0.668  0.00  0.00    -0.375 OA
ENDBRANCH  35  36
ENDBRANCH  24  35
ENDBRANCH   1  24
TORSDOF 10
