REMARK  Name = ZINC02136898
REMARK  8 active torsions:
REMARK  status: ('A' for Active; 'I' for Inactive)
REMARK    1  A    between atoms: C_4  and  C_7
REMARK    2  A    between atoms: C_7  and  C_8
REMARK    3  A    between atoms: C_7  and  C_14
REMARK    4  A    between atoms: N_16  and  C_17
REMARK    5  A    between atoms: C_17  and  N_19
REMARK    6  A    between atoms: N_19  and  C_20
REMARK    7  A    between atoms: C_25  and  C_26
REMARK    8  A    between atoms: N_28  and  C_29
REMARK                            x       y       z     vdW  Elec       q    Type
REMARK                         _______ _______ _______ _____ _____    ______ ____
ROOT
ATOM      1  C   UNL     1      -1.018  -0.255   3.827  0.00  0.00    +0.141 C 
ATOM      2  S   UNL     1      -2.631  -0.830   3.848  0.00  0.00    -0.018 S 
ENDROOT
BRANCH   1   5
ATOM      3  C   UNL     1      -1.127  -0.035   1.506  0.00  0.00    +0.230 C 
ATOM      4  O   UNL     1      -2.269  -0.442   1.521  0.00  0.00    -0.274 OA
ATOM      5  N   UNL     1      -0.438   0.081   2.658  0.00  0.00    -0.267 N 
ATOM      6  H   UNL     1       0.475   0.407   2.646  0.00  0.00    +0.157 HD
BRANCH   3   7
ATOM      7  C   UNL     1      -0.479   0.341   0.198  0.00  0.00    +0.135 C 
BRANCH   7  11
ATOM      8  C   UNL     1       0.662   4.456   0.307  0.00  0.00    +0.000 A 
ATOM      9  C   UNL     1       1.613   3.481   0.065  0.00  0.00    +0.000 A 
ATOM     10  C   UNL     1       1.243   2.150   0.030  0.00  0.00    +0.005 A 
ATOM     11  C   UNL     1      -0.076   1.793   0.237  0.00  0.00    -0.031 A 
ATOM     12  C   UNL     1      -1.027   2.768   0.472  0.00  0.00    +0.005 A 
ATOM     13  C   UNL     1      -0.657   4.099   0.513  0.00  0.00    +0.000 A 
ENDBRANCH   7  11
BRANCH   7  14
ATOM     14  C   UNL     1      -1.455   0.120  -0.928  0.00  0.00    -0.031 A 
ATOM     15  C   UNL     1      -2.667   0.785  -0.934  0.00  0.00    +0.005 A 
ATOM     16  C   UNL     1      -3.560   0.586  -1.970  0.00  0.00    +0.000 A 
ATOM     17  C   UNL     1      -3.245  -0.286  -2.996  0.00  0.00    +0.000 A 
ATOM     18  C   UNL     1      -2.036  -0.955  -2.988  0.00  0.00    +0.000 A 
ATOM     19  C   UNL     1      -1.140  -0.752  -1.954  0.00  0.00    +0.005 A 
ENDBRANCH   7  14
ENDBRANCH   3   7
ENDBRANCH   1   5
BRANCH   1  20
ATOM     20  N   UNL     1      -0.329  -0.139   4.979  0.00  0.00    -0.296 N 
ATOM     21  H   UNL     1       0.561   0.246   4.975  0.00  0.00    +0.154 HD
BRANCH  20  22
ATOM     22  C   UNL     1      -0.894  -0.571   6.175  0.00  0.00    +0.045 A 
ATOM     23  C   UNL     1      -1.598  -1.768   6.222  0.00  0.00    +0.024 A 
ATOM     24  C   UNL     1      -2.153  -2.197   7.410  0.00  0.00    +0.002 A 
ATOM     25  C   UNL     1      -2.023  -1.436   8.561  0.00  0.00    +0.001 A 
ATOM     26  C   UNL     1      -1.333  -0.244   8.532  0.00  0.00    +0.015 A 
ATOM     27  C   UNL     1      -0.761   0.202   7.338  0.00  0.00    +0.058 A 
BRANCH  27  28
ATOM     28  C   UNL     1      -0.021   1.477   7.301  0.00  0.00    +0.246 C 
ATOM     29  O   UNL     1       0.393   1.909   6.242  0.00  0.00    -0.270 OA
ATOM     30  N   UNL     1       0.198   2.163   8.440  0.00  0.00    -0.308 N 
ATOM     31  H   UNL     1      -0.132   1.818   9.285  0.00  0.00    +0.149 HD
BRANCH  30  32
ATOM     32  C   UNL     1       0.933   3.430   8.403  0.00  0.00    +0.073 C 
ATOM     33  C   UNL     1       2.436   3.148   8.457  0.00  0.00    +0.022 C 
ATOM     34  C   UNL     1       3.204   4.471   8.418  0.00  0.00    +0.002 C 
ATOM     35  C   UNL     1       2.803   5.330   9.619  0.00  0.00    +0.000 C 
ATOM     36  C   UNL     1       1.300   5.611   9.565  0.00  0.00    +0.002 C 
ATOM     37  C   UNL     1       0.531   4.288   9.604  0.00  0.00    +0.022 C 
ENDBRANCH  30  32
ENDBRANCH  27  28
ENDBRANCH  20  22
ENDBRANCH   1  20
TORSDOF 8
