REMARK  Name = ZINC20709591
REMARK  6 active torsions:
REMARK  status: ('A' for Active; 'I' for Inactive)
REMARK    1  A    between atoms: C_5  and  C_7
REMARK    2  A    between atoms: N_9  and  C_10
REMARK    3  A    between atoms: C_10  and  C_11
REMARK    4  A    between atoms: C_18  and  C_27
REMARK    5  A    between atoms: C_29  and  N_34
REMARK    6  A    between atoms: C_32  and  O_33
REMARK                            x       y       z     vdW  Elec       q    Type
REMARK                         _______ _______ _______ _____ _____    ______ ____
ROOT
ATOM      1  C   UNL     1       1.279   2.066  -0.020  0.00  0.00    +0.001 A 
ATOM      2  C   UNL     1       0.085   1.363  -0.005  0.00  0.00    +0.006 A 
ATOM      3  C   UNL     1       0.076  -0.014  -0.009  0.00  0.00    -0.019 A 
ATOM      4  C   UNL     1       1.275  -0.733  -0.015  0.00  0.00    +0.044 A 
ATOM      5  C   UNL     1       2.486  -0.009  -0.037  0.00  0.00    +0.058 A 
ATOM      6  C   UNL     1       2.475   1.384  -0.039  0.00  0.00    +0.015 A 
ATOM      7  N   UNL     1       1.355  -2.115   0.010  0.00  0.00    -0.336 N 
ATOM      8  C   UNL     1       0.086  -2.856  -0.068  0.00  0.00    +0.108 C 
ATOM      9  C   UNL     1      -0.924  -2.099   0.767  0.00  0.00    +0.029 C 
ATOM     10  C   UNL     1      -1.188  -0.784  -0.031  0.00  0.00    +0.049 C 
ATOM     11  C   UNL     1      -2.446  -0.275   0.567  0.00  0.00    -0.023 C 
ATOM     12  C   UNL     1      -3.146  -1.308   1.021  0.00  0.00    -0.030 C 
ATOM     13  C   UNL     1      -2.370  -2.607   0.787  0.00  0.00    +0.033 C 
ATOM     14  H   UNL     1       2.308  -2.660   0.083  0.00  0.00    +0.147 HD
ENDROOT
BRANCH   8  15
ATOM     15  C   UNL     1      -0.380  -2.927  -1.499  0.00  0.00    +0.017 A 
ATOM     16  C   UNL     1       0.007  -1.956  -2.402  0.00  0.00    +0.041 A 
ATOM     17  C   UNL     1      -0.416  -2.023  -3.716  0.00  0.00    +0.127 A 
ATOM     18  C   UNL     1      -1.237  -3.057  -4.128  0.00  0.00    +0.036 A 
ATOM     19  C   UNL     1      -1.632  -4.027  -3.229  0.00  0.00    +0.048 A 
ATOM     20  C   UNL     1      -1.204  -3.965  -1.910  0.00  0.00    +0.122 A 
BRANCH  17  21
ATOM     21  N   UNL     1       0.006  -0.984  -4.682  0.00  0.00    +0.056 N 
ATOM     22  O   UNL     1      -0.371  -1.040  -5.839  0.00  0.00    -0.126 OA
ATOM     23  O   UNL     1       0.729  -0.073  -4.320  0.00  0.00    -0.126 OA
ENDBRANCH  17  21
BRANCH  20  24
ATOM     24  O   UNL     1      -1.591  -4.919  -1.023  0.00  0.00    -0.506 OA
ATOM     25  H   UNL     1      -2.244  -5.742  -1.350  0.00  0.00    +0.292 HD
ENDBRANCH  20  24
ENDBRANCH   8  15
BRANCH   5  26
ATOM     26  C   UNL     1       3.770  -0.732  -0.057  0.00  0.00    +0.246 C 
ATOM     27  O   UNL     1       3.784  -1.948  -0.055  0.00  0.00    -0.270 OA
ATOM     28  N   UNL     1       4.930  -0.045  -0.078  0.00  0.00    -0.309 N 
ATOM     29  H   UNL     1       4.918   1.054  -0.080  0.00  0.00    +0.149 HD
BRANCH  28  30
ATOM     30  C   UNL     1       6.207  -0.764  -0.098  0.00  0.00    +0.136 C 
BRANCH  30  31
ATOM     31  C   UNL     1       7.358   0.243  -0.120  0.00  0.00    +0.135 C 
ATOM     32  C   UNL     1       8.717  -0.495  -0.213  0.00  0.00    +0.035 C 
ATOM     33  C   UNL     1       9.607   0.604  -0.855  0.00  0.00    +0.031 C 
ATOM     34  C   UNL     1       8.610   1.330  -1.784  0.00  0.00    +0.160 C 
ATOM     35  O   UNL     1       7.290   1.054  -1.304  0.00  0.00    -0.375 OA
ENDBRANCH  30  31
ENDBRANCH  28  30
ENDBRANCH   5  26
TORSDOF 6
