REMARK  Name = ZINC01305296
REMARK  8 active torsions:
REMARK  status: ('A' for Active; 'I' for Inactive)
REMARK    1  A    between atoms: C_1  and  C_2
REMARK    2  A    between atoms: C_2  and  C_3
REMARK    3  A    between atoms: C_2  and  C_4
REMARK    4  A    between atoms: C_12  and  N_29
REMARK    5  A    between atoms: C_14  and  S_16
REMARK    6  A    between atoms: S_16  and  C_17
REMARK    7  A    between atoms: C_17  and  C_18
REMARK    8  A    between atoms: N_20  and  C_21
REMARK                            x       y       z     vdW  Elec       q    Type
REMARK                         _______ _______ _______ _____ _____    ______ ____
ROOT
ATOM      1  C   UNL     1      -0.741  11.082   0.044  0.00  0.00    +0.126 C 
ATOM      2  C   UNL     1      -0.141   9.675  -0.012  0.00  0.00    +0.068 C 
ATOM      3  C   UNL     1      -0.774   8.845   1.103  0.00  0.00    -0.020 A 
ATOM      4  C   UNL     1      -1.405   9.469   2.121  0.00  0.00    +0.021 A 
ATOM      5  S   UNL     1      -1.986   8.167   3.171  0.00  0.00    -0.071 S 
ATOM      6  C   UNL     1      -1.380   6.783   2.240  0.00  0.00    +0.115 A 
ATOM      7  C   UNL     1      -0.741   7.384   1.136  0.00  0.00    +0.051 A 
ATOM      8  C   UNL     1      -0.151   6.484   0.204  0.00  0.00    +0.129 A 
ATOM      9  N   UNL     1      -0.234   5.183   0.421  0.00  0.00    -0.207 NA
ATOM     10  C   UNL     1      -0.853   4.682   1.484  0.00  0.00    +0.191 A 
ATOM     11  N   UNL     1      -1.425   5.473   2.383  0.00  0.00    -0.214 NA
ATOM     12  C   UNL     1      -1.560  10.948   2.293  0.00  0.00    +0.203 C 
ATOM     13  O   UNL     1      -0.664  11.597   1.377  0.00  0.00    -0.371 OA
ENDROOT
BRANCH   1  15
ATOM     14  C   UNL     1      -0.561  13.411  -0.844  0.00  0.00    +0.010 C 
ATOM     15  C   UNL     1       0.037  12.003  -0.898  0.00  0.00    +0.012 C 
ATOM     16  C   UNL     1       1.503  12.055  -0.465  0.00  0.00    +0.010 C 
ENDBRANCH   1  15
BRANCH   8  17
ATOM     17  N   UNL     1       0.502   6.966  -0.915  0.00  0.00    -0.343 N 
ATOM     18  H   UNL     1       0.828   6.349  -1.590  0.00  0.00    +0.144 HD
ATOM     19  H   UNL     1       0.634   7.920  -1.027  0.00  0.00    +0.144 HD
ENDBRANCH   8  17
BRANCH  10  20
ATOM     20  S   UNL     1      -0.922   2.935   1.702  0.00  0.00    -0.077 S 
BRANCH  20  21
ATOM     21  C   UNL     1      -0.021   2.399   0.226  0.00  0.00    +0.173 C 
BRANCH  21  22
ATOM     22  C   UNL     1       0.048   0.894   0.199  0.00  0.00    +0.228 C 
ATOM     23  O   UNL     1      -0.462   0.247   1.089  0.00  0.00    -0.275 OA
ATOM     24  N   UNL     1       0.677   0.266  -0.815  0.00  0.00    -0.284 N 
ATOM     25  H   UNL     1       1.032   0.779  -1.557  0.00  0.00    +0.155 HD
BRANCH  24  26
ATOM     26  C   UNL     1       0.817  -1.127  -0.796  0.00  0.00    +0.052 A 
ATOM     27  C   UNL     1      -0.183  -1.919  -0.247  0.00  0.00    +0.026 A 
ATOM     28  C   UNL     1      -0.043  -3.293  -0.231  0.00  0.00    +0.022 A 
ATOM     29  C   UNL     1       1.092  -3.881  -0.761  0.00  0.00    +0.042 A 
ATOM     30  C   UNL     1       2.090  -3.095  -1.309  0.00  0.00    +0.041 A 
ATOM     31  C   UNL     1       1.953  -1.720  -1.333  0.00  0.00    +0.064 A 
ATOM     32 CL   UNL     1       3.202  -0.734  -2.026  0.00  0.00    -0.082 Cl
ATOM     33 CL   UNL     1       1.264  -5.609  -0.739  0.00  0.00    -0.083 Cl
ENDBRANCH  24  26
ENDBRANCH  21  22
ENDBRANCH  20  21
ENDBRANCH  10  20
TORSDOF 6
