REMARK  Name = ZINC02915864
REMARK  12 active torsions:
REMARK  status: ('A' for Active; 'I' for Inactive)
REMARK    1  A    between atoms: C_1  and  C_2
REMARK    2  A    between atoms: C_2  and  C_3
REMARK    3  A    between atoms: C_3  and  C_4
REMARK    4  A    between atoms: C_4  and  S_5
REMARK    5  A    between atoms: S_5  and  C_6
REMARK    6  A    between atoms: C_19  and  C_22
REMARK    7  A    between atoms: C_25  and  O_32
REMARK    8  A    between atoms: C_26  and  O_30
REMARK    9  A    between atoms: C_27  and  O_28
REMARK   10  A    between atoms: O_28  and  C_29
REMARK   11  A    between atoms: O_30  and  C_31
REMARK   12  A    between atoms: O_32  and  C_33
REMARK                            x       y       z     vdW  Elec       q    Type
REMARK                         _______ _______ _______ _____ _____    ______ ____
ROOT
ATOM      1  C   UNL     1      -1.655   2.369   6.479  0.00  0.00    +0.212 A 
ATOM      2  N   UNL     1      -1.281   1.980   7.694  0.00  0.00    -0.184 NA
ATOM      3  C   UNL     1      -1.828   2.550   8.753  0.00  0.00    +0.248 A 
ATOM      4  C   UNL     1      -2.795   3.563   8.556  0.00  0.00    +0.156 A 
ATOM      5  N   UNL     1      -3.124   3.902   7.319  0.00  0.00    -0.141 NA
ATOM      6  N   UNL     1      -2.563   3.323   6.315  0.00  0.00    -0.122 NA
ATOM      7  C   UNL     1      -3.413   4.221   9.726  0.00  0.00    +0.028 A 
ATOM      8  C   UNL     1      -4.787   4.399   9.820  0.00  0.00    +0.012 A 
ATOM      9  C   UNL     1      -5.323   5.033  10.924  0.00  0.00    +0.001 A 
ATOM     10  C   UNL     1      -4.498   5.492  11.937  0.00  0.00    +0.002 A 
ATOM     11  C   UNL     1      -3.129   5.317  11.858  0.00  0.00    +0.024 A 
ATOM     12  C   UNL     1      -2.578   4.678  10.763  0.00  0.00    +0.039 A 
ATOM     13  N   UNL     1      -1.200   4.460  10.664  0.00  0.00    -0.305 N 
ATOM     14  C   UNL     1      -0.697   3.094  10.768  0.00  0.00    +0.297 C 
ATOM     15  O   UNL     1      -1.484   2.182  10.010  0.00  0.00    -0.449 OA
ATOM     16  H   UNL     1      -0.591   5.202  10.529  0.00  0.00    +0.150 HD
ENDROOT
BRANCH  14  17
ATOM     17  C   UNL     1      -0.714   2.673  12.215  0.00  0.00    +0.057 A 
ATOM     18  C   UNL     1      -1.794   1.970  12.716  0.00  0.00    +0.016 A 
ATOM     19  C   UNL     1      -1.812   1.578  14.041  0.00  0.00    +0.050 A 
ATOM     20  C   UNL     1      -0.751   1.897  14.876  0.00  0.00    +0.165 A 
ATOM     21  C   UNL     1       0.334   2.608  14.377  0.00  0.00    +0.204 A 
ATOM     22  C   UNL     1       0.350   2.996  13.042  0.00  0.00    +0.173 A 
BRANCH  22  23
ATOM     23  O   UNL     1       1.409   3.692  12.549  0.00  0.00    -0.491 OA
ATOM     24  C   UNL     1       2.536   2.933  12.106  0.00  0.00    +0.277 C 
ENDBRANCH  22  23
BRANCH  21  25
ATOM     25  O   UNL     1       1.376   2.923  15.192  0.00  0.00    -0.488 OA
ATOM     26  C   UNL     1       1.294   4.162  15.900  0.00  0.00    +0.277 C 
ENDBRANCH  21  25
BRANCH  20  27
ATOM     27  O   UNL     1      -0.772   1.514  16.181  0.00  0.00    -0.491 OA
ATOM     28  C   UNL     1      -1.919   0.786  16.625  0.00  0.00    +0.277 C 
ENDBRANCH  20  27
ENDBRANCH  14  17
BRANCH   1  29
ATOM     29  S   UNL     1      -0.927   1.613   5.063  0.00  0.00    -0.084 S 
BRANCH  29  30
ATOM     30  C   UNL     1      -1.789   2.510   3.749  0.00  0.00    +0.077 C 
BRANCH  30  31
ATOM     31  C   UNL     1      -1.306   2.008   2.387  0.00  0.00    +0.011 C 
BRANCH  31  33
ATOM     32  C   UNL     1      -1.552   2.264  -0.086  0.00  0.00    +0.004 C 
ATOM     33  C   UNL     1      -2.035   2.767   1.276  0.00  0.00    -0.003 C 
ENDBRANCH  31  33
ENDBRANCH  30  31
ENDBRANCH  29  30
ENDBRANCH   1  29
TORSDOF 8
