REMARK  Name = ZINC21263486
REMARK  17 active torsions:
REMARK  status: ('A' for Active; 'I' for Inactive)
REMARK    1  A    between atoms: C_1  and  C_2
REMARK    2  A    between atoms: C_2  and  C_34
REMARK    3  A    between atoms: C_4  and  N_10
REMARK    4  A    between atoms: C_6  and  C_8
REMARK    5  A    between atoms: C_6  and  C_9
REMARK    6  A    between atoms: N_10  and  C_11
REMARK    7  A    between atoms: C_11  and  N_13
REMARK    8  A    between atoms: N_13  and  C_14
REMARK    9  A    between atoms: N_13  and  C_27
REMARK   10  A    between atoms: C_14  and  C_15
REMARK   11  A    between atoms: C_17  and  O_25
REMARK   12  A    between atoms: C_18  and  O_23
REMARK   13  A    between atoms: C_20  and  O_21
REMARK   14  A    between atoms: O_21  and  C_22
REMARK   15  A    between atoms: O_23  and  C_24
REMARK   16  A    between atoms: O_25  and  C_26
REMARK   17  A    between atoms: C_27  and  C_28
REMARK                            x       y       z     vdW  Elec       q    Type
REMARK                         _______ _______ _______ _____ _____    ______ ____
ROOT
ATOM      1  N   UNL     1      -2.909   1.924   3.044  0.00  0.00    -0.306 N 
ENDROOT
BRANCH   1   2
ATOM      2  C   UNL     1      -2.008   2.457   3.892  0.00  0.00    +0.133 C 
ATOM      3  S   UNL     1      -2.067   2.071   5.559  0.00  0.00    -0.019 S 
BRANCH   2   4
ATOM      4  N   UNL     1      -1.059   3.295   3.428  0.00  0.00    -0.324 N 
ATOM      5  H   UNL     1      -1.020   3.543   2.357  0.00  0.00    +0.148 HD
BRANCH   4   9
ATOM      6  C   UNL     1       2.797   3.760   5.437  0.00  0.00    -0.010 C 
ATOM      7  C   UNL     1       2.223   4.845   4.526  0.00  0.00    -0.072 C 
ATOM      8  C   UNL     1       1.189   4.240   3.575  0.00  0.00    +0.009 C 
ATOM      9  C   UNL     1      -0.077   3.876   4.353  0.00  0.00    +0.069 C 
ATOM     10  C   UNL     1      -0.655   5.150   4.965  0.00  0.00    +0.009 C 
ATOM     11  C   UNL     1       0.360   5.815   5.891  0.00  0.00    -0.072 C 
ATOM     12  N   UNL     1       1.670   5.955   5.282  0.00  0.00    +0.386 N 
ATOM     13  C   UNL     1       0.433   5.049   7.215  0.00  0.00    -0.010 C 
ATOM     14  C   UNL     1      -0.167   7.232   6.213  0.00  0.00    -0.010 C 
ATOM     15  C   UNL     1       3.384   5.387   3.663  0.00  0.00    -0.010 C 
ATOM     16  H   UNL     1       2.338   6.196   6.122  0.00  0.00    -0.084 HD
ATOM     17  H   UNL     1       1.575   6.834   4.627  0.00  0.00    -0.084 HD
ENDBRANCH   4   9
ENDBRANCH   2   4
ENDBRANCH   1   2
BRANCH   1  18
ATOM     18  C   UNL     1      -3.867   0.926   3.526  0.00  0.00    +0.145 C 
BRANCH  18  19
ATOM     19  C   UNL     1      -5.148   1.612   3.927  0.00  0.00    +0.015 A 
ATOM     20  C   UNL     1      -5.380   1.919   5.255  0.00  0.00    +0.058 A 
ATOM     21  C   UNL     1      -6.557   2.549   5.625  0.00  0.00    +0.162 A 
ATOM     22  C   UNL     1      -7.505   2.874   4.660  0.00  0.00    +0.165 A 
ATOM     23  C   UNL     1      -7.271   2.565   3.330  0.00  0.00    +0.095 A 
ATOM     24  C   UNL     1      -6.089   1.939   2.963  0.00  0.00    +0.128 A 
BRANCH  24  25
ATOM     25  O   UNL     1      -5.856   1.642   1.657  0.00  0.00    -0.495 OA
ATOM     26  C   UNL     1      -6.868   2.007   0.717  0.00  0.00    +0.277 C 
ENDBRANCH  24  25
BRANCH  22  27
ATOM     27  O   UNL     1      -8.661   3.492   5.022  0.00  0.00    -0.491 OA
ATOM     28  C   UNL     1      -9.589   3.795   3.979  0.00  0.00    +0.277 C 
ENDBRANCH  22  27
BRANCH  21  29
ATOM     29  O   UNL     1      -6.784   2.851   6.932  0.00  0.00    -0.491 OA
ATOM     30  C   UNL     1      -5.767   2.490   7.869  0.00  0.00    +0.277 C 
ENDBRANCH  21  29
ENDBRANCH  18  19
ENDBRANCH   1  18
BRANCH   1  31
ATOM     31  C   UNL     1      -2.931   2.342   1.640  0.00  0.00    +0.138 C 
BRANCH  31  32
ATOM     32  C   UNL     1      -2.007   1.435   0.824  0.00  0.00    +0.136 C 
ATOM     33  C   UNL     1      -2.014   1.858  -0.662  0.00  0.00    +0.035 C 
ATOM     34  C   UNL     1      -0.553   1.648  -1.119  0.00  0.00    +0.031 C 
ATOM     35  C   UNL     1       0.163   1.123   0.145  0.00  0.00    +0.160 C 
ATOM     36  O   UNL     1      -0.634   1.601   1.250  0.00  0.00    -0.375 OA
ENDBRANCH  31  32
ENDBRANCH   1  31
TORSDOF 10
