REMARK  Name = ZINC02355586
REMARK  7 active torsions:
REMARK  status: ('A' for Active; 'I' for Inactive)
REMARK    1  A    between atoms: C_4  and  C_7
REMARK    2  A    between atoms: N_9  and  C_10
REMARK    3  A    between atoms: N_9  and  N_17
REMARK    4  A    between atoms: C_18  and  C_20
REMARK    5  A    between atoms: C_20  and  C_21
REMARK    6  A    between atoms: C_20  and  C_28
REMARK    7  A    between atoms: C_20  and  O_35
REMARK                            x       y       z     vdW  Elec       q    Type
REMARK                         _______ _______ _______ _____ _____    ______ ____
ROOT
ATOM      1  N   UNL     1       7.213   0.940   2.646  0.00  0.00    -0.224 N 
ATOM      2  C   UNL     1       6.459   1.832   3.318  0.00  0.00    +0.270 C 
ATOM      3  O   UNL     1       6.642   2.010   4.504  0.00  0.00    -0.270 OA
ATOM      4  H   UNL     1       7.067   0.798   1.698  0.00  0.00    +0.174 HD
ENDROOT
BRANCH   1   7
ATOM      5  C   UNL     1       8.055  -1.104   3.530  0.00  0.00    +0.267 C 
ATOM      6  O   UNL     1       8.890  -1.718   4.165  0.00  0.00    -0.268 OA
ATOM      7  N   UNL     1       8.209   0.218   3.317  0.00  0.00    -0.184 N 
BRANCH   7   8
ATOM      8  C   UNL     1       9.364   0.870   3.766  0.00  0.00    +0.057 A 
ATOM      9  C   UNL     1       9.951   1.858   2.987  0.00  0.00    +0.028 A 
ATOM     10  C   UNL     1      11.087   2.503   3.435  0.00  0.00    +0.040 A 
ATOM     11  C   UNL     1      11.647   2.158   4.653  0.00  0.00    +0.124 A 
ATOM     12  C   UNL     1      11.066   1.169   5.428  0.00  0.00    +0.040 A 
ATOM     13  C   UNL     1       9.926   0.524   4.988  0.00  0.00    +0.028 A 
ATOM     14  F   UNL     1      12.761   2.787   5.087  0.00  0.00    -0.205 F 
ENDBRANCH   7   8
BRANCH   5  18
ATOM     15  C   UNL     1       4.652  -3.122   1.985  0.00  0.00    +0.000 A 
ATOM     16  C   UNL     1       4.654  -1.741   2.071  0.00  0.00    +0.001 A 
ATOM     17  C   UNL     1       5.755  -1.079   2.572  0.00  0.00    +0.013 A 
ATOM     18  C   UNL     1       6.870  -1.806   2.993  0.00  0.00    +0.039 A 
ATOM     19  C   UNL     1       6.862  -3.199   2.904  0.00  0.00    +0.013 A 
ATOM     20  C   UNL     1       5.754  -3.848   2.401  0.00  0.00    +0.001 A 
ENDBRANCH   5  18
ENDBRANCH   1   7
BRANCH   2  21
ATOM     21  C   UNL     1       5.388   2.609   2.597  0.00  0.00    +0.194 C 
BRANCH  21  22
ATOM     22  C   UNL     1       4.329   3.037   3.580  0.00  0.00    -0.003 A 
ATOM     23  C   UNL     1       3.361   2.139   3.988  0.00  0.00    +0.009 A 
ATOM     24  C   UNL     1       2.393   2.529   4.894  0.00  0.00    +0.020 A 
ATOM     25  C   UNL     1       2.387   3.823   5.384  0.00  0.00    +0.041 A 
ATOM     26  C   UNL     1       3.353   4.724   4.971  0.00  0.00    +0.020 A 
ATOM     27  C   UNL     1       4.323   4.330   4.069  0.00  0.00    +0.009 A 
ATOM     28 CL   UNL     1       1.168   4.316   6.517  0.00  0.00    -0.084 Cl
ENDBRANCH  21  22
BRANCH  21  29
ATOM     29  C   UNL     1       5.998   3.827   1.953  0.00  0.00    -0.003 A 
ATOM     30  C   UNL     1       6.996   4.527   2.606  0.00  0.00    +0.009 A 
ATOM     31  C   UNL     1       7.560   5.641   2.013  0.00  0.00    +0.020 A 
ATOM     32  C   UNL     1       7.118   6.063   0.772  0.00  0.00    +0.041 A 
ATOM     33  C   UNL     1       6.116   5.365   0.122  0.00  0.00    +0.020 A 
ATOM     34  C   UNL     1       5.556   4.248   0.713  0.00  0.00    +0.009 A 
ATOM     35 CL   UNL     1       7.822   7.466   0.030  0.00  0.00    -0.084 Cl
ENDBRANCH  21  29
BRANCH  21  36
ATOM     36  O   UNL     1       4.798   1.784   1.590  0.00  0.00    -0.371 OA
ATOM     37  H   UNL     1       4.385   0.979   1.933  0.00  0.00    +0.212 HD
ENDBRANCH  21  36
ENDBRANCH   2  21
TORSDOF 7
