REMARK  Name = ZINC63258986
REMARK  9 active torsions:
REMARK  status: ('A' for Active; 'I' for Inactive)
REMARK    1  A    between atoms: C_1  and  C_2
REMARK    2  A    between atoms: C_2  and  O_3
REMARK    3  A    between atoms: O_3  and  C_4
REMARK    4  A    between atoms: C_4  and  C_6
REMARK    5  A    between atoms: C_15  and  N_17
REMARK    6  A    between atoms: C_18  and  C_20
REMARK    7  A    between atoms: C_20  and  S_21
REMARK    8  A    between atoms: S_21  and  C_22
REMARK    9  A    between atoms: C_25  and  C_27
REMARK                            x       y       z     vdW  Elec       q    Type
REMARK                         _______ _______ _______ _____ _____    ______ ____
ROOT
ATOM      1  N   UNL     1       3.357  -0.866   3.046  0.00  0.00    -0.299 N 
ATOM      2  C   UNL     1       3.593   0.449   3.229  0.00  0.00    +0.224 C 
ATOM      3  O   UNL     1       2.768   1.141   3.786  0.00  0.00    -0.275 OA
ATOM      4  H   UNL     1       4.017  -1.420   2.600  0.00  0.00    +0.150 HD
ENDROOT
BRANCH   1  13
ATOM      5  C   UNL     1       1.499  -2.372   2.471  0.00  0.00    +0.067 C 
ATOM      6  C   UNL     1       1.615  -3.668   2.620  0.00  0.00    -0.044 C 
ATOM      7  C   UNL     1       0.974  -4.721   1.717  0.00  0.00    +0.032 C 
ATOM      8  C   UNL     1       1.615  -6.061   2.090  0.00  0.00    +0.004 C 
ATOM      9  C   UNL     1       1.363  -6.426   3.546  0.00  0.00    +0.002 C 
ATOM     10  C   UNL     1       1.489  -5.233   4.489  0.00  0.00    +0.018 C 
ATOM     11  C   UNL     1       2.384  -4.169   3.851  0.00  0.00    +0.075 C 
ATOM     12  S   UNL     1       2.406  -2.655   4.894  0.00  0.00    -0.126 S 
ATOM     13  C   UNL     1       2.103  -1.457   3.520  0.00  0.00    +0.169 C 
BRANCH   5  14
ATOM     14  C   UNL     1       0.801  -1.813   1.304  0.00  0.00    +0.338 C 
ATOM     15  O   UNL     1       0.321  -2.556   0.470  0.00  0.00    -0.245 OA
BRANCH  14  16
ATOM     16  O   UNL     1       0.693  -0.477   1.160  0.00  0.00    -0.462 OA
BRANCH  16  18
ATOM     17  C   UNL     1      -0.019   1.526   0.010  0.00  0.00    +0.048 C 
ATOM     18  C   UNL     1       0.002  -0.004   0.002  0.00  0.00    +0.229 C 
ENDBRANCH  16  18
ENDBRANCH  14  16
ENDBRANCH   5  14
ENDBRANCH   1  13
BRANCH   2  19
ATOM     19  C   UNL     1       4.883   1.057   2.741  0.00  0.00    +0.174 C 
BRANCH  19  20
ATOM     20  S   UNL     1       4.902   2.828   3.133  0.00  0.00    -0.056 S 
BRANCH  20  21
ATOM     21  C   UNL     1       6.452   3.387   2.508  0.00  0.00    +0.278 A 
ATOM     22  N   UNL     1       7.360   2.645   1.893  0.00  0.00    -0.101 NA
ATOM     23  N   UNL     1       8.366   3.381   1.573  0.00  0.00    -0.107 NA
ATOM     24  C   UNL     1       8.142   4.623   1.971  0.00  0.00    +0.248 A 
ATOM     25  O   UNL     1       6.924   4.644   2.563  0.00  0.00    -0.411 OA
BRANCH  24  26
ATOM     26  C   UNL     1       9.004   5.716   1.806  0.00  0.00    +0.044 C 
ATOM     27  C   UNL     1      10.256   5.718   1.189  0.00  0.00    +0.008 A 
ATOM     28  C   UNL     1      11.017   4.701   0.574  0.00  0.00    +0.010 A 
ATOM     29  C   UNL     1      12.232   4.996   0.044  0.00  0.00    +0.001 A 
ATOM     30  C   UNL     1      12.756   6.289   0.092  0.00  0.00    +0.002 A 
ATOM     31  C   UNL     1      12.081   7.314   0.667  0.00  0.00    +0.026 A 
ATOM     32  C   UNL     1      10.804   7.083   1.242  0.00  0.00    +0.043 A 
ATOM     33  N   UNL     1       9.961   7.895   1.849  0.00  0.00    -0.380 N 
ATOM     34  C   UNL     1       8.769   7.143   2.252  0.00  0.00    +0.154 C 
ATOM     35  H   UNL     1      10.105   8.842   2.002  0.00  0.00    +0.160 HD
ENDBRANCH  24  26
ENDBRANCH  20  21
ENDBRANCH  19  20
ENDBRANCH   2  19
TORSDOF 8
