REMARK  Name = ZINC11306796
REMARK  12 active torsions:
REMARK  status: ('A' for Active; 'I' for Inactive)
REMARK    1  A    between atoms: C_1  and  C_2
REMARK    2  A    between atoms: C_2  and  C_4
REMARK    3  A    between atoms: C_2  and  N_7
REMARK    4  A    between atoms: C_4  and  C_5
REMARK    5  A    between atoms: C_4  and  C_6
REMARK    6  A    between atoms: C_8  and  C_10
REMARK    7  A    between atoms: C_10  and  O_11
REMARK    8  A    between atoms: O_11  and  C_12
REMARK    9  A    between atoms: C_12  and  C_14
REMARK   10  A    between atoms: C_14  and  N_15
REMARK   11  A    between atoms: N_15  and  S_16
REMARK   12  A    between atoms: S_16  and  C_19
REMARK                            x       y       z     vdW  Elec       q    Type
REMARK                         _______ _______ _______ _____ _____    ______ ____
ROOT
ATOM      1  C   UNL     1      -5.738  -1.779   4.115  0.00  0.00    +0.226 C 
ENDROOT
BRANCH   1   2
ATOM      2  C   UNL     1      -5.169  -1.686   2.723  0.00  0.00    +0.323 C 
ATOM      3  O   UNL     1      -5.840  -2.014   1.773  0.00  0.00    -0.249 OA
BRANCH   2   4
ATOM      4  O   UNL     1      -3.917  -1.239   2.538  0.00  0.00    -0.454 OA
BRANCH   4   5
ATOM      5  C   UNL     1      -3.442  -1.177   1.191  0.00  0.00    +0.327 C 
BRANCH   5   7
ATOM      6  N   UNL     1      -1.372  -0.511   0.012  0.00  0.00    -0.310 N 
ATOM      7  C   UNL     1      -2.029  -0.655   1.181  0.00  0.00    +0.251 C 
ATOM      8  O   UNL     1      -1.481  -0.365   2.224  0.00  0.00    -0.272 OA
ATOM      9  H   UNL     1      -1.810  -0.743  -0.822  0.00  0.00    +0.149 HD
BRANCH   6  11
ATOM     10  C   UNL     1      -0.019   1.526   0.010  0.00  0.00    +0.028 C 
ATOM     11  C   UNL     1       0.002  -0.004   0.002  0.00  0.00    +0.073 C 
BRANCH  11  12
ATOM     12  C   UNL     1       0.718  -0.497  -1.257  0.00  0.00    +0.003 C 
ATOM     13  C   UNL     1       0.053   0.110  -2.493  0.00  0.00    +0.009 C 
ATOM     14  C   UNL     1       2.187  -0.073  -1.207  0.00  0.00    +0.009 C 
ENDBRANCH  11  12
ENDBRANCH   6  11
ENDBRANCH   5   7
ENDBRANCH   4   5
ENDBRANCH   2   4
ENDBRANCH   1   2
BRANCH   1  15
ATOM     15  N   UNL     1      -7.109  -2.291   4.049  0.00  0.00    -0.179 NA
ATOM     16  H   UNL     1      -7.582  -2.305   3.202  0.00  0.00    +0.149 HD
BRANCH  15  17
ATOM     17  S   UNL     1      -7.852  -2.847   5.420  0.00  0.00    +0.062 S 
ATOM     18  O   UNL     1      -9.163  -3.244   5.040  0.00  0.00    -0.153 OA
ATOM     19  O   UNL     1      -6.938  -3.737   6.045  0.00  0.00    -0.153 OA
BRANCH  17  20
ATOM     20  C   UNL     1      -8.039  -1.472   6.506  0.00  0.00    +0.142 A 
ATOM     21  C   UNL     1      -7.039  -1.165   7.412  0.00  0.00    +0.070 A 
ATOM     22  C   UNL     1      -7.185  -0.085   8.264  0.00  0.00    +0.037 A 
ATOM     23  C   UNL     1      -8.331   0.688   8.210  0.00  0.00    +0.021 A 
ATOM     24  C   UNL     1      -9.330   0.382   7.304  0.00  0.00    +0.037 A 
ATOM     25  C   UNL     1      -9.182  -0.695   6.449  0.00  0.00    +0.070 A 
ATOM     26 CL   UNL     1     -10.433  -1.075   5.307  0.00  0.00    -0.081 Cl
ATOM     27 BR   UNL     1      -8.530   2.164   9.375  0.00  0.00    -0.050 Br
ATOM     28 CL   UNL     1      -5.602  -2.137   7.480  0.00  0.00    -0.081 Cl
ENDBRANCH  17  20
ENDBRANCH  15  17
ENDBRANCH   1  15
TORSDOF 9
