REMARK  Name = ZINC39663290
REMARK  4 active torsions:
REMARK  status: ('A' for Active; 'I' for Inactive)
REMARK    1  A    between atoms: C_5  and  C_7
REMARK    2  A    between atoms: C_10  and  C_12
REMARK    3  A    between atoms: C_16  and  C_25
REMARK    4  A    between atoms: N_27  and  C_28
REMARK                            x       y       z     vdW  Elec       q    Type
REMARK                         _______ _______ _______ _____ _____    ______ ____
ROOT
ATOM      1  C   UNL     1       2.228  -5.382  -1.366  0.00  0.00    +0.282 C 
ATOM      2  O   UNL     1       1.920  -6.515  -1.046  0.00  0.00    -0.267 OA
ATOM      3  N   UNL     1       3.066  -5.179  -2.402  0.00  0.00    -0.294 N 
ATOM      4  C   UNL     1       3.645  -3.895  -2.864  0.00  0.00    +0.121 C 
ATOM      5  C   UNL     1       5.099  -4.241  -3.256  0.00  0.00    +0.100 C 
ATOM      6  C   UNL     1       5.074  -5.747  -3.566  0.00  0.00    -0.004 C 
ATOM      7  C   UNL     1       3.623  -6.190  -3.332  0.00  0.00    +0.115 C 
ATOM      8  C   UNL     1       6.008  -6.496  -2.620  0.00  0.00    -0.010 C 
ATOM      9  C   UNL     1       6.010  -7.983  -2.985  0.00  0.00    -0.082 C 
ATOM     10  N   UNL     1       6.454  -8.148  -4.374  0.00  0.00    +0.379 N 
ATOM     11  C   UNL     1       5.500  -7.502  -5.285  0.00  0.00    -0.082 C 
ATOM     12  C   UNL     1       5.476  -5.995  -5.017  0.00  0.00    -0.010 C 
ATOM     13  H   UNL     1       7.364  -7.725  -4.487  0.00  0.00    -0.086 HD
ATOM     14  H   UNL     1       6.513  -9.131  -4.593  0.00  0.00    -0.086 HD
ENDROOT
BRANCH   1  18
ATOM     15  C   UNL     1       1.228  -2.173  -0.036  0.00  0.00    +0.139 A 
ATOM     16  C   UNL     1       0.620  -2.987   0.876  0.00  0.00    +0.051 A 
ATOM     17  C   UNL     1       0.908  -4.305   0.507  0.00  0.00    +0.055 A 
ATOM     18  C   UNL     1       1.688  -4.239  -0.626  0.00  0.00    +0.190 A 
ATOM     19  O   UNL     1       1.865  -2.938  -0.939  0.00  0.00    -0.450 OA
BRANCH  15  24
ATOM     20  C   UNL     1      -0.069   1.350  -0.019  0.00  0.00    +0.001 A 
ATOM     21  C   UNL     1       1.112   2.073  -0.030  0.00  0.00    +0.003 A 
ATOM     22  C   UNL     1       2.331   1.420  -0.043  0.00  0.00    +0.039 A 
ATOM     23  C   UNL     1       2.377   0.038  -0.045  0.00  0.00    +0.134 A 
ATOM     24  C   UNL     1       1.188  -0.697  -0.033  0.00  0.00    +0.052 A 
ATOM     25  C   UNL     1      -0.038  -0.028  -0.020  0.00  0.00    +0.014 A 
ATOM     26  F   UNL     1       3.568  -0.599  -0.058  0.00  0.00    -0.205 F 
ENDBRANCH  15  24
ENDBRANCH   1  18
BRANCH   5  27
ATOM     27  C   UNL     1       6.033  -3.954  -2.109  0.00  0.00    +0.218 C 
ATOM     28  O   UNL     1       5.616  -3.960  -0.971  0.00  0.00    -0.275 OA
ATOM     29  N   UNL     1       7.333  -3.691  -2.349  0.00  0.00    -0.314 N 
ATOM     30  H   UNL     1       7.652  -3.614  -3.261  0.00  0.00    +0.149 HD
BRANCH  29  31
ATOM     31  C   UNL     1       8.264  -3.520  -1.230  0.00  0.00    +0.059 C 
ATOM     32  C   UNL     1       8.134  -2.103  -0.666  0.00  0.00    -0.056 C 
ATOM     33  N   UNL     1       9.414  -1.400  -0.774  0.00  0.00    +0.381 N 
ATOM     34  C   UNL     1       9.818  -1.278  -2.177  0.00  0.00    -0.078 C 
ATOM     35  C   UNL     1      10.004  -2.667  -2.792  0.00  0.00    -0.014 C 
ATOM     36  C   UNL     1       9.703  -3.729  -1.722  0.00  0.00    +0.004 C 
ATOM     37  C   UNL     1      10.655  -3.508  -0.540  0.00  0.00    -0.014 C 
ATOM     38  C   UNL     1      10.448  -2.089   0.002  0.00  0.00    -0.078 C 
ATOM     39  H   UNL     1       9.300  -0.470  -0.400  0.00  0.00    -0.082 HD
ENDBRANCH  29  31
ENDBRANCH   5  27
TORSDOF 4
