REMARK  Name = ZINC22917222
REMARK  7 active torsions:
REMARK  status: ('A' for Active; 'I' for Inactive)
REMARK    1  A    between atoms: C_1  and  C_2
REMARK    2  A    between atoms: C_8  and  C_10
REMARK    3  A    between atoms: C_10  and  N_11
REMARK    4  A    between atoms: N_14  and  C_17
REMARK    5  A    between atoms: C_17  and  C_18
REMARK    6  A    between atoms: C_24  and  C_30
REMARK    7  A    between atoms: C_25  and  C_29
REMARK                            x       y       z     vdW  Elec       q    Type
REMARK                         _______ _______ _______ _____ _____    ______ ____
ROOT
ATOM      1  N   UNL     1      -5.059  -3.987   0.003  0.00  0.00    -0.298 NA
ATOM      2  C   UNL     1      -5.409  -3.320   1.265  0.00  0.00    +0.066 C 
ATOM      3  C   UNL     1      -6.869  -2.866   1.211  0.00  0.00    -0.063 C 
ATOM      4  N   UNL     1      -7.737  -4.032   0.996  0.00  0.00    +0.386 N 
ATOM      5  C   UNL     1      -7.392  -4.673  -0.279  0.00  0.00    -0.063 C 
ATOM      6  C   UNL     1      -5.936  -5.142  -0.237  0.00  0.00    +0.066 C 
ATOM      7  H   UNL     1      -7.607  -4.690   1.750  0.00  0.00    -0.081 HD
ENDROOT
BRANCH   1   8
ATOM      8  C   UNL     1      -3.646  -4.389  -0.006  0.00  0.00    +0.180 C 
BRANCH   8  16
ATOM      9  C   UNL     1      -0.018   1.503   0.010  0.00  0.00    +0.089 C 
ATOM     10  C   UNL     1       0.002  -0.004   0.002  0.00  0.00    +0.136 A 
ATOM     11  C   UNL     1      -1.076  -0.808   0.003  0.00  0.00    +0.091 A 
ATOM     12  C   UNL     1      -0.625  -2.147  -0.007  0.00  0.00    +0.168 A 
ATOM     13  N   UNL     1       0.683  -2.130  -0.013  0.00  0.00    -0.063 NA
ATOM     14  O   UNL     1       1.100  -0.776  -0.013  0.00  0.00    -0.358 OA
ATOM     15  N   UNL     1      -1.432  -3.285  -0.010  0.00  0.00    -0.267 N 
ATOM     16  C   UNL     1      -2.774  -3.159  -0.003  0.00  0.00    +0.232 C 
ATOM     17  O   UNL     1      -3.280  -2.057   0.006  0.00  0.00    -0.274 OA
ATOM     18  H   UNL     1      -1.027  -4.166  -0.017  0.00  0.00    +0.156 HD
ENDBRANCH   8  16
ENDBRANCH   1   8
BRANCH   4  19
ATOM     19  C   UNL     1      -9.139  -3.597   0.962  0.00  0.00    -0.003 C 
BRANCH  19  20
ATOM     20  C   UNL     1     -10.037  -4.804   0.865  0.00  0.00    +0.094 A 
ATOM     21  N   UNL     1     -11.383  -4.632   0.815  0.00  0.00    -0.312 N 
ATOM     22  H   UNL     1     -11.748  -3.734   0.841  0.00  0.00    +0.170 HD
ATOM     23  C   UNL     1     -12.220  -5.683   0.727  0.00  0.00    +0.260 A 
ATOM     24  O   UNL     1     -13.426  -5.511   0.682  0.00  0.00    -0.267 OA
ATOM     25  C   UNL     1     -11.671  -7.006   0.688  0.00  0.00    +0.075 A 
ATOM     26  C   UNL     1     -12.353  -8.283   0.596  0.00  0.00    -0.026 A 
ATOM     27  C   UNL     1     -11.628  -9.413   0.574  0.00  0.00    -0.008 A 
ATOM     28  S   UNL     1      -9.947  -8.828   0.676  0.00  0.00    -0.073 S 
ATOM     29  C   UNL     1     -10.268  -7.084   0.746  0.00  0.00    +0.116 A 
ATOM     30  N   UNL     1      -9.505  -5.997   0.826  0.00  0.00    -0.229 NA
ATOM     31  C   UNL     1     -12.118 -10.836   0.484  0.00  0.00    +0.052 C 
ATOM     32  C   UNL     1     -13.857  -8.341   0.528  0.00  0.00    +0.045 C 
ENDBRANCH  19  20
ENDBRANCH   4  19
TORSDOF 4
