REMARK  Name = ZINC31206933
REMARK  11 active torsions:
REMARK  status: ('A' for Active; 'I' for Inactive)
REMARK    1  A    between atoms: C_1  and  C_2
REMARK    2  A    between atoms: C_7  and  N_8
REMARK    3  A    between atoms: C_9  and  C_11
REMARK    4  A    between atoms: C_11  and  N_12
REMARK    5  A    between atoms: C_13  and  C_15
REMARK    6  A    between atoms: C_15  and  C_16
REMARK    7  A    between atoms: C_16  and  C_17
REMARK    8  A    between atoms: C_19  and  C_22
REMARK    9  A    between atoms: C_22  and  C_23
REMARK   10  A    between atoms: C_22  and  C_24
REMARK   11  A    between atoms: C_22  and  C_25
REMARK                            x       y       z     vdW  Elec       q    Type
REMARK                         _______ _______ _______ _____ _____    ______ ____
ROOT
ATOM      1  N   UNL     1       0.080  -2.709   2.596  0.00  0.00    -0.307 N 
ATOM      2  C   UNL     1       0.070  -2.029   1.432  0.00  0.00    +0.214 C 
ATOM      3  O   UNL     1       0.076  -2.630   0.379  0.00  0.00    -0.276 OA
ATOM      4  H   UNL     1       0.075  -2.164   3.551  0.00  0.00    +0.149 HD
ENDROOT
BRANCH   1   5
ATOM      5  C   UNL     1       0.098  -4.174   2.588  0.00  0.00    +0.200 C 
BRANCH   5   7
ATOM      6  N   UNL     1       0.124  -6.010   4.246  0.00  0.00    -0.284 N 
ATOM      7  C   UNL     1       0.107  -4.683   4.006  0.00  0.00    +0.234 C 
ATOM      8  O   UNL     1       0.098  -3.900   4.932  0.00  0.00    -0.274 OA
ATOM      9  H   UNL     1       0.040  -6.721   3.410  0.00  0.00    +0.155 HD
BRANCH   6  16
ATOM     10  C   UNL     1      -0.899  -8.596   4.844  0.00  0.00    +0.046 C 
ATOM     11  C   UNL     1      -0.237  -7.739   5.892  0.00  0.00    -0.028 A 
ATOM     12  C   UNL     1      -0.108  -8.206   7.186  0.00  0.00    +0.020 A 
ATOM     13  C   UNL     1       0.494  -7.417   8.150  0.00  0.00    +0.018 A 
ATOM     14  C   UNL     1       0.974  -6.162   7.820  0.00  0.00    +0.017 A 
ATOM     15  C   UNL     1       0.853  -5.693   6.527  0.00  0.00    +0.024 A 
ATOM     16  C   UNL     1       0.249  -6.483   5.557  0.00  0.00    +0.036 A 
ATOM     17 BR   UNL     1       0.662  -8.056   9.922  0.00  0.00    -0.050 Br
ENDBRANCH   6  16
ENDBRANCH   5   7
ENDBRANCH   1   5
BRANCH   2  18
ATOM     18  C   UNL     1       0.051  -0.522   1.440  0.00  0.00    +0.105 C 
BRANCH  18  19
ATOM     19  C   UNL     1       0.042  -0.004   0.001  0.00  0.00    +0.108 C 
BRANCH  19  20
ATOM     20  C   UNL     1       0.023   1.502   0.008  0.00  0.00    +0.228 A 
ATOM     21  N   UNL     1       1.067   2.296   0.011  0.00  0.00    -0.196 NA
ATOM     22  C   UNL     1       0.570   3.546   0.018  0.00  0.00    +0.177 A 
ATOM     23  N   UNL     1      -0.726   3.450   0.020  0.00  0.00    -0.061 NA
ATOM     24  O   UNL     1      -1.060   2.285   0.008  0.00  0.00    -0.338 OA
BRANCH  22  25
ATOM     25  C   UNL     1       1.370   4.824   0.024  0.00  0.00    +0.025 C 
ATOM     26  C   UNL     1       2.250   4.880  -1.226  0.00  0.00    +0.019 C 
ATOM     27  C   UNL     1       0.418   6.021   0.032  0.00  0.00    +0.019 C 
ATOM     28  C   UNL     1       2.253   4.867   1.273  0.00  0.00    +0.019 C 
ENDBRANCH  22  25
ENDBRANCH  19  20
ENDBRANCH  18  19
ENDBRANCH   2  18
TORSDOF 7
