REMARK  Name = ZINC12777411
REMARK  7 active torsions:
REMARK  status: ('A' for Active; 'I' for Inactive)
REMARK    1  A    between atoms: C_1  and  C_2
REMARK    2  A    between atoms: C_2  and  C_4
REMARK    3  A    between atoms: C_2  and  N_11
REMARK    4  A    between atoms: N_14  and  C_15
REMARK    5  A    between atoms: C_15  and  C_16
REMARK    6  A    between atoms: C_19  and  N_22
REMARK    7  A    between atoms: C_23  and  C_25
REMARK                            x       y       z     vdW  Elec       q    Type
REMARK                         _______ _______ _______ _____ _____    ______ ____
ROOT
ATOM      1  C   UNL     1       4.639   8.928   0.401  0.00  0.00    +0.141 C 
ENDROOT
BRANCH   1   5
ATOM      2  N   UNL     1       5.184  11.304  -2.352  0.00  0.00    -0.293 N 
ATOM      3  C   UNL     1       5.104  10.780  -1.112  0.00  0.00    +0.300 C 
ATOM      4  O   UNL     1       5.372  11.465  -0.144  0.00  0.00    -0.253 OA
ATOM      5  N   UNL     1       4.726   9.497  -0.946  0.00  0.00    -0.295 N 
ATOM      6  H   UNL     1       4.970  10.758  -3.124  0.00  0.00    +0.151 HD
ATOM      7  H   UNL     1       4.512   8.951  -1.719  0.00  0.00    +0.151 HD
BRANCH   2   9
ATOM      8  C   UNL     1       7.116  12.768  -2.676  0.00  0.00    +0.033 C 
ATOM      9  C   UNL     1       5.594  12.699  -2.532  0.00  0.00    +0.103 C 
BRANCH   9  10
ATOM     10  C   UNL     1       4.946  13.257  -3.773  0.00  0.00    -0.014 A 
ATOM     11  C   UNL     1       4.573  12.408  -4.799  0.00  0.00    +0.006 A 
ATOM     12  C   UNL     1       3.975  12.919  -5.935  0.00  0.00    +0.000 A 
ATOM     13  C   UNL     1       3.757  14.280  -6.051  0.00  0.00    +0.001 A 
ATOM     14  C   UNL     1       4.135  15.129  -5.027  0.00  0.00    +0.015 A 
ATOM     15  C   UNL     1       4.729  14.618  -3.888  0.00  0.00    +0.023 A 
ATOM     16 BR   UNL     1       5.246  15.779  -2.488  0.00  0.00    -0.050 Br
ENDBRANCH   9  10
ENDBRANCH   2   9
ENDBRANCH   1   5
BRANCH   1  17
ATOM     17  C   UNL     1       4.198   7.489   0.311  0.00  0.00    -0.030 A 
ATOM     18  C   UNL     1       5.141   6.485   0.197  0.00  0.00    +0.007 A 
ATOM     19  C   UNL     1       4.741   5.166   0.115  0.00  0.00    +0.023 A 
ATOM     20  C   UNL     1       3.389   4.848   0.145  0.00  0.00    +0.034 A 
ATOM     21  C   UNL     1       2.444   5.861   0.253  0.00  0.00    +0.023 A 
ATOM     22  C   UNL     1       2.851   7.177   0.342  0.00  0.00    +0.007 A 
BRANCH  20  23
ATOM     23  N   UNL     1       2.980   3.514   0.062  0.00  0.00    -0.279 N 
ATOM     24  C   UNL     1       3.722   2.545   0.635  0.00  0.00    +0.284 C 
ATOM     25  O   UNL     1       4.785   2.822   1.158  0.00  0.00    -0.266 OA
ATOM     26  H   UNL     1       2.163   3.285  -0.408  0.00  0.00    +0.155 HD
BRANCH  24  27
ATOM     27  C   UNL     1       3.247   1.158   0.629  0.00  0.00    +0.189 A 
ATOM     28  C   UNL     1       3.895   0.085   1.171  0.00  0.00    +0.054 A 
ATOM     29  C   UNL     1       3.085  -1.037   0.936  0.00  0.00    +0.042 A 
ATOM     30  C   UNL     1       1.991  -0.605   0.270  0.00  0.00    +0.196 A 
ATOM     31  O   UNL     1       2.092   0.718   0.087  0.00  0.00    -0.458 OA
ENDBRANCH  24  27
ENDBRANCH  20  23
ENDBRANCH   1  17
TORSDOF 6
