REMARK  Name = ZINC10246437
REMARK  7 active torsions:
REMARK  status: ('A' for Active; 'I' for Inactive)
REMARK    1  A    between atoms: C_1  and  C_2
REMARK    2  A    between atoms: C_5  and  N_9
REMARK    3  A    between atoms: C_7  and  C_8
REMARK    4  A    between atoms: C_10  and  C_12
REMARK    5  A    between atoms: C_13  and  N_21
REMARK    6  A    between atoms: C_22  and  C_24
REMARK    7  A    between atoms: N_29  and  C_31
REMARK                            x       y       z     vdW  Elec       q    Type
REMARK                         _______ _______ _______ _____ _____    ______ ____
ROOT
ATOM      1  C   UNL     1       3.178   0.613   5.537  0.00  0.00    +0.212 A 
ATOM      2  C   UNL     1       3.257  -0.480   4.718  0.00  0.00    +0.092 A 
ATOM      3  C   UNL     1       3.985  -1.502   5.480  0.00  0.00    +0.042 A 
ATOM      4  C   UNL     1       4.390  -2.809   5.210  0.00  0.00    +0.013 A 
ATOM      5  C   UNL     1       5.074  -3.517   6.158  0.00  0.00    +0.001 A 
ATOM      6  C   UNL     1       5.368  -2.942   7.387  0.00  0.00    +0.004 A 
ATOM      7  C   UNL     1       4.977  -1.652   7.672  0.00  0.00    +0.047 A 
ATOM      8  C   UNL     1       4.280  -0.914   6.722  0.00  0.00    +0.138 A 
ATOM      9  O   UNL     1       3.780   0.338   6.715  0.00  0.00    -0.448 OA
ENDROOT
BRANCH   1  11
ATOM     10  N   UNL     1       2.431   2.855   6.117  0.00  0.00    -0.279 N 
ATOM     11  C   UNL     1       2.538   1.880   5.192  0.00  0.00    +0.285 C 
ATOM     12  O   UNL     1       2.101   2.056   4.069  0.00  0.00    -0.266 OA
ATOM     13  H   UNL     1       2.839   2.742   6.989  0.00  0.00    +0.155 HD
BRANCH  10  18
ATOM     14  C   UNL     1      -0.404   7.616   4.907  0.00  0.00    +0.044 C 
ATOM     15  C   UNL     1       0.349   6.351   5.228  0.00  0.00    -0.047 A 
ATOM     16  C   UNL     1       1.084   5.716   4.243  0.00  0.00    +0.005 A 
ATOM     17  C   UNL     1       1.779   4.560   4.536  0.00  0.00    +0.023 A 
ATOM     18  C   UNL     1       1.732   4.028   5.818  0.00  0.00    +0.034 A 
ATOM     19  C   UNL     1       0.994   4.669   6.805  0.00  0.00    +0.027 A 
ATOM     20  C   UNL     1       0.304   5.828   6.507  0.00  0.00    -0.046 A 
ATOM     21  C   UNL     1      -0.497   6.523   7.577  0.00  0.00    +0.044 C 
ENDBRANCH  10  18
ENDBRANCH   1  11
BRANCH   2  22
ATOM     22  N   UNL     1       2.755  -0.598   3.426  0.00  0.00    -0.282 N 
ATOM     23  C   UNL     1       2.361  -1.800   2.963  0.00  0.00    +0.222 C 
ATOM     24  O   UNL     1       2.365  -2.764   3.699  0.00  0.00    -0.275 OA
ATOM     25  H   UNL     1       2.689   0.186   2.859  0.00  0.00    +0.155 HD
BRANCH  23  26
ATOM     26  C   UNL     1       1.915  -1.947   1.531  0.00  0.00    +0.102 C 
ATOM     27  C   UNL     1       3.059  -1.587   0.556  0.00  0.00    +0.110 C 
ATOM     28  C   UNL     1       3.726  -2.912   0.261  0.00  0.00    +0.221 C 
ATOM     29  O   UNL     1       4.826  -3.042  -0.233  0.00  0.00    -0.275 OA
ATOM     30  N   UNL     1       2.922  -3.926   0.626  0.00  0.00    -0.271 N 
ATOM     31  C   UNL     1       1.657  -3.429   1.182  0.00  0.00    +0.127 C 
BRANCH  30  32
ATOM     32  C   UNL     1       3.246  -5.280   0.488  0.00  0.00    +0.036 A 
ATOM     33  C   UNL     1       4.412  -5.653  -0.168  0.00  0.00    +0.023 A 
ATOM     34  C   UNL     1       4.732  -6.990  -0.297  0.00  0.00    +0.002 A 
ATOM     35  C   UNL     1       3.887  -7.958   0.216  0.00  0.00    +0.000 A 
ATOM     36  C   UNL     1       2.722  -7.590   0.864  0.00  0.00    +0.002 A 
ATOM     37  C   UNL     1       2.399  -6.254   1.002  0.00  0.00    +0.023 A 
ENDBRANCH  30  32
ENDBRANCH  23  26
ENDBRANCH   2  22
TORSDOF 5
