REMARK  Name = ZINC39711394
REMARK  10 active torsions:
REMARK  status: ('A' for Active; 'I' for Inactive)
REMARK    1  A    between atoms: C_1  and  C_2
REMARK    2  A    between atoms: C_2  and  O_3
REMARK    3  A    between atoms: O_3  and  C_4
REMARK    4  A    between atoms: C_11  and  C_16
REMARK    5  A    between atoms: C_16  and  C_18
REMARK    6  A    between atoms: C_16  and  N_28
REMARK    7  A    between atoms: N_23  and  C_24
REMARK    8  A    between atoms: C_24  and  C_25
REMARK    9  A    between atoms: C_24  and  C_26
REMARK   10  A    between atoms: C_24  and  C_27
REMARK                            x       y       z     vdW  Elec       q    Type
REMARK                         _______ _______ _______ _____ _____    ______ ____
ROOT
ATOM      1  C   UNL     1      -5.010  -6.348   1.236  0.00  0.00    -0.009 C 
ENDROOT
BRANCH   1   9
ATOM      2  C   UNL     1      -5.889  -5.171  -4.414  0.00  0.00    +0.121 A 
ATOM      3  C   UNL     1      -5.569  -3.820  -4.231  0.00  0.00    +0.047 A 
ATOM      4  C   UNL     1      -4.993  -3.353  -3.093  0.00  0.00    +0.027 A 
ATOM      5  C   UNL     1      -4.689  -4.228  -2.034  0.00  0.00    +0.041 A 
ATOM      6  N   UNL     1      -4.123  -3.756  -0.923  0.00  0.00    -0.285 N 
ATOM      7  C   UNL     1      -3.810  -4.520   0.110  0.00  0.00    +0.223 C 
ATOM      8  O   UNL     1      -3.296  -4.031   1.098  0.00  0.00    -0.275 OA
ATOM      9  C   UNL     1      -4.095  -6.004   0.058  0.00  0.00    +0.088 C 
ATOM     10  C   UNL     1      -4.739  -6.547  -1.203  0.00  0.00    -0.006 C 
ATOM     11  C   UNL     1      -5.013  -5.656  -2.198  0.00  0.00    -0.004 A 
ATOM     12  C   UNL     1      -5.639  -6.095  -3.445  0.00  0.00    +0.055 A 
ATOM     13  H   UNL     1      -3.932  -2.806  -0.870  0.00  0.00    +0.155 HD
BRANCH   2  14
ATOM     14  O   UNL     1      -6.465  -5.567  -5.580  0.00  0.00    -0.492 OA
BRANCH  14  16
ATOM     15  C   UNL     1      -7.353  -5.187  -7.796  0.00  0.00    +0.048 C 
ATOM     16  C   UNL     1      -6.704  -4.556  -6.562  0.00  0.00    +0.225 C 
ENDBRANCH  14  16
ENDBRANCH   2  14
ENDBRANCH   1   9
BRANCH   1  17
ATOM     17  N   UNL     1      -5.256  -7.796   1.258  0.00  0.00    +0.388 N 
ATOM     18  C   UNL     1      -6.011  -8.148   2.470  0.00  0.00    -0.073 C 
ATOM     19  C   UNL     1      -6.519  -9.583   2.329  0.00  0.00    +0.017 C 
ATOM     20  C   UNL     1      -5.380 -10.492   1.943  0.00  0.00    -0.048 A 
ATOM     21  C   UNL     1      -5.540 -11.860   2.098  0.00  0.00    +0.004 A 
ATOM     22  C   UNL     1      -4.520 -12.724   1.752  0.00  0.00    +0.000 A 
ATOM     23  C   UNL     1      -3.334 -12.222   1.249  0.00  0.00    +0.000 A 
ATOM     24  C   UNL     1      -3.174 -10.859   1.096  0.00  0.00    +0.002 A 
ATOM     25  C   UNL     1      -4.197  -9.990   1.444  0.00  0.00    -0.061 A 
ATOM     26  C   UNL     1      -3.976  -8.511   1.268  0.00  0.00    -0.042 C 
ATOM     27  H   UNL     1      -5.784  -8.061   0.441  0.00  0.00    -0.081 HD
ENDBRANCH   1  17
BRANCH   1  28
ATOM     28  C   UNL     1      -6.339  -5.607   1.082  0.00  0.00    +0.205 C 
ATOM     29  N   UNL     1      -6.958  -5.927  -0.211  0.00  0.00    -0.152 NA
ATOM     30  N   UNL     1      -7.069  -4.889  -0.868  0.00  0.00    -0.070 NA
ATOM     31  N   UNL     1      -6.586  -3.767  -0.195  0.00  0.00    -0.179 N 
ATOM     32  N   UNL     1      -6.114  -4.147   1.037  0.00  0.00    -0.183 NA
ATOM     33  H   UNL     1      -6.584  -2.862  -0.542  0.00  0.00    +0.191 HD
BRANCH  32  34
ATOM     34  C   UNL     1      -6.845  -3.468   2.115  0.00  0.00    +0.035 C 
ATOM     35  C   UNL     1      -6.365  -3.997   3.468  0.00  0.00    +0.029 C 
ATOM     36  C   UNL     1      -6.587  -1.962   2.036  0.00  0.00    +0.029 C 
ATOM     37  C   UNL     1      -8.343  -3.738   1.965  0.00  0.00    +0.029 C 
ENDBRANCH  32  34
ENDBRANCH   1  28
TORSDOF 6
