REMARK  Name = ZINC63386039
REMARK  9 active torsions:
REMARK  status: ('A' for Active; 'I' for Inactive)
REMARK    1  A    between atoms: C_1  and  C_2
REMARK    2  A    between atoms: C_7  and  O_32
REMARK    3  A    between atoms: C_13  and  C_15
REMARK    4  A    between atoms: C_15  and  C_16
REMARK    5  A    between atoms: N_18  and  C_19
REMARK    6  A    between atoms: C_19  and  C_20
REMARK    7  A    between atoms: C_20  and  C_21
REMARK    8  A    between atoms: C_25  and  O_30
REMARK    9  A    between atoms: O_30  and  C_31
REMARK                            x       y       z     vdW  Elec       q    Type
REMARK                         _______ _______ _______ _____ _____    ______ ____
ROOT
ATOM      1  C   UNL     1       1.113  -0.147   3.667  0.00  0.00    +0.214 C 
ATOM      2  O   UNL     1       1.980  -0.986   3.541  0.00  0.00    -0.276 OA
ATOM      3  N   UNL     1       0.886   0.412   4.872  0.00  0.00    -0.315 N 
ATOM      4  H   UNL     1       0.193   1.083   4.973  0.00  0.00    +0.149 HD
ENDROOT
BRANCH   1   5
ATOM      5  C   UNL     1       0.290   0.271   2.476  0.00  0.00    +0.111 C 
BRANCH   5  17
ATOM      6  C   UNL     1      -0.019   1.526   0.010  0.00  0.00    +0.013 C 
ATOM      7  C   UNL     1       0.002  -0.004   0.002  0.00  0.00    +0.034 C 
ATOM      8  C   UNL     1      -1.413  -0.524   0.009  0.00  0.00    -0.001 A 
ATOM      9  C   UNL     1      -2.362   0.134  -0.759  0.00  0.00    +0.011 A 
ATOM     10  C   UNL     1      -3.668  -0.310  -0.789  0.00  0.00    +0.046 A 
ATOM     11  C   UNL     1      -4.039  -1.424  -0.048  0.00  0.00    +0.120 A 
ATOM     12  C   UNL     1      -3.095  -2.082   0.722  0.00  0.00    +0.092 A 
ATOM     13  C   UNL     1      -1.781  -1.631   0.754  0.00  0.00    +0.139 A 
ATOM     14  O   UNL     1      -0.889  -2.295   1.540  0.00  0.00    -0.425 OA
ATOM     15  C   UNL     1       0.414  -1.979   1.408  0.00  0.00    +0.316 C 
ATOM     16  O   UNL     1       1.276  -2.826   1.423  0.00  0.00    -0.250 OA
ATOM     17  C   UNL     1       0.747  -0.510   1.241  0.00  0.00    +0.114 C 
BRANCH  11  18
ATOM     18  O   UNL     1      -5.323  -1.866  -0.078  0.00  0.00    -0.507 OA
ATOM     19  H   UNL     1      -5.500  -2.515  -0.773  0.00  0.00    +0.292 HD
ENDBRANCH  11  18
ENDBRANCH   5  17
ENDBRANCH   1   5
BRANCH   3  20
ATOM     20  C   UNL     1       1.687   0.006   6.030  0.00  0.00    +0.108 C 
BRANCH  20  21
ATOM     21  C   UNL     1       1.230   0.786   7.264  0.00  0.00    +0.052 C 
BRANCH  21  22
ATOM     22  C   UNL     1       2.053   0.369   8.456  0.00  0.00    -0.040 C 
ATOM     23  C   UNL     1       3.161   0.979   8.931  0.00  0.00    -0.001 A 
ATOM     24  C   UNL     1       3.901   2.171   8.496  0.00  0.00    +0.013 A 
ATOM     25  C   UNL     1       4.999   2.549   9.186  0.00  0.00    +0.046 A 
ATOM     26  C   UNL     1       5.450   1.829  10.309  0.00  0.00    +0.122 A 
ATOM     27  C   UNL     1       4.816   0.720  10.768  0.00  0.00    +0.071 A 
ATOM     28  C   UNL     1       3.653   0.239  10.116  0.00  0.00    +0.046 A 
ATOM     29  N   UNL     1       2.877  -0.791  10.362  0.00  0.00    -0.380 N 
ATOM     30  C   UNL     1       1.802  -0.814   9.364  0.00  0.00    +0.144 C 
ATOM     31  H   UNL     1       2.993  -1.428  11.084  0.00  0.00    +0.160 HD
BRANCH  26  32
ATOM     32  O   UNL     1       6.560   2.261  10.958  0.00  0.00    -0.495 OA
ATOM     33  C   UNL     1       7.198   3.432  10.443  0.00  0.00    +0.277 C 
ENDBRANCH  26  32
ENDBRANCH  21  22
ENDBRANCH  20  21
ENDBRANCH   3  20
TORSDOF 7
