REMARK  Name = ZINC59777956
REMARK  8 active torsions:
REMARK  status: ('A' for Active; 'I' for Inactive)
REMARK    1  A    between atoms: C_1  and  C_2
REMARK    2  A    between atoms: C_2  and  S_3
REMARK    3  A    between atoms: S_3  and  C_4
REMARK    4  A    between atoms: C_9  and  N_13
REMARK    5  A    between atoms: C_14  and  C_16
REMARK    6  A    between atoms: C_16  and  S_17
REMARK    7  A    between atoms: S_17  and  C_18
REMARK    8  A    between atoms: C_21  and  C_24
REMARK                            x       y       z     vdW  Elec       q    Type
REMARK                         _______ _______ _______ _____ _____    ______ ____
ROOT
ATOM      1  N   UNL     1       0.616  -8.611  -0.927  0.00  0.00    -0.285 N 
ATOM      2  C   UNL     1       0.185  -9.435   0.048  0.00  0.00    +0.227 C 
ATOM      3  O   UNL     1      -0.377  -8.980   1.022  0.00  0.00    -0.275 OA
ATOM      4  H   UNL     1       1.004  -8.979  -1.737  0.00  0.00    +0.155 HD
ENDROOT
BRANCH   1  10
ATOM      5  C   UNL     1      -0.996  -2.683   0.392  0.00  0.00    +0.136 A 
ATOM      6  N   UNL     1       0.065  -3.112  -0.254  0.00  0.00    -0.233 NA
ATOM      7  C   UNL     1       0.298  -4.426  -0.474  0.00  0.00    +0.080 A 
ATOM      8  C   UNL     1       1.391  -5.015  -1.150  0.00  0.00    +0.031 A 
ATOM      9  C   UNL     1       1.481  -6.375  -1.289  0.00  0.00    +0.025 A 
ATOM     10  C   UNL     1       0.504  -7.223  -0.773  0.00  0.00    +0.035 A 
ATOM     11  C   UNL     1      -0.583  -6.676  -0.103  0.00  0.00    +0.040 A 
ATOM     12  C   UNL     1      -0.675  -5.314   0.038  0.00  0.00    +0.042 A 
ATOM     13  S   UNL     1      -1.839  -4.206   0.795  0.00  0.00    -0.061 S 
BRANCH   5  14
ATOM     14  S   UNL     1      -1.463  -1.027   0.771  0.00  0.00    -0.099 S 
BRANCH  14  16
ATOM     15  C   UNL     1      -0.422   1.460   0.311  0.00  0.00    +0.016 C 
ATOM     16  C   UNL     1      -0.138  -0.021   0.051  0.00  0.00    +0.073 C 
ENDBRANCH  14  16
ENDBRANCH   5  14
ENDBRANCH   1  10
BRANCH   2  17
ATOM     17  C   UNL     1       0.400 -10.922  -0.071  0.00  0.00    +0.173 C 
BRANCH  17  18
ATOM     18  S   UNL     1      -0.286 -11.751   1.389  0.00  0.00    -0.077 S 
BRANCH  18  19
ATOM     19  C   UNL     1       0.041 -13.459   1.102  0.00  0.00    +0.185 A 
ATOM     20  N   UNL     1       0.648 -13.963   0.051  0.00  0.00    -0.201 NA
ATOM     21  H   UNL     1      -0.738 -14.412   2.782  0.00  0.00    +0.191 HD
ATOM     22  C   UNL     1       0.723 -15.296   0.170  0.00  0.00    +0.182 A 
ATOM     23  N   UNL     1       0.160 -15.655   1.302  0.00  0.00    -0.152 NA
ATOM     24  N   UNL     1      -0.285 -14.479   1.927  0.00  0.00    -0.253 N 
BRANCH  22  25
ATOM     25  C   UNL     1       1.338 -16.218  -0.817  0.00  0.00    +0.021 A 
ATOM     26  C   UNL     1       1.909 -15.713  -1.984  0.00  0.00    +0.013 A 
ATOM     27  C   UNL     1       2.481 -16.574  -2.898  0.00  0.00    +0.016 A 
ATOM     28  C   UNL     1       2.487 -17.937  -2.659  0.00  0.00    +0.018 A 
ATOM     29  C   UNL     1       1.921 -18.444  -1.502  0.00  0.00    +0.016 A 
ATOM     30  C   UNL     1       1.353 -17.590  -0.578  0.00  0.00    +0.013 A 
ATOM     31 BR   UNL     1       3.271 -19.111  -3.917  0.00  0.00    -0.050 Br
ENDBRANCH  22  25
ENDBRANCH  18  19
ENDBRANCH  17  18
ENDBRANCH   2  17
TORSDOF 7
