REMARK  Name = ZINC63205739
REMARK  8 active torsions:
REMARK  status: ('A' for Active; 'I' for Inactive)
REMARK    1  A    between atoms: C_1  and  C_2
REMARK    2  A    between atoms: C_6  and  N_8
REMARK    3  A    between atoms: N_8  and  S_9
REMARK    4  A    between atoms: S_9  and  C_12
REMARK    5  A    between atoms: C_14  and  C_20
REMARK    6  A    between atoms: N_22  and  C_23
REMARK    7  A    between atoms: C_23  and  C_24
REMARK    8  A    between atoms: C_24  and  C_25
REMARK                            x       y       z     vdW  Elec       q    Type
REMARK                         _______ _______ _______ _____ _____    ______ ____
ROOT
ATOM      1  C   UNL     1       0.088  -4.986   4.057  0.00  0.00    +0.129 A 
ATOM      2  C   UNL     1      -0.981  -5.694   4.563  0.00  0.00    +0.045 A 
ATOM      3  C   UNL     1      -0.968  -6.117   5.894  0.00  0.00    +0.057 A 
ATOM      4  C   UNL     1       0.131  -5.818   6.705  0.00  0.00    +0.055 A 
ATOM      5  C   UNL     1       1.195  -5.107   6.186  0.00  0.00    +0.042 A 
ATOM      6  C   UNL     1       1.177  -4.697   4.864  0.00  0.00    +0.069 A 
ATOM      7 CL   UNL     1       2.522  -3.810   4.216  0.00  0.00    -0.081 Cl
ATOM      8 CL   UNL     1       0.157  -6.337   8.361  0.00  0.00    -0.083 Cl
ENDROOT
BRANCH   3   9
ATOM      9  C   UNL     1      -2.110  -6.876   6.442  0.00  0.00    +0.246 C 
ATOM     10  O   UNL     1      -2.096  -7.242   7.602  0.00  0.00    -0.270 OA
ATOM     11  N   UNL     1      -3.167  -7.162   5.658  0.00  0.00    -0.311 N 
ATOM     12  H   UNL     1      -3.179  -6.870   4.733  0.00  0.00    +0.149 HD
BRANCH  11  13
ATOM     13  C   UNL     1      -4.300  -7.915   6.202  0.00  0.00    +0.109 C 
BRANCH  13  14
ATOM     14  C   UNL     1      -5.358  -8.103   5.112  0.00  0.00    +0.052 C 
BRANCH  14  15
ATOM     15  C   UNL     1      -6.523  -8.878   5.672  0.00  0.00    -0.040 C 
ATOM     16  C   UNL     1      -7.668  -8.369   6.182  0.00  0.00    -0.001 A 
ATOM     17  C   UNL     1      -8.151  -6.995   6.364  0.00  0.00    +0.010 A 
ATOM     18  C   UNL     1      -9.369  -6.796   6.918  0.00  0.00    +0.001 A 
ATOM     19  C   UNL     1     -10.178  -7.866   7.323  0.00  0.00    +0.002 A 
ATOM     20  C   UNL     1      -9.803  -9.156   7.189  0.00  0.00    +0.026 A 
ATOM     21  C   UNL     1      -8.542  -9.482   6.618  0.00  0.00    +0.043 A 
ATOM     22  N   UNL     1      -7.960 -10.633   6.385  0.00  0.00    -0.380 N 
ATOM     23  C   UNL     1      -6.653 -10.382   5.770  0.00  0.00    +0.144 C 
ATOM     24  H   UNL     1      -8.334 -11.507   6.583  0.00  0.00    +0.160 HD
ENDBRANCH  14  15
ENDBRANCH  13  14
ENDBRANCH  11  13
ENDBRANCH   3   9
BRANCH   1  25
ATOM     25  S   UNL     1       0.073  -4.452   2.378  0.00  0.00    +0.093 S 
ATOM     26  O   UNL     1      -1.169  -4.871   1.830  0.00  0.00    -0.148 OA
ATOM     27  O   UNL     1       1.321  -4.838   1.818  0.00  0.00    -0.148 OA
BRANCH  25  28
ATOM     28  N   UNL     1       0.051  -2.796   2.390  0.00  0.00    -0.098 NA
BRANCH  28  34
ATOM     29  C   UNL     1      -0.018   1.503   0.010  0.00  0.00    +0.044 C 
ATOM     30  C   UNL     1       0.002  -0.004   0.002  0.00  0.00    -0.049 A 
ATOM     31  C   UNL     1       0.006  -0.688  -1.200  0.00  0.00    +0.003 A 
ATOM     32  C   UNL     1       0.024  -2.071  -1.212  0.00  0.00    +0.002 A 
ATOM     33  C   UNL     1       0.039  -2.773  -0.023  0.00  0.00    +0.027 A 
ATOM     34  C   UNL     1       0.036  -2.089   1.186  0.00  0.00    +0.075 A 
ATOM     35  C   UNL     1       0.023  -0.700   1.194  0.00  0.00    +0.030 A 
ENDBRANCH  28  34
ENDBRANCH  25  28
ENDBRANCH   1  25
TORSDOF 7
