REMARK  Name = ZINC23557088
REMARK  7 active torsions:
REMARK  status: ('A' for Active; 'I' for Inactive)
REMARK    1  A    between atoms: C_1  and  C_2
REMARK    2  A    between atoms: C_7  and  C_9
REMARK    3  A    between atoms: C_7  and  C_10
REMARK    4  A    between atoms: N_13  and  C_17
REMARK    5  A    between atoms: C_17  and  C_18
REMARK    6  A    between atoms: N_20  and  N_21
REMARK    7  A    between atoms: C_27  and  C_30
REMARK                            x       y       z     vdW  Elec       q    Type
REMARK                         _______ _______ _______ _____ _____    ______ ____
ROOT
ATOM      1  C   UNL     1       0.970  -4.657  -4.537  0.00  0.00    +0.248 C 
ATOM      2  O   UNL     1       1.179  -5.175  -3.461  0.00  0.00    -0.273 OA
ATOM      3  N   UNL     1       1.197  -5.348  -5.673  0.00  0.00    -0.222 N 
ATOM      4  H   UNL     1       1.030  -4.933  -6.534  0.00  0.00    +0.174 HD
ENDROOT
BRANCH   3   5
ATOM      5  N   UNL     1       1.673  -6.664  -5.609  0.00  0.00    -0.137 N 
ATOM      6  C   UNL     1       2.945  -7.024  -5.878  0.00  0.00    +0.263 C 
ATOM      7  O   UNL     1       3.858  -6.299  -6.209  0.00  0.00    -0.271 OA
ATOM      8  C   UNL     1       2.990  -8.522  -5.681  0.00  0.00    +0.114 C 
ATOM      9  C   UNL     1       3.973  -8.881  -4.572  0.00  0.00    +0.035 C 
ATOM     10  C   UNL     1       5.388  -8.470  -4.989  0.00  0.00    +0.006 C 
ATOM     11  C   UNL     1       5.766  -9.192  -6.284  0.00  0.00    -0.014 C 
ATOM     12  C   UNL     1       4.784  -8.806  -7.392  0.00  0.00    +0.006 C 
ATOM     13  C   UNL     1       3.368  -9.218  -6.983  0.00  0.00    +0.035 C 
ATOM     14  C   UNL     1       7.184  -8.789  -6.697  0.00  0.00    +0.007 C 
ATOM     15  N   UNL     1       1.620  -8.872  -5.287  0.00  0.00    -0.284 N 
ATOM     16  C   UNL     1       0.923  -7.719  -5.268  0.00  0.00    +0.326 C 
ATOM     17  O   UNL     1      -0.255  -7.646  -4.976  0.00  0.00    -0.251 OA
ATOM     18  H   UNL     1       1.283  -9.757  -5.079  0.00  0.00    +0.151 HD
ENDBRANCH   3   5
BRANCH   1  19
ATOM     19  C   UNL     1       0.458  -3.241  -4.606  0.00  0.00    +0.215 C 
BRANCH  19  31
ATOM     20  C   UNL     1      -0.061   1.649   0.498  0.00  0.00    +0.007 C 
ATOM     21  C   UNL     1      -0.046   0.132   0.299  0.00  0.00    -0.011 C 
ATOM     22  C   UNL     1       0.612  -0.200  -1.042  0.00  0.00    +0.038 C 
ATOM     23  C   UNL     1       0.646  -1.713  -1.232  0.00  0.00    +0.113 C 
ATOM     24  C   UNL     1       1.417  -2.381  -0.099  0.00  0.00    +0.041 C 
ATOM     25  C   UNL     1       0.756  -2.041   1.240  0.00  0.00    -0.032 C 
ATOM     26  C   UNL     1       0.748  -0.523   1.431  0.00  0.00    +0.009 C 
ATOM     27  C   UNL     1      -0.682  -2.564   1.246  0.00  0.00    +0.011 C 
ATOM     28  C   UNL     1       1.542  -2.695   2.378  0.00  0.00    +0.011 C 
ATOM     29  C   UNL     1       1.261  -2.063  -2.567  0.00  0.00    +0.247 C 
ATOM     30  O   UNL     1       2.385  -1.813  -2.946  0.00  0.00    -0.273 OA
ATOM     31  N   UNL     1       0.296  -2.715  -3.249  0.00  0.00    -0.215 N 
ATOM     32  C   UNL     1      -0.829  -2.819  -2.531  0.00  0.00    +0.310 C 
ATOM     33  O   UNL     1      -1.838  -3.366  -2.931  0.00  0.00    -0.252 OA
ATOM     34  N   UNL     1      -0.717  -2.252  -1.315  0.00  0.00    -0.285 N 
ATOM     35  H   UNL     1      -1.402  -2.208  -0.629  0.00  0.00    +0.151 HD
ENDBRANCH  19  31
ENDBRANCH   1  19
TORSDOF 3
