REMARK  Name = ZINC27323510
REMARK  9 active torsions:
REMARK  status: ('A' for Active; 'I' for Inactive)
REMARK    1  A    between atoms: C_1  and  C_2
REMARK    2  A    between atoms: C_2  and  C_39
REMARK    3  A    between atoms: C_7  and  C_21
REMARK    4  A    between atoms: C_8  and  C_10
REMARK    5  A    between atoms: C_8  and  O_20
REMARK    6  A    between atoms: C_10  and  N_11
REMARK    7  A    between atoms: C_12  and  C_14
REMARK    8  A    between atoms: C_21  and  S_22
REMARK    9  A    between atoms: S_22  and  N_25
REMARK                            x       y       z     vdW  Elec       q    Type
REMARK                         _______ _______ _______ _____ _____    ______ ____
ROOT
ATOM      1  C   UNL     1       9.220  -1.332   0.891  0.00  0.00    +0.012 C 
ATOM      2  C   UNL     1       9.303  -0.449  -0.356  0.00  0.00    -0.022 C 
ATOM      3  C   UNL     1      10.726   0.189  -0.532  0.00  0.00    -0.002 C 
ATOM      4  C   UNL     1      10.807   1.070   0.752  0.00  0.00    +0.005 C 
ATOM      5  C   UNL     1       9.344   1.537   1.006  0.00  0.00    +0.012 C 
ATOM      6  C   UNL     1       8.535   0.907  -0.169  0.00  0.00    +0.027 C 
ATOM      7  C   UNL     1       8.996   1.677  -1.443  0.00  0.00    +0.089 C 
ATOM      8  C   UNL     1      10.447   1.202  -1.684  0.00  0.00    +0.041 C 
ATOM      9  C   UNL     1       8.849  -1.198  -1.610  0.00  0.00    +0.012 C 
ENDROOT
BRANCH   7  10
ATOM     10  O   UNL     1       8.169   1.337  -2.558  0.00  0.00    -0.386 OA
ATOM     11  H   UNL     1       8.356   1.792  -3.541  0.00  0.00    +0.210 HD
ENDBRANCH   7  10
BRANCH   7  12
ATOM     12  C   UNL     1       8.963   3.187  -1.195  0.00  0.00    +0.139 C 
BRANCH  12  13
ATOM     13  N   UNL     1       9.347   3.892  -2.421  0.00  0.00    -0.307 N 
ATOM     14  C   UNL     1       9.389   5.239  -2.438  0.00  0.00    +0.262 C 
ATOM     15  O   UNL     1       9.108   5.868  -1.438  0.00  0.00    -0.269 OA
ATOM     16  H   UNL     1       9.601   3.321  -3.326  0.00  0.00    +0.149 HD
BRANCH  14  17
ATOM     17  C   UNL     1       9.777   5.952  -3.678  0.00  0.00    +0.125 A 
ATOM     18  C   UNL     1       9.813   7.344  -3.691  0.00  0.00    +0.033 A 
ATOM     19  C   UNL     1      10.183   7.997  -4.856  0.00  0.00    +0.004 A 
ATOM     20  C   UNL     1      10.493   7.234  -5.971  0.00  0.00    +0.020 A 
ATOM     21  C   UNL     1      10.431   5.852  -5.888  0.00  0.00    +0.111 A 
ATOM     22  N   UNL     1      10.082   5.258  -4.768  0.00  0.00    -0.250 NA
ENDBRANCH  14  17
ENDBRANCH  12  13
ENDBRANCH   7  12
BRANCH   6  23
ATOM     23  C   UNL     1       7.023   0.804   0.040  0.00  0.00    +0.195 C 
BRANCH  23  24
ATOM     24  S   UNL     1       6.310   2.469   0.131  0.00  0.00    +0.032 S 
ATOM     25  O   UNL     1       6.182   3.019  -1.173  0.00  0.00    -0.158 OA
ATOM     26  O   UNL     1       6.931   3.211   1.172  0.00  0.00    -0.158 OA
BRANCH  24  27
ATOM     27  N   UNL     1       4.753   2.239   0.647  0.00  0.00    -0.181 NA
ATOM     28  C   UNL     1       4.434   2.233   2.081  0.00  0.00    +0.110 C 
ATOM     29  C   UNL     1       3.688   0.936   2.414  0.00  0.00    +0.033 C 
ATOM     30  C   UNL     1       2.479   0.795   1.492  0.00  0.00    +0.017 C 
ATOM     31  C   UNL     1       2.927   0.742   0.032  0.00  0.00    +0.033 C 
ATOM     32  C   UNL     1       3.667   2.036  -0.321  0.00  0.00    +0.110 C 
ATOM     33  C   UNL     1       1.528   1.948   1.701  0.00  0.00    -0.015 C 
ATOM     34  C   UNL     1       0.371   1.459   2.112  0.00  0.00    +0.005 C 
ATOM     35  C   UNL     1       0.424  -0.012   2.216  0.00  0.00    -0.021 A 
ATOM     36  C   UNL     1       1.699  -0.446   1.843  0.00  0.00    -0.030 A 
ATOM     37  C   UNL     1       2.010  -1.785   1.852  0.00  0.00    +0.005 A 
ATOM     38  C   UNL     1       1.056  -2.714   2.235  0.00  0.00    +0.000 A 
ATOM     39  C   UNL     1      -0.209  -2.297   2.607  0.00  0.00    +0.001 A 
ATOM     40  C   UNL     1      -0.531  -0.955   2.601  0.00  0.00    +0.008 A 
ENDBRANCH  24  27
ENDBRANCH  23  24
ENDBRANCH   6  23
TORSDOF 7
