REMARK  Name = ZINC59804481
REMARK  6 active torsions:
REMARK  status: ('A' for Active; 'I' for Inactive)
REMARK    1  A    between atoms: C_11  and  C_13
REMARK    2  A    between atoms: C_13  and  C_14
REMARK    3  A    between atoms: C_14  and  S_15
REMARK    4  A    between atoms: S_15  and  C_16
REMARK    5  A    between atoms: C_19  and  C_22
REMARK    6  A    between atoms: N_20  and  N_21
REMARK                            x       y       z     vdW  Elec       q    Type
REMARK                         _______ _______ _______ _____ _____    ______ ____
ROOT
ATOM      1  S   UNL     1       6.618  -7.636  -0.101  0.00  0.00    -0.084 S 
ENDROOT
BRANCH   1   2
ATOM      2  C   UNL     1       8.380  -7.620  -0.118  0.00  0.00    +0.209 A 
ATOM      3  N   UNL     1       9.150  -6.555  -0.114  0.00  0.00    -0.121 NA
ATOM      4  N   UNL     1      10.387  -6.904  -0.129  0.00  0.00    -0.127 NA
ATOM      5  C   UNL     1      10.482  -8.213  -0.143  0.00  0.00    +0.182 A 
ATOM      6  N   UNL     1       9.200  -8.712  -0.131  0.00  0.00    -0.224 N 
BRANCH   5   7
ATOM      7  C   UNL     1      11.732  -9.003  -0.162  0.00  0.00    +0.021 A 
ATOM      8  C   UNL     1      11.699 -10.358  -0.494  0.00  0.00    +0.014 A 
ATOM      9  C   UNL     1      12.868 -11.090  -0.511  0.00  0.00    +0.039 A 
ATOM     10  C   UNL     1      14.074 -10.482  -0.200  0.00  0.00    +0.123 A 
ATOM     11  C   UNL     1      14.112  -9.137   0.131  0.00  0.00    +0.039 A 
ATOM     12  C   UNL     1      12.950  -8.394   0.146  0.00  0.00    +0.014 A 
ATOM     13  F   UNL     1      15.216 -11.204  -0.217  0.00  0.00    -0.205 F 
ENDBRANCH   5   7
BRANCH   6  14
ATOM     14  N   UNL     1       8.825 -10.025  -0.134  0.00  0.00    -0.295 N 
ATOM     15  H   UNL     1       8.717 -10.369  -1.077  0.00  0.00    +0.163 HD
ATOM     16  H   UNL     1       9.482 -10.590   0.383  0.00  0.00    +0.163 HD
ENDBRANCH   6  14
ENDBRANCH   1   2
BRANCH   1  17
ATOM     17  C   UNL     1       6.163  -5.879  -0.087  0.00  0.00    +0.086 C 
BRANCH  17  18
ATOM     18  C   UNL     1       4.639  -5.747  -0.072  0.00  0.00    +0.107 C 
BRANCH  18  29
ATOM     19  C   UNL     1      -0.017   1.366   0.010  0.00  0.00    +0.002 A 
ATOM     20  C   UNL     1       1.157   2.107   0.002  0.00  0.00    +0.001 A 
ATOM     21  C   UNL     1       2.373   1.450  -0.013  0.00  0.00    +0.017 A 
ATOM     22  C   UNL     1       2.401   0.077  -0.020  0.00  0.00    +0.041 A 
ATOM     23  C   UNL     1       1.227  -0.710  -0.013  0.00  0.00    +0.080 A 
ATOM     24  C   UNL     1       0.002  -0.004   0.002  0.00  0.00    +0.029 A 
ATOM     25  N   UNL     1       1.420  -2.047  -0.022  0.00  0.00    -0.225 NA
ATOM     26  C   UNL     1       2.616  -2.587  -0.037  0.00  0.00    +0.165 A 
ATOM     27  S   UNL     1       3.682  -1.153  -0.039  0.00  0.00    -0.052 S 
ATOM     28  N   UNL     1       2.963  -3.929  -0.047  0.00  0.00    -0.265 N 
ATOM     29  C   UNL     1       4.262  -4.288  -0.061  0.00  0.00    +0.219 C 
ATOM     30  O   UNL     1       5.126  -3.438  -0.065  0.00  0.00    -0.275 OA
ATOM     31  H   UNL     1       2.271  -4.609  -0.043  0.00  0.00    +0.157 HD
ENDBRANCH  18  29
ENDBRANCH  17  18
ENDBRANCH   1  17
TORSDOF 6
