REMARK  Name = ZINC39352636
REMARK  10 active torsions:
REMARK  status: ('A' for Active; 'I' for Inactive)
REMARK    1  A    between atoms: C_1  and  C_2
REMARK    2  A    between atoms: N_4  and  C_5
REMARK    3  A    between atoms: C_9  and  N_31
REMARK    4  A    between atoms: N_13  and  C_20
REMARK    5  A    between atoms: C_14  and  C_16
REMARK    6  A    between atoms: C_16  and  O_18
REMARK    7  A    between atoms: O_18  and  C_19
REMARK    8  A    between atoms: C_20  and  C_21
REMARK    9  A    between atoms: C_21  and  C_22
REMARK   10  A    between atoms: N_31  and  C_32
REMARK                            x       y       z     vdW  Elec       q    Type
REMARK                         _______ _______ _______ _____ _____    ______ ____
ROOT
ATOM      1  C   UNL     1       0.020  -2.136  -1.177  0.00  0.00    +0.138 C 
ATOM      2  C   UNL     1       1.442  -2.645  -1.147  0.00  0.00    +0.015 A 
ATOM      3  C   UNL     1       2.447  -2.487  -0.212  0.00  0.00    +0.033 A 
ATOM      4  C   UNL     1       3.683  -3.083  -0.458  0.00  0.00    +0.044 A 
ATOM      5  C   UNL     1       3.853  -3.808  -1.627  0.00  0.00    +0.107 A 
ATOM      6  N   UNL     1       2.871  -3.936  -2.495  0.00  0.00    -0.348 N 
ATOM      7  C   UNL     1       1.675  -3.383  -2.299  0.00  0.00    +0.105 A 
ATOM      8  N   UNL     1       0.545  -3.427  -3.114  0.00  0.00    -0.301 N 
ATOM      9  C   UNL     1      -0.555  -2.674  -2.498  0.00  0.00    +0.208 C 
ATOM     10  H   UNL     1       3.024  -4.450  -3.303  0.00  0.00    +0.167 HD
ENDROOT
BRANCH   1  14
ATOM     11  C   UNL     1      -0.018   1.503   0.010  0.00  0.00    +0.109 C 
ATOM     12  C   UNL     1       0.002  -0.004   0.002  0.00  0.00    +0.210 C 
ATOM     13  O   UNL     1       0.020  -0.616   1.049  0.00  0.00    -0.276 OA
ATOM     14  N   UNL     1       0.000  -0.672  -1.169  0.00  0.00    -0.306 N 
ATOM     15  H   UNL     1      -0.015  -0.182  -2.006  0.00  0.00    +0.149 HD
ENDBRANCH   1  14
BRANCH   9  16
ATOM     16  C   UNL     1      -0.972  -1.533  -3.390  0.00  0.00    +0.330 C 
ATOM     17  O   UNL     1      -0.250  -1.176  -4.291  0.00  0.00    -0.249 OA
BRANCH  16  18
ATOM     18  O   UNL     1      -2.144  -0.913  -3.183  0.00  0.00    -0.467 OA
ATOM     19  C   UNL     1      -2.475   0.160  -4.066  0.00  0.00    +0.280 C 
ENDBRANCH  16  18
ENDBRANCH   9  16
BRANCH   4  20
ATOM     20  N   UNL     1       4.734  -2.951   0.459  0.00  0.00    -0.340 N 
ATOM     21  H   UNL     1       4.605  -2.442   1.274  0.00  0.00    +0.146 HD
BRANCH  20  22
ATOM     22  C   UNL     1       6.027  -3.583   0.187  0.00  0.00    +0.072 C 
ATOM     23  C   UNL     1       6.852  -2.670  -0.715  0.00  0.00    +0.033 C 
ATOM     24  C   UNL     1       8.074  -3.426  -1.245  0.00  0.00    +0.071 C 
ATOM     25  S   UNL     1       9.122  -3.900   0.164  0.00  0.00    -0.161 S 
ATOM     26  C   UNL     1       7.958  -4.749   1.273  0.00  0.00    +0.071 C 
ATOM     27  C   UNL     1       6.749  -3.837   1.507  0.00  0.00    +0.033 C 
ENDBRANCH  20  22
ENDBRANCH   4  20
BRANCH   8  28
ATOM     28  C   UNL     1       0.466  -4.125  -4.399  0.00  0.00    +0.112 C 
BRANCH  28  29
ATOM     29  C   UNL     1      -0.004  -5.563  -4.171  0.00  0.00    +0.056 C 
BRANCH  29  30
ATOM     30  C   UNL     1      -0.085  -6.281  -5.493  0.00  0.00    -0.021 A 
ATOM     31  C   UNL     1       1.014  -6.956  -6.188  0.00  0.00    +0.003 A 
ATOM     32  C   UNL     1       2.367  -7.151  -5.904  0.00  0.00    +0.010 A 
ATOM     33  C   UNL     1       3.151  -7.846  -6.781  0.00  0.00    +0.001 A 
ATOM     34  C   UNL     1       2.613  -8.360  -7.953  0.00  0.00    +0.002 A 
ATOM     35  C   UNL     1       1.280  -8.179  -8.253  0.00  0.00    +0.026 A 
ATOM     36  C   UNL     1       0.464  -7.475  -7.374  0.00  0.00    +0.047 A 
ATOM     37  N   UNL     1      -0.870  -7.134  -7.386  0.00  0.00    -0.360 N 
ATOM     38  C   UNL     1      -1.180  -6.428  -6.256  0.00  0.00    +0.087 A 
ATOM     39  H   UNL     1      -1.498  -7.363  -8.090  0.00  0.00    +0.165 HD
ENDBRANCH  29  30
ENDBRANCH  28  29
ENDBRANCH   8  28
TORSDOF 8
