REMARK  Name = ZINC65147088
REMARK  4 active torsions:
REMARK  status: ('A' for Active; 'I' for Inactive)
REMARK    1  A    between atoms: C_9  and  C_11
REMARK    2  A    between atoms: N_13  and  N_14
REMARK    3  A    between atoms: N_17  and  C_18
REMARK    4  A    between atoms: C_18  and  C_19
REMARK                            x       y       z     vdW  Elec       q    Type
REMARK                         _______ _______ _______ _____ _____    ______ ____
ROOT
ATOM      1  C   UNL     1       5.974   0.910  -0.049  0.00  0.00    +0.295 C 
ATOM      2  O   UNL     1       6.652  -0.100  -0.060  0.00  0.00    -0.265 OA
ATOM      3  N   UNL     1       6.567   2.120  -0.049  0.00  0.00    -0.227 N 
ATOM      4  H   UNL     1       6.027   2.926  -0.040  0.00  0.00    +0.173 HD
ENDROOT
BRANCH   1  13
ATOM      5  C   UNL     1      -0.017   1.385   0.010  0.00  0.00    +0.023 A 
ATOM      6  C   UNL     1       1.158   2.105   0.002  0.00  0.00    +0.048 A 
ATOM      7  C   UNL     1       2.378   1.439  -0.013  0.00  0.00    +0.136 A 
ATOM      8  C   UNL     1       2.392   0.032  -0.021  0.00  0.00    +0.022 A 
ATOM      9  C   UNL     1       1.191  -0.680  -0.013  0.00  0.00    +0.031 A 
ATOM     10  C   UNL     1       0.002  -0.004   0.002  0.00  0.00    +0.042 A 
ATOM     11 CL   UNL     1      -1.493  -0.887   0.011  0.00  0.00    -0.084 Cl
ATOM     12  C   UNL     1       3.804  -0.350  -0.036  0.00  0.00    +0.063 A 
ATOM     13  C   UNL     1       4.508   0.811  -0.036  0.00  0.00    +0.192 A 
ATOM     14  O   UNL     1       3.659   1.859  -0.023  0.00  0.00    -0.450 OA
ENDBRANCH   1  13
BRANCH   3  15
ATOM     15  N   UNL     1       7.965   2.215  -0.061  0.00  0.00    -0.218 N 
ATOM     16  C   UNL     1       8.559   3.426  -0.060  0.00  0.00    +0.316 C 
ATOM     17  O   UNL     1       9.771   3.508  -0.070  0.00  0.00    -0.251 OA
ATOM     18  N   UNL     1       7.807   4.544  -0.048  0.00  0.00    -0.296 N 
ATOM     19  H   UNL     1       8.506   1.410  -0.070  0.00  0.00    +0.174 HD
ATOM     20  H   UNL     1       6.839   4.479  -0.039  0.00  0.00    +0.150 HD
BRANCH  18  21
ATOM     21  C   UNL     1       8.452   5.860  -0.047  0.00  0.00    +0.137 C 
BRANCH  21  22
ATOM     22  C   UNL     1       7.381   6.953  -0.032  0.00  0.00    +0.135 C 
ATOM     23  C   UNL     1       8.048   8.341  -0.147  0.00  0.00    +0.035 C 
ATOM     24  C   UNL     1       7.194   9.198   0.827  0.00  0.00    +0.031 C 
ATOM     25  C   UNL     1       6.855   8.152   1.919  0.00  0.00    +0.160 C 
ATOM     26  O   UNL     1       6.668   6.917   1.210  0.00  0.00    -0.375 OA
ENDBRANCH  21  22
ENDBRANCH  18  21
ENDBRANCH   3  15
TORSDOF 4
