REMARK  Name = ZINC18956738
REMARK  9 active torsions:
REMARK  status: ('A' for Active; 'I' for Inactive)
REMARK    1  A    between atoms: C_1  and  O_2
REMARK    2  A    between atoms: O_2  and  C_3
REMARK    3  A    between atoms: C_3  and  C_4
REMARK    4  A    between atoms: C_4  and  N_5
REMARK    5  A    between atoms: C_6  and  C_8
REMARK    6  A    between atoms: C_12  and  N_13
REMARK    7  A    between atoms: C_14  and  C_16
REMARK    8  A    between atoms: C_16  and  S_17
REMARK    9  A    between atoms: S_17  and  C_18
REMARK                            x       y       z     vdW  Elec       q    Type
REMARK                         _______ _______ _______ _____ _____    ______ ____
ROOT
ATOM      1  C   UNL     1      -0.647   1.523  -4.902  0.00  0.00    +0.069 A 
ATOM      2  C   UNL     1      -1.523   2.118  -5.897  0.00  0.00    -0.023 A 
ATOM      3  C   UNL     1      -2.558   2.829  -5.401  0.00  0.00    -0.004 A 
ATOM      4  S   UNL     1      -2.386   2.712  -3.643  0.00  0.00    -0.077 S 
ATOM      5  C   UNL     1      -0.959   1.732  -3.566  0.00  0.00    +0.084 A 
ATOM      6  C   UNL     1      -3.612   3.554  -6.180  0.00  0.00    +0.043 C 
ATOM      7  C   UNL     1      -3.135   3.685  -7.634  0.00  0.00    +0.005 C 
ATOM      8  C   UNL     1      -2.628   2.321  -8.111  0.00  0.00    +0.005 C 
ATOM      9  C   UNL     1      -1.318   1.975  -7.401  0.00  0.00    +0.037 C 
ENDROOT
BRANCH   1  11
ATOM     10  N   UNL     1       1.715   1.327  -5.473  0.00  0.00    -0.309 N 
ATOM     11  C   UNL     1       0.521   0.728  -5.295  0.00  0.00    +0.247 C 
ATOM     12  O   UNL     1       0.412  -0.473  -5.461  0.00  0.00    -0.270 OA
ATOM     13  H   UNL     1       1.802   2.284  -5.340  0.00  0.00    +0.149 HD
BRANCH  10  14
ATOM     14  C   UNL     1       2.882   0.533  -5.865  0.00  0.00    +0.132 C 
BRANCH  14  15
ATOM     15  C   UNL     1       4.100   1.448  -5.998  0.00  0.00    +0.178 C 
BRANCH  15  17
ATOM     16  C   UNL     1       5.558   2.869  -4.731  0.00  0.00    +0.194 C 
ATOM     17  O   UNL     1       4.428   1.994  -4.718  0.00  0.00    -0.381 OA
ENDBRANCH  15  17
ENDBRANCH  14  15
ENDBRANCH  10  14
ENDBRANCH   1  11
BRANCH   5  18
ATOM     18  N   UNL     1      -0.288   1.272  -2.443  0.00  0.00    -0.279 N 
ATOM     19  C   UNL     1      -0.742   1.585  -1.213  0.00  0.00    +0.228 C 
ATOM     20  O   UNL     1      -1.736   2.268  -1.088  0.00  0.00    -0.275 OA
ATOM     21  H   UNL     1       0.507   0.726  -2.543  0.00  0.00    +0.155 HD
BRANCH  19  22
ATOM     22  C   UNL     1      -0.013   1.086   0.008  0.00  0.00    +0.173 C 
BRANCH  22  23
ATOM     23  S   UNL     1      -0.860   1.669   1.497  0.00  0.00    -0.079 S 
BRANCH  23  24
ATOM     24  C   UNL     1       0.174   0.961   2.735  0.00  0.00    +0.168 A 
ATOM     25  N   UNL     1      -0.012   1.090   4.083  0.00  0.00    -0.333 N 
ATOM     26  H   UNL     1      -0.747   1.596   4.534  0.00  0.00    +0.168 HD
ATOM     27  C   UNL     1       1.008   0.391   4.707  0.00  0.00    +0.068 A 
ATOM     28  C   UNL     1       1.343   0.161   6.033  0.00  0.00    +0.047 A 
ATOM     29  C   UNL     1       2.454  -0.601   6.338  0.00  0.00    +0.043 A 
ATOM     30  C   UNL     1       3.236  -1.139   5.326  0.00  0.00    +0.022 A 
ATOM     31  C   UNL     1       2.916  -0.921   4.005  0.00  0.00    +0.031 A 
ATOM     32  C   UNL     1       1.796  -0.152   3.680  0.00  0.00    +0.090 A 
ATOM     33  N   UNL     1       1.234   0.226   2.501  0.00  0.00    -0.222 NA
ATOM     34 CL   UNL     1       2.874  -0.887   7.998  0.00  0.00    -0.083 Cl
ENDBRANCH  23  24
ENDBRANCH  22  23
ENDBRANCH  19  22
ENDBRANCH   5  18
TORSDOF 8
