REMARK  Name = ZINC12760480
REMARK  7 active torsions:
REMARK  status: ('A' for Active; 'I' for Inactive)
REMARK    1  A    between atoms: C_1  and  C_2
REMARK    2  A    between atoms: C_2  and  C_4
REMARK    3  A    between atoms: C_2  and  N_14
REMARK    4  A    between atoms: N_10  and  C_11
REMARK    5  A    between atoms: N_10  and  C_12
REMARK    6  A    between atoms: C_17  and  C_20
REMARK    7  A    between atoms: C_23  and  O_26
REMARK                            x       y       z     vdW  Elec       q    Type
REMARK                         _______ _______ _______ _____ _____    ______ ____
ROOT
ATOM      1  C   UNL     1      -0.019   1.526   0.010  0.00  0.00    +0.032 C 
ATOM      2  C   UNL     1       0.002  -0.004   0.002  0.00  0.00    +0.122 C 
ENDROOT
BRANCH   2   3
ATOM      3  C   UNL     1       0.731  -0.503   1.223  0.00  0.00    +0.153 A 
ATOM      4  N   UNL     1       2.049  -0.421   1.284  0.00  0.00    -0.198 NA
ATOM      5  C   UNL     1       2.696  -0.860   2.360  0.00  0.00    +0.217 A 
ATOM      6  N   UNL     1       2.015  -1.382   3.375  0.00  0.00    -0.181 NA
ATOM      7  C   UNL     1       0.691  -1.464   3.311  0.00  0.00    +0.222 A 
ATOM      8  N   UNL     1       0.051  -1.017   2.232  0.00  0.00    -0.198 NA
ATOM      9  N   UNL     1      -0.020  -2.005   4.362  0.00  0.00    -0.306 N 
ATOM     10  C   UNL     1       0.686  -2.491   5.550  0.00  0.00    +0.132 C 
ATOM     11  C   UNL     1      -1.480  -2.094   4.290  0.00  0.00    +0.132 C 
ATOM     12  N   UNL     1       4.072  -0.774   2.422  0.00  0.00    -0.327 N 
ATOM     13  H   UNL     1       4.568  -0.393   1.681  0.00  0.00    +0.145 HD
ATOM     14  H   UNL     1       4.543  -1.095   3.207  0.00  0.00    +0.145 HD
ENDBRANCH   2   3
BRANCH   2  15
ATOM     15  N   UNL     1       0.690  -0.478  -1.207  0.00  0.00    -0.289 NA
ATOM     16  C   UNL     1      -0.009  -0.027  -2.422  0.00  0.00    +0.090 C 
ATOM     17  C   UNL     1       0.906  -0.268  -3.626  0.00  0.00    +0.051 C 
ATOM     18  C   UNL     1       1.437  -1.673  -3.586  0.00  0.00    -0.042 C 
ATOM     19  C   UNL     1       1.397  -2.417  -2.502  0.00  0.00    -0.008 C 
ATOM     20  C   UNL     1       0.812  -1.941  -1.203  0.00  0.00    +0.112 C 
BRANCH  18  21
ATOM     21  C   UNL     1       2.030  -2.242  -4.814  0.00  0.00    -0.022 A 
ATOM     22  C   UNL     1       3.201  -1.699  -5.343  0.00  0.00    +0.012 A 
ATOM     23  C   UNL     1       3.751  -2.233  -6.489  0.00  0.00    +0.046 A 
ATOM     24  C   UNL     1       3.140  -3.309  -7.117  0.00  0.00    +0.117 A 
ATOM     25  C   UNL     1       1.973  -3.853  -6.595  0.00  0.00    +0.046 A 
ATOM     26  C   UNL     1       1.421  -3.328  -5.446  0.00  0.00    +0.012 A 
BRANCH  24  27
ATOM     27  O   UNL     1       3.684  -3.833  -8.247  0.00  0.00    -0.507 OA
ATOM     28  H   UNL     1       4.321  -4.542  -8.085  0.00  0.00    +0.292 HD
ENDBRANCH  24  27
ENDBRANCH  18  21
ENDBRANCH   2  15
TORSDOF 4
