REMARK  Name = ZINC09926761
REMARK  10 active torsions:
REMARK  status: ('A' for Active; 'I' for Inactive)
REMARK    1  A    between atoms: C_1  and  C_2
REMARK    2  A    between atoms: C_2  and  C_3
REMARK    3  A    between atoms: C_3  and  C_4
REMARK    4  A    between atoms: C_4  and  N_5
REMARK    5  A    between atoms: C_18  and  C_23
REMARK    6  A    between atoms: C_25  and  N_32
REMARK    7  A    between atoms: C_26  and  C_27
REMARK    8  A    between atoms: C_27  and  O_29
REMARK    9  A    between atoms: O_29  and  C_30
REMARK   10  A    between atoms: C_30  and  C_31
REMARK                            x       y       z     vdW  Elec       q    Type
REMARK                         _______ _______ _______ _____ _____    ______ ____
ROOT
ATOM      1  N   UNL     1       1.358   2.965   0.577  0.00  0.00    -0.270 N 
ATOM      2  C   UNL     1       1.225   1.602   0.382  0.00  0.00    +0.041 A 
ATOM      3  C   UNL     1       0.074   0.812   0.398  0.00  0.00    +0.024 A 
ATOM      4  C   UNL     1       0.233  -0.545   0.167  0.00  0.00    +0.002 A 
ATOM      5  C   UNL     1       1.472  -1.106  -0.070  0.00  0.00    +0.000 A 
ATOM      6  C   UNL     1       2.626  -0.330  -0.088  0.00  0.00    +0.007 A 
ATOM      7  C   UNL     1       2.476   1.020   0.141  0.00  0.00    -0.002 A 
ATOM      8  C   UNL     1       3.474   2.134   0.196  0.00  0.00    +0.141 C 
ATOM      9  C   UNL     1       2.643   3.367   0.485  0.00  0.00    +0.240 C 
ATOM     10  O   UNL     1       3.054   4.501   0.611  0.00  0.00    -0.274 OA
ATOM     11  C   UNL     1       4.172   2.292  -1.131  0.00  0.00    +0.057 C 
ATOM     12  C   UNL     1       5.446   1.884  -1.283  0.00  0.00    +0.116 C 
ATOM     13  C   UNL     1       6.149   2.032  -2.612  0.00  0.00    +0.078 C 
ATOM     14  C   UNL     1       5.609   3.263  -3.346  0.00  0.00    +0.001 C 
ATOM     15  C   UNL     1       4.099   3.088  -3.540  0.00  0.00    +0.083 C 
ATOM     16  C   UNL     1       3.458   2.875  -2.195  0.00  0.00    +0.164 C 
ATOM     17  O   UNL     1       2.304   3.212  -2.025  0.00  0.00    -0.292 OA
ATOM     18  C   UNL     1       6.291   3.394  -4.709  0.00  0.00    +0.008 C 
ATOM     19  O   UNL     1       6.131   1.330  -0.265  0.00  0.00    -0.446 OA
ATOM     20  C   UNL     1       5.740   1.531   1.001  0.00  0.00    +0.195 C 
ATOM     21  C   UNL     1       4.470   1.915   1.296  0.00  0.00    +0.117 C 
ENDROOT
BRANCH  20  22
ATOM     22  N   UNL     1       6.638   1.344   2.018  0.00  0.00    -0.329 N 
ATOM     23  H   UNL     1       7.319   0.658   1.944  0.00  0.00    +0.145 HD
ATOM     24  H   UNL     1       6.592   1.899   2.813  0.00  0.00    +0.145 HD
ENDBRANCH  20  22
BRANCH  21  25
ATOM     25  C   UNL     1       4.090   2.108   2.634  0.00  0.00    +0.342 C 
ATOM     26  O   UNL     1       4.862   1.828   3.533  0.00  0.00    -0.245 OA
BRANCH  25  27
ATOM     27  O   UNL     1       2.867   2.605   2.923  0.00  0.00    -0.462 OA
BRANCH  27  28
ATOM     28  C   UNL     1       2.547   2.775   4.305  0.00  0.00    +0.229 C 
ATOM     29  C   UNL     1       1.133   3.344   4.435  0.00  0.00    +0.048 C 
ENDBRANCH  27  28
ENDBRANCH  25  27
ENDBRANCH  21  25
BRANCH   1  30
ATOM     30  C   UNL     1       0.236   3.866   0.850  0.00  0.00    +0.114 C 
BRANCH  30  31
ATOM     31  C   UNL     1      -0.324   4.399  -0.471  0.00  0.00    +0.019 C 
BRANCH  31  33
ATOM     32  C   UNL     1      -2.056   5.872  -1.507  0.00  0.00    +0.004 C 
ATOM     33  C   UNL     1      -1.496   5.340  -0.186  0.00  0.00    -0.002 C 
ENDBRANCH  31  33
ENDBRANCH  30  31
ENDBRANCH   1  30
TORSDOF 7
