REMARK  Name = ZINC00958372
REMARK  9 active torsions:
REMARK  status: ('A' for Active; 'I' for Inactive)
REMARK    1  A    between atoms: C_1  and  C_2
REMARK    2  A    between atoms: C_2  and  C_3
REMARK    3  A    between atoms: N_10  and  C_13
REMARK    4  A    between atoms: C_13  and  C_14
REMARK    5  A    between atoms: N_16  and  N_17
REMARK    6  A    between atoms: C_18  and  C_19
REMARK    7  A    between atoms: C_22  and  O_27
REMARK    8  A    between atoms: C_23  and  O_25
REMARK    9  A    between atoms: O_25  and  C_26
REMARK                            x       y       z     vdW  Elec       q    Type
REMARK                         _______ _______ _______ _____ _____    ______ ____
ROOT
ATOM      1  C   UNL     1      -0.014   1.209   0.009  0.00  0.00    +0.252 C 
ATOM      2  O   UNL     1       0.002  -0.004   0.002  0.00  0.00    -0.272 OA
ATOM      3  N   UNL     1      -1.191   1.867   0.018  0.00  0.00    -0.206 N 
ATOM      4  H   UNL     1      -1.204   2.837   0.023  0.00  0.00    +0.177 HD
ENDROOT
BRANCH   3   5
ATOM      5  N   UNL     1      -2.394   1.150   0.020  0.00  0.00    -0.188 NA
ATOM      6  C   UNL     1      -3.527   1.784   0.029  0.00  0.00    +0.138 C 
BRANCH   6   7
ATOM      7  C   UNL     1      -4.793   1.029   0.030  0.00  0.00    -0.002 A 
ATOM      8  C   UNL     1      -4.777  -0.368   0.017  0.00  0.00    +0.013 A 
ATOM      9  C   UNL     1      -5.962  -1.072   0.025  0.00  0.00    +0.050 A 
ATOM     10  C   UNL     1      -7.174  -0.396   0.035  0.00  0.00    +0.158 A 
ATOM     11  C   UNL     1      -7.199   0.997   0.042  0.00  0.00    +0.162 A 
ATOM     12  C   UNL     1      -6.014   1.710   0.040  0.00  0.00    +0.058 A 
BRANCH  11  13
ATOM     13  O   UNL     1      -8.388   1.656   0.051  0.00  0.00    -0.491 OA
ATOM     14  C   UNL     1      -8.339   3.084   0.058  0.00  0.00    +0.277 C 
ENDBRANCH  11  13
BRANCH  10  15
ATOM     15  O   UNL     1      -8.340  -1.094   0.037  0.00  0.00    -0.503 OA
ATOM     16  H   UNL     1      -8.682  -1.292  -0.846  0.00  0.00    +0.292 HD
ENDBRANCH  10  15
ENDBRANCH   6   7
ENDBRANCH   3   5
BRANCH   1  17
ATOM     17  C   UNL     1       1.280   1.980   0.001  0.00  0.00    +0.223 C 
BRANCH  17  25
ATOM     18  C   UNL     1       5.763  -1.743   1.972  0.00  0.00    -0.008 A 
ATOM     19  C   UNL     1       4.750  -0.900   2.231  0.00  0.00    +0.026 A 
ATOM     20  C   UNL     1       4.026  -0.301   1.126  0.00  0.00    +0.072 A 
ATOM     21  C   UNL     1       4.475  -0.677  -0.153  0.00  0.00    +0.115 A 
ATOM     22  S   UNL     1       5.814  -1.790   0.190  0.00  0.00    -0.073 S 
ATOM     23  N   UNL     1       3.910  -0.210  -1.262  0.00  0.00    -0.230 NA
ATOM     24  C   UNL     1       2.907   0.625  -1.206  0.00  0.00    +0.203 A 
ATOM     25  N   UNL     1       2.407   1.043  -0.015  0.00  0.00    -0.290 N 
ATOM     26  C   UNL     1       2.928   0.620   1.151  0.00  0.00    +0.263 A 
ATOM     27  O   UNL     1       2.471   1.010   2.212  0.00  0.00    -0.267 OA
BRANCH  18  29
ATOM     28  C   UNL     1       6.019  -3.831   3.284  0.00  0.00    +0.009 C 
ATOM     29  C   UNL     1       6.644  -2.475   2.951  0.00  0.00    +0.039 C 
ENDBRANCH  18  29
ENDBRANCH  17  25
ENDBRANCH   1  17
TORSDOF 7
