REMARK  Name = ZINC13169978
REMARK  6 active torsions:
REMARK  status: ('A' for Active; 'I' for Inactive)
REMARK    1  A    between atoms: C_1  and  C_2
REMARK    2  A    between atoms: C_5  and  C_26
REMARK    3  A    between atoms: C_7  and  N_8
REMARK    4  A    between atoms: C_9  and  C_11
REMARK    5  A    between atoms: N_14  and  S_17
REMARK    6  A    between atoms: S_17  and  C_20
REMARK                            x       y       z     vdW  Elec       q    Type
REMARK                         _______ _______ _______ _____ _____    ______ ____
ROOT
ATOM      1  C   UNL     1      -6.208  -0.902  -0.190  0.00  0.00    +0.078 C 
ATOM      2  C   UNL     1      -7.061  -0.636   1.053  0.00  0.00    +0.030 C 
ATOM      3  C   UNL     1      -8.396  -1.376   0.920  0.00  0.00    +0.110 C 
ATOM      4  N   UNL     1      -8.124  -2.798   0.668  0.00  0.00    -0.177 NA
ATOM      5  C   UNL     1      -7.242  -3.162  -0.449  0.00  0.00    +0.110 C 
ATOM      6  C   UNL     1      -5.920  -2.401  -0.301  0.00  0.00    +0.030 C 
ENDROOT
BRANCH   1   8
ATOM      7  N   UNL     1      -4.916   1.195   0.031  0.00  0.00    -0.285 N 
ATOM      8  C   UNL     1      -4.909  -0.148  -0.078  0.00  0.00    +0.220 C 
ATOM      9  O   UNL     1      -3.856  -0.750  -0.087  0.00  0.00    -0.275 OA
ATOM     10  H   UNL     1      -5.758   1.670   0.118  0.00  0.00    +0.155 HD
BRANCH   7  17
ATOM     11  C   UNL     1      -4.852   3.746   1.282  0.00  0.00    +0.045 C 
ATOM     12  C   UNL     1      -3.634   3.156   0.619  0.00  0.00    -0.029 A 
ATOM     13  C   UNL     1      -2.445   3.861   0.610  0.00  0.00    +0.006 A 
ATOM     14  C   UNL     1      -1.326   3.328   0.004  0.00  0.00    +0.015 A 
ATOM     15  C   UNL     1      -1.392   2.072  -0.603  0.00  0.00    +0.065 A 
ATOM     16  C   UNL     1      -2.593   1.363  -0.598  0.00  0.00    +0.038 A 
ATOM     17  C   UNL     1      -3.710   1.905   0.018  0.00  0.00    +0.037 A 
BRANCH  15  18
ATOM     18  C   UNL     1      -0.195   1.498  -1.252  0.00  0.00    +0.387 C 
ATOM     19  O   UNL     1      -0.255   0.406  -1.779  0.00  0.00    -0.241 OA
ATOM     20  O   UNL     1       0.961   2.190  -1.266  0.00  0.00    -0.241 OA
ENDBRANCH  15  18
ENDBRANCH   7  17
ENDBRANCH   1   8
BRANCH   4  21
ATOM     21  S   UNL     1      -8.801  -3.968   1.625  0.00  0.00    +0.061 S 
ATOM     22  O   UNL     1      -9.971  -3.399   2.197  0.00  0.00    -0.153 OA
ATOM     23  O   UNL     1      -8.835  -5.158   0.848  0.00  0.00    -0.153 OA
BRANCH  21  24
ATOM     24  C   UNL     1      -7.683  -4.266   2.954  0.00  0.00    +0.105 A 
ATOM     25  C   UNL     1      -6.702  -5.232   2.829  0.00  0.00    +0.028 A 
ATOM     26  C   UNL     1      -5.822  -5.462   3.870  0.00  0.00    +0.002 A 
ATOM     27  C   UNL     1      -5.930  -4.732   5.040  0.00  0.00    +0.000 A 
ATOM     28  C   UNL     1      -6.914  -3.770   5.167  0.00  0.00    +0.002 A 
ATOM     29  C   UNL     1      -7.791  -3.537   4.124  0.00  0.00    +0.028 A 
ENDBRANCH  21  24
ENDBRANCH   4  21
TORSDOF 5
