REMARK  Name = ZINC17087757
REMARK  9 active torsions:
REMARK  status: ('A' for Active; 'I' for Inactive)
REMARK    1  A    between atoms: C_1  and  C_2
REMARK    2  A    between atoms: C_2  and  C_3
REMARK    3  A    between atoms: C_3  and  O_4
REMARK    4  A    between atoms: O_4  and  C_5
REMARK    5  A    between atoms: C_5  and  C_7
REMARK    6  A    between atoms: C_11  and  N_12
REMARK    7  A    between atoms: C_13  and  C_15
REMARK    8  A    between atoms: C_21  and  C_23
REMARK    9  A    between atoms: C_26  and  C_30
REMARK                            x       y       z     vdW  Elec       q    Type
REMARK                         _______ _______ _______ _____ _____    ______ ____
ROOT
ATOM      1  C   UNL     1      -4.283   0.775  -0.018  0.00  0.00    +0.091 A 
ATOM      2  C   UNL     1      -2.850   0.990   0.100  0.00  0.00    -0.021 A 
ATOM      3  C   UNL     1      -2.221   1.320  -1.049  0.00  0.00    -0.004 A 
ATOM      4  S   UNL     1      -3.500   1.351  -2.273  0.00  0.00    -0.077 S 
ATOM      5  C   UNL     1      -4.853   0.930  -1.275  0.00  0.00    +0.086 A 
ATOM      6  C   UNL     1      -0.761   1.597  -1.232  0.00  0.00    +0.046 C 
ATOM      7  C   UNL     1      -0.013   1.086   0.008  0.00  0.00    -0.009 C 
ATOM      8  C   UNL     1      -0.735   1.583   1.264  0.00  0.00    +0.008 C 
ATOM      9  C   UNL     1      -2.079   0.860   1.407  0.00  0.00    +0.037 C 
ATOM     10  C   UNL     1       1.422   1.618  -0.003  0.00  0.00    +0.008 C 
ENDROOT
BRANCH   5  11
ATOM     11  N   UNL     1      -6.181   0.783  -1.642  0.00  0.00    -0.279 N 
ATOM     12  C   UNL     1      -6.551   0.976  -2.924  0.00  0.00    +0.221 C 
ATOM     13  O   UNL     1      -5.722   1.276  -3.756  0.00  0.00    -0.275 OA
ATOM     14  H   UNL     1      -6.845   0.543  -0.977  0.00  0.00    +0.155 HD
BRANCH  12  15
ATOM     15  C   UNL     1      -7.996   0.816  -3.323  0.00  0.00    +0.089 C 
ATOM     16  C   UNL     1      -8.854   1.810  -2.538  0.00  0.00    +0.013 C 
ATOM     17  C   UNL     1     -10.321   1.648  -2.943  0.00  0.00    +0.001 C 
ATOM     18  C   UNL     1     -10.469   1.920  -4.441  0.00  0.00    +0.001 C 
ATOM     19  C   UNL     1      -9.610   0.926  -5.227  0.00  0.00    +0.015 C 
ATOM     20  C   UNL     1      -8.144   1.088  -4.822  0.00  0.00    +0.114 C 
BRANCH  20  21
ATOM     21  C   UNL     1      -7.298   0.109  -5.595  0.00  0.00    +0.360 C 
ATOM     22  O   UNL     1      -6.644  -0.720  -5.008  0.00  0.00    -0.246 OA
ATOM     23  O   UNL     1      -7.271   0.159  -6.936  0.00  0.00    -0.246 OA
ENDBRANCH  20  21
ENDBRANCH  12  15
ENDBRANCH   5  11
BRANCH   1  24
ATOM     24  C   UNL     1      -5.095   0.411   1.145  0.00  0.00    +0.342 C 
ATOM     25  O   UNL     1      -5.601   1.280   1.829  0.00  0.00    -0.245 OA
BRANCH  24  26
ATOM     26  O   UNL     1      -5.282  -0.887   1.457  0.00  0.00    -0.461 OA
BRANCH  26  27
ATOM     27  C   UNL     1      -6.098  -1.174   2.623  0.00  0.00    +0.232 C 
BRANCH  27  29
ATOM     28  C   UNL     1      -7.056  -2.991   4.046  0.00  0.00    +0.007 C 
ATOM     29  C   UNL     1      -6.195  -2.689   2.817  0.00  0.00    +0.038 C 
ENDBRANCH  27  29
ENDBRANCH  26  27
ENDBRANCH  24  26
ENDBRANCH   1  24
TORSDOF 7
