REMARK  Name = ZINC13617089
REMARK  11 active torsions:
REMARK  status: ('A' for Active; 'I' for Inactive)
REMARK    1  A    between atoms: C_3  and  N_17
REMARK    2  A    between atoms: C_6  and  C_7
REMARK    3  A    between atoms: N_9  and  C_10
REMARK    4  A    between atoms: C_10  and  C_11
REMARK    5  A    between atoms: C_18  and  C_20
REMARK    6  A    between atoms: C_20  and  C_21
REMARK    7  A    between atoms: C_21  and  C_22
REMARK    8  A    between atoms: N_24  and  C_25
REMARK    9  A    between atoms: C_28  and  C_31
REMARK   10  A    between atoms: N_33  and  C_34
REMARK   11  A    between atoms: C_34  and  C_35
REMARK                            x       y       z     vdW  Elec       q    Type
REMARK                         _______ _______ _______ _____ _____    ______ ____
ROOT
ATOM      1  C   UNL     1     -10.030  -2.071  -1.180  0.00  0.00    +0.105 C 
ENDROOT
BRANCH   1   3
ATOM      2  N   UNL     1      -8.284  -0.569  -2.084  0.00  0.00    -0.285 N 
ATOM      3  C   UNL     1      -8.658  -1.447  -1.133  0.00  0.00    +0.218 C 
ATOM      4  O   UNL     1      -7.891  -1.736  -0.239  0.00  0.00    -0.275 OA
ATOM      5  H   UNL     1      -8.920  -0.287  -2.761  0.00  0.00    +0.155 HD
BRANCH   2   8
ATOM      6  C   UNL     1      -5.070   0.699  -3.322  0.00  0.00    +0.015 A 
ATOM      7  C   UNL     1      -6.352   0.196  -3.307  0.00  0.00    +0.024 A 
ATOM      8  C   UNL     1      -6.984  -0.065  -2.096  0.00  0.00    +0.033 A 
ATOM      9  C   UNL     1      -6.322   0.175  -0.896  0.00  0.00    +0.024 A 
ATOM     10  C   UNL     1      -5.038   0.672  -0.904  0.00  0.00    +0.015 A 
ATOM     11  C   UNL     1      -4.400   0.936  -2.119  0.00  0.00    +0.037 A 
BRANCH  11  12
ATOM     12  C   UNL     1      -3.024   1.469  -2.131  0.00  0.00    +0.244 C 
ATOM     13  O   UNL     1      -2.445   1.680  -1.083  0.00  0.00    -0.270 OA
ATOM     14  N   UNL     1      -2.410   1.723  -3.304  0.00  0.00    -0.309 N 
ATOM     15  H   UNL     1      -2.873   1.555  -4.139  0.00  0.00    +0.149 HD
BRANCH  14  16
ATOM     16  C   UNL     1      -1.044   2.252  -3.316  0.00  0.00    +0.136 C 
BRANCH  16  17
ATOM     17  C   UNL     1      -0.586   2.449  -4.762  0.00  0.00    +0.135 C 
ATOM     18  C   UNL     1       0.853   2.999  -4.786  0.00  0.00    +0.035 C 
ATOM     19  C   UNL     1       1.648   1.946  -5.596  0.00  0.00    +0.031 C 
ATOM     20  C   UNL     1       0.524   1.229  -6.387  0.00  0.00    +0.160 C 
ATOM     21  O   UNL     1      -0.573   1.187  -5.450  0.00  0.00    -0.375 OA
ENDBRANCH  16  17
ENDBRANCH  14  16
ENDBRANCH  11  12
ENDBRANCH   2   8
ENDBRANCH   1   3
BRANCH   1  22
ATOM     22  C   UNL     1     -10.198  -3.023   0.006  0.00  0.00    +0.105 C 
BRANCH  22  23
ATOM     23  C   UNL     1     -11.569  -3.646  -0.041  0.00  0.00    +0.218 C 
ATOM     24  O   UNL     1     -12.336  -3.357  -0.935  0.00  0.00    -0.275 OA
ATOM     25  N   UNL     1     -11.943  -4.524   0.910  0.00  0.00    -0.285 N 
ATOM     26  H   UNL     1     -11.356  -4.705   1.661  0.00  0.00    +0.155 HD
BRANCH  25  27
ATOM     27  C   UNL     1     -13.173  -5.174   0.815  0.00  0.00    +0.033 A 
ATOM     28  C   UNL     1     -14.273  -4.504   0.287  0.00  0.00    +0.024 A 
ATOM     29  C   UNL     1     -15.487  -5.144   0.186  0.00  0.00    +0.015 A 
ATOM     30  C   UNL     1     -15.618  -6.464   0.626  0.00  0.00    +0.037 A 
ATOM     31  C   UNL     1     -14.514  -7.132   1.161  0.00  0.00    +0.015 A 
ATOM     32  C   UNL     1     -13.300  -6.488   1.254  0.00  0.00    +0.024 A 
BRANCH  30  33
ATOM     33  C   UNL     1     -16.921  -7.151   0.525  0.00  0.00    +0.244 C 
ATOM     34  O   UNL     1     -17.033  -8.300   0.908  0.00  0.00    -0.270 OA
ATOM     35  N   UNL     1     -17.985  -6.506   0.009  0.00  0.00    -0.309 N 
ATOM     36  H   UNL     1     -17.895  -5.589  -0.297  0.00  0.00    +0.149 HD
BRANCH  35  37
ATOM     37  C   UNL     1     -19.278  -7.188  -0.091  0.00  0.00    +0.136 C 
BRANCH  37  38
ATOM     38  C   UNL     1     -20.309  -6.239  -0.707  0.00  0.00    +0.135 C 
ATOM     39  C   UNL     1     -21.675  -6.945  -0.809  0.00  0.00    +0.035 C 
ATOM     40  C   UNL     1     -22.628  -6.048   0.017  0.00  0.00    +0.031 C 
ATOM     41  C   UNL     1     -21.869  -4.697   0.035  0.00  0.00    +0.160 C 
ATOM     42  O   UNL     1     -20.481  -5.089   0.138  0.00  0.00    -0.375 OA
ENDBRANCH  37  38
ENDBRANCH  35  37
ENDBRANCH  30  33
ENDBRANCH  25  27
ENDBRANCH  22  23
ENDBRANCH   1  22
TORSDOF 11
