REMARK  Name = ZINC20834816
REMARK  7 active torsions:
REMARK  status: ('A' for Active; 'I' for Inactive)
REMARK    1  A    between atoms: C_6  and  C_7
REMARK    2  A    between atoms: C_10  and  C_12
REMARK    3  A    between atoms: C_12  and  S_13
REMARK    4  A    between atoms: S_13  and  C_14
REMARK    5  A    between atoms: N_19  and  N_20
REMARK    6  A    between atoms: C_21  and  C_22
REMARK    7  A    between atoms: C_27  and  O_28
REMARK                            x       y       z     vdW  Elec       q    Type
REMARK                         _______ _______ _______ _____ _____    ______ ____
ROOT
ATOM      1  C   UNL     1      -1.127   1.754   0.016  0.00  0.00    +0.211 A 
ATOM      2  N   UNL     1      -0.011   0.966   0.007  0.00  0.00    -0.186 NA
ATOM      3  C   UNL     1       1.084   1.784   0.001  0.00  0.00    +0.232 A 
ATOM      4  N   UNL     1       0.662   3.026   0.012  0.00  0.00    -0.245 N 
ATOM      5  N   UNL     1      -0.739   3.006   0.025  0.00  0.00    -0.144 NA
ATOM      6  N   UNL     1       2.409   1.374  -0.013  0.00  0.00    -0.205 N 
ATOM      7  H   UNL     1       2.652   0.301  -0.020  0.00  0.00    +0.177 HD
ATOM      8  H   UNL     1       1.387   3.853   0.009  0.00  0.00    +0.192 HD
ENDROOT
BRANCH   6   9
ATOM      9  N   UNL     1       3.437   2.325  -0.018  0.00  0.00    -0.187 NA
ATOM     10  C   UNL     1       4.678   1.941  -0.031  0.00  0.00    +0.142 C 
BRANCH  10  11
ATOM     11  C   UNL     1       5.760   2.942  -0.036  0.00  0.00    +0.037 A 
ATOM     12  C   UNL     1       7.095   2.532  -0.050  0.00  0.00    +0.033 A 
ATOM     13  C   UNL     1       8.103   3.475  -0.055  0.00  0.00    +0.042 A 
ATOM     14  C   UNL     1       7.795   4.826  -0.046  0.00  0.00    +0.023 A 
ATOM     15  C   UNL     1       6.477   5.242  -0.032  0.00  0.00    +0.047 A 
ATOM     16  C   UNL     1       5.454   4.309  -0.032  0.00  0.00    +0.126 A 
ATOM     17 CL   UNL     1       9.763   2.966  -0.072  0.00  0.00    -0.084 Cl
BRANCH  16  18
ATOM     18  O   UNL     1       4.158   4.718  -0.024  0.00  0.00    -0.506 OA
ATOM     19  H   UNL     1       3.921   5.792  -0.021  0.00  0.00    +0.292 HD
ENDBRANCH  16  18
ENDBRANCH  10  11
ENDBRANCH   6   9
BRANCH   1  20
ATOM     20  S   UNL     1      -2.795   1.186   0.019  0.00  0.00    -0.075 S 
BRANCH  20  21
ATOM     21  C   UNL     1      -3.777   2.711   0.032  0.00  0.00    +0.175 C 
BRANCH  21  25
ATOM     22  C   UNL     1      -7.253   1.894  -0.587  0.00  0.00    +0.248 A 
ATOM     23  N   UNL     1      -7.190   1.900   0.724  0.00  0.00    -0.107 NA
ATOM     24  N   UNL     1      -5.989   2.181   1.090  0.00  0.00    -0.111 NA
ATOM     25  C   UNL     1      -5.244   2.364   0.036  0.00  0.00    +0.228 A 
ATOM     26  O   UNL     1      -6.021   2.193  -1.047  0.00  0.00    -0.419 OA
BRANCH  22  32
ATOM     27  C   UNL     1      -8.371   1.650  -2.799  0.00  0.00    +0.014 A 
ATOM     28  C   UNL     1      -9.492   1.385  -3.559  0.00  0.00    +0.021 A 
ATOM     29  C   UNL     1     -10.698   1.097  -2.941  0.00  0.00    +0.041 A 
ATOM     30  C   UNL     1     -10.784   1.067  -1.560  0.00  0.00    +0.021 A 
ATOM     31  C   UNL     1      -9.669   1.325  -0.790  0.00  0.00    +0.014 A 
ATOM     32  C   UNL     1      -8.451   1.616  -1.406  0.00  0.00    +0.039 A 
ATOM     33 CL   UNL     1     -12.106   0.772  -3.903  0.00  0.00    -0.084 Cl
ENDBRANCH  22  32
ENDBRANCH  21  25
ENDBRANCH  20  21
ENDBRANCH   1  20
TORSDOF 7
