REMARK  Name = ZINC14969857
REMARK  6 active torsions:
REMARK  status: ('A' for Active; 'I' for Inactive)
REMARK    1  A    between atoms: C_5  and  C_7
REMARK    2  A    between atoms: C_7  and  N_8
REMARK    3  A    between atoms: C_19  and  N_58
REMARK    4  A    between atoms: C_23  and  C_24
REMARK    5  A    between atoms: C_23  and  N_58
REMARK    6  A    between atoms: C_24  and  C_25
REMARK                            x       y       z     vdW  Elec       q    Type
REMARK                         _______ _______ _______ _____ _____    ______ ____
ROOT
ATOM      1  N   UNL     1       9.767   2.627  -8.220  0.00  0.00    -0.294 N 
ATOM      2  C   UNL     1       9.646   3.834  -8.822  0.00  0.00    +0.203 A 
ATOM      3  N   UNL     1       8.982   4.837  -8.290  0.00  0.00    -0.230 NA
ATOM      4  C   UNL     1       8.410   4.632  -7.107  0.00  0.00    +0.116 A 
ATOM      5  C   UNL     1       8.479   3.411  -6.401  0.00  0.00    +0.076 A 
ATOM      6  C   UNL     1       9.214   2.343  -7.016  0.00  0.00    +0.263 A 
ATOM      7  O   UNL     1       9.333   1.250  -6.490  0.00  0.00    -0.267 OA
ATOM      8  C   UNL     1       7.792   3.371  -5.122  0.00  0.00    -0.023 A 
ATOM      9  C   UNL     1       7.158   4.504  -4.738  0.00  0.00    -0.006 A 
ATOM     10  S   UNL     1       7.445   5.664  -6.051  0.00  0.00    -0.073 S 
ATOM     11  C   UNL     1       6.381   4.726  -3.478  0.00  0.00    +0.027 C 
ATOM     12  C   UNL     1       6.090   3.360  -2.839  0.00  0.00    -0.067 C 
ATOM     13  C   UNL     1       7.387   2.546  -2.812  0.00  0.00    -0.011 C 
ATOM     14  C   UNL     1       7.768   2.130  -4.233  0.00  0.00    +0.035 C 
ENDROOT
BRANCH  12  15
ATOM     15  N   UNL     1       5.606   3.552  -1.459  0.00  0.00    +0.381 N 
ATOM     16  H   UNL     1       6.075   4.366  -1.045  0.00  0.00    -0.086 HD
ATOM     17  H   UNL     1       5.823   2.715  -0.905  0.00  0.00    -0.086 HD
BRANCH  15  18
ATOM     18  C   UNL     1       4.148   3.774  -1.453  0.00  0.00    -0.077 C 
BRANCH  18  19
ATOM     19  C   UNL     1       3.676   3.969  -0.011  0.00  0.00    +0.018 C 
BRANCH  19  20
ATOM     20  C   UNL     1       2.186   4.197   0.003  0.00  0.00    -0.024 A 
ATOM     21  C   UNL     1       1.560   5.385   0.015  0.00  0.00    +0.087 A 
ATOM     22  N   UNL     1       0.205   5.198   0.027  0.00  0.00    -0.360 N 
ATOM     23  H   UNL     1      -0.455   5.909   0.036  0.00  0.00    +0.165 HD
ATOM     24  C   UNL     1      -0.082   3.852   0.023  0.00  0.00    +0.047 A 
ATOM     25  C   UNL     1       1.147   3.166   0.008  0.00  0.00    +0.003 A 
ATOM     26  C   UNL     1       1.165   1.770   0.000  0.00  0.00    +0.010 A 
ATOM     27  C   UNL     1      -0.013   1.076   0.008  0.00  0.00    +0.001 A 
ATOM     28  C   UNL     1      -1.227   1.748   0.017  0.00  0.00    +0.002 A 
ATOM     29  C   UNL     1      -1.268   3.125   0.030  0.00  0.00    +0.026 A 
ENDBRANCH  19  20
ENDBRANCH  18  19
ENDBRANCH  15  18
ENDBRANCH  12  15
BRANCH   1  30
ATOM     30  C   UNL     1      10.531   1.580  -8.902  0.00  0.00    +0.164 C 
BRANCH  30  35
ATOM     31  C   UNL     1       8.787   0.225 -11.964  0.00  0.00    +0.000 A 
ATOM     32  C   UNL     1       7.916  -0.692 -11.405  0.00  0.00    +0.003 A 
ATOM     33  C   UNL     1       7.889  -0.874 -10.036  0.00  0.00    +0.039 A 
ATOM     34  C   UNL     1       8.739  -0.141  -9.224  0.00  0.00    +0.128 A 
ATOM     35  C   UNL     1       9.608   0.779  -9.785  0.00  0.00    +0.008 A 
ATOM     36  C   UNL     1       9.633   0.959 -11.155  0.00  0.00    +0.008 A 
ATOM     37  F   UNL     1       8.718  -0.322  -7.885  0.00  0.00    -0.205 F 
ENDBRANCH  30  35
ENDBRANCH   1  30
TORSDOF 6
