REMARK  Name = ZINC20292066
REMARK  8 active torsions:
REMARK  status: ('A' for Active; 'I' for Inactive)
REMARK    1  A    between atoms: C_4  and  N_8
REMARK    2  A    between atoms: C_9  and  C_11
REMARK    3  A    between atoms: C_11  and  S_12
REMARK    4  A    between atoms: S_12  and  C_13
REMARK    5  A    between atoms: N_17  and  N_18
REMARK    6  A    between atoms: N_19  and  N_20
REMARK    7  A    between atoms: C_21  and  C_22
REMARK    8  A    between atoms: C_25  and  N_28
REMARK                            x       y       z     vdW  Elec       q    Type
REMARK                         _______ _______ _______ _____ _____    ______ ____
ROOT
ATOM      1  C   UNL     1       6.297  -4.986   1.049  0.00  0.00    +0.210 A 
ATOM      2  N   UNL     1       7.442  -4.337   0.747  0.00  0.00    -0.119 NA
ATOM      3  N   UNL     1       8.441  -5.133   0.897  0.00  0.00    -0.109 NA
ATOM      4  C   UNL     1       7.999  -6.341   1.304  0.00  0.00    +0.254 A 
ATOM      5  N   UNL     1       6.633  -6.261   1.410  0.00  0.00    -0.211 N 
ATOM      6  N   UNL     1       8.751  -7.415   1.560  0.00  0.00    -0.204 N 
ATOM      7  H   UNL     1       8.334  -8.241   1.849  0.00  0.00    +0.177 HD
ENDROOT
BRANCH   5   8
ATOM      8  N   UNL     1       5.780  -7.256   1.796  0.00  0.00    -0.294 N 
ATOM      9  H   UNL     1       5.471  -7.796   1.002  0.00  0.00    +0.163 HD
ATOM     10  H   UNL     1       6.207  -7.848   2.492  0.00  0.00    +0.163 HD
ENDBRANCH   5   8
BRANCH   6  11
ATOM     11  N   UNL     1      10.033  -7.352   1.424  0.00  0.00    -0.188 NA
ATOM     12  C   UNL     1      10.773  -8.408   1.676  0.00  0.00    +0.138 C 
BRANCH  12  13
ATOM     13  C   UNL     1      12.228  -8.337   1.521  0.00  0.00    -0.005 A 
ATOM     14  C   UNL     1      12.836  -7.141   1.109  0.00  0.00    +0.012 A 
ATOM     15  C   UNL     1      14.205  -7.083   0.967  0.00  0.00    +0.033 A 
ATOM     16  C   UNL     1      14.981  -8.202   1.228  0.00  0.00    +0.126 A 
ATOM     17  C   UNL     1      14.389  -9.387   1.635  0.00  0.00    +0.033 A 
ATOM     18  C   UNL     1      13.023  -9.462   1.790  0.00  0.00    +0.012 A 
BRANCH  16  19
ATOM     19  N   UNL     1      16.451  -8.130   1.070  0.00  0.00    +0.056 N 
ATOM     20  O   UNL     1      17.017  -7.006   0.683  0.00  0.00    -0.126 OA
ATOM     21  O   UNL     1      17.192  -9.190   1.317  0.00  0.00    -0.126 OA
ENDBRANCH  16  19
ENDBRANCH  12  13
ENDBRANCH   6  11
BRANCH   1  22
ATOM     22  S   UNL     1       4.764  -4.351   0.997  0.00  0.00    -0.075 S 
BRANCH  22  23
ATOM     23  C   UNL     1       5.017  -2.641   0.446  0.00  0.00    +0.173 C 
BRANCH  23  25
ATOM     24  N   UNL     1       3.627  -0.652  -0.037  0.00  0.00    -0.280 N 
ATOM     25  C   UNL     1       3.685  -1.941   0.355  0.00  0.00    +0.228 C 
ATOM     26  O   UNL     1       2.666  -2.536   0.635  0.00  0.00    -0.275 OA
ATOM     27  H   UNL     1       4.431  -0.198  -0.332  0.00  0.00    +0.155 HD
BRANCH  24  31
ATOM     28  C   UNL     1      -0.015   1.382   0.019  0.00  0.00    +0.006 A 
ATOM     29  C   UNL     1       0.778   1.355   1.152  0.00  0.00    +0.040 A 
ATOM     30  C   UNL     1       1.986   0.681   1.137  0.00  0.00    +0.147 A 
ATOM     31  C   UNL     1       2.403   0.031  -0.018  0.00  0.00    +0.105 A 
ATOM     32  C   UNL     1       1.604   0.060  -1.155  0.00  0.00    +0.147 A 
ATOM     33  C   UNL     1       0.397   0.736  -1.132  0.00  0.00    +0.040 A 
ATOM     34  F   UNL     1       2.005  -0.570  -2.280  0.00  0.00    -0.203 F 
ATOM     35  F   UNL     1       2.759   0.656   2.245  0.00  0.00    -0.203 F 
ENDBRANCH  24  31
ENDBRANCH  23  25
ENDBRANCH  22  23
ENDBRANCH   1  22
TORSDOF 8
