REMARK  Name = ZINC14825961
REMARK  5 active torsions:
REMARK  status: ('A' for Active; 'I' for Inactive)
REMARK    1  A    between atoms: C_4  and  S_19
REMARK    2  A    between atoms: C_5  and  C_7
REMARK    3  A    between atoms: S_19  and  C_20
REMARK    4  A    between atoms: C_20  and  C_21
REMARK    5  A    between atoms: N_23  and  C_24
REMARK                            x       y       z     vdW  Elec       q    Type
REMARK                         _______ _______ _______ _____ _____    ______ ____
ROOT
ATOM      1  C   UNL     1      -3.782   6.351   6.585  0.00  0.00    +0.001 A 
ATOM      2  C   UNL     1      -3.528   5.057   6.159  0.00  0.00    +0.001 A 
ATOM      3  C   UNL     1      -2.862   4.830   4.972  0.00  0.00    +0.015 A 
ATOM      4  C   UNL     1      -2.431   5.902   4.200  0.00  0.00    +0.020 A 
ATOM      5  C   UNL     1      -2.687   7.215   4.629  0.00  0.00    +0.050 A 
ATOM      6  C   UNL     1      -3.368   7.427   5.831  0.00  0.00    +0.014 A 
ENDROOT
BRANCH   5   7
ATOM      7  C   UNL     1      -2.241   8.361   3.817  0.00  0.00    +0.251 C 
ATOM      8  O   UNL     1      -1.649   8.172   2.772  0.00  0.00    -0.270 OA
ATOM      9  N   UNL     1      -2.489   9.618   4.234  0.00  0.00    -0.261 N 
ATOM     10  C   UNL     1      -2.070  10.695   3.471  0.00  0.00    +0.166 A 
ATOM     11  N   UNL     1      -2.217  11.978   3.707  0.00  0.00    -0.225 NA
ATOM     12  C   UNL     1      -1.752  12.928   2.867  0.00  0.00    +0.080 A 
ATOM     13  C   UNL     1      -1.843  14.333   3.002  0.00  0.00    +0.029 A 
ATOM     14  C   UNL     1      -1.313  15.164   2.050  0.00  0.00    +0.002 A 
ATOM     15  C   UNL     1      -0.673  14.663   0.926  0.00  0.00    +0.001 A 
ATOM     16  C   UNL     1      -0.566  13.294   0.761  0.00  0.00    +0.017 A 
ATOM     17  C   UNL     1      -1.094  12.454   1.710  0.00  0.00    +0.041 A 
ATOM     18  S   UNL     1      -1.185  10.692   1.918  0.00  0.00    -0.052 S 
ATOM     19  H   UNL     1      -2.961   9.769   5.067  0.00  0.00    +0.157 HD
ENDBRANCH   5   7
BRANCH   4  20
ATOM     20  S   UNL     1      -1.573   5.616   2.687  0.00  0.00    -0.115 S 
BRANCH  20  21
ATOM     21  C   UNL     1      -1.549   3.806   2.677  0.00  0.00    +0.170 C 
BRANCH  21  22
ATOM     22  C   UNL     1      -0.843   3.320   1.438  0.00  0.00    +0.224 C 
ATOM     23  O   UNL     1      -0.401   4.119   0.639  0.00  0.00    -0.275 OA
ATOM     24  N   UNL     1      -0.704   1.998   1.216  0.00  0.00    -0.309 N 
ATOM     25  H   UNL     1      -1.058   1.359   1.854  0.00  0.00    +0.149 HD
BRANCH  24  26
ATOM     26  C   UNL     1      -0.019   1.526   0.010  0.00  0.00    +0.035 C 
ATOM     27  C   UNL     1       1.417   2.055  -0.000  0.00  0.00    +0.029 C 
ATOM     28  C   UNL     1       2.133   1.562  -1.259  0.00  0.00    -0.008 C 
ATOM     29  C   UNL     1       2.154   0.032  -1.268  0.00  0.00    +0.007 C 
ATOM     30  C   UNL     1       0.718  -0.497  -1.257  0.00  0.00    -0.008 C 
ATOM     31  C   UNL     1       0.002  -0.004   0.002  0.00  0.00    +0.029 C 
ATOM     32  C   UNL     1      -0.022   0.009  -2.496  0.00  0.00    +0.007 C 
ATOM     33  C   UNL     1      -0.043   1.539  -2.488  0.00  0.00    -0.008 C 
ATOM     34  C   UNL     1       1.393   2.069  -2.499  0.00  0.00    +0.007 C 
ATOM     35  C   UNL     1      -0.759   2.033  -1.229  0.00  0.00    +0.029 C 
ENDBRANCH  24  26
ENDBRANCH  21  22
ENDBRANCH  20  21
ENDBRANCH   4  20
TORSDOF 5
