REMARK  Name = ZINC34734947
REMARK  6 active torsions:
REMARK  status: ('A' for Active; 'I' for Inactive)
REMARK    1  A    between atoms: C_1  and  C_2
REMARK    2  A    between atoms: C_2  and  N_3
REMARK    3  A    between atoms: N_16  and  C_19
REMARK    4  A    between atoms: C_19  and  C_20
REMARK    5  A    between atoms: C_25  and  C_27
REMARK    6  A    between atoms: C_25  and  C_28
REMARK                            x       y       z     vdW  Elec       q    Type
REMARK                         _______ _______ _______ _____ _____    ______ ____
ROOT
ATOM      1  N   UNL     1       0.684  -0.590  -1.167  0.00  0.00    -0.281 N 
ATOM      2  C   UNL     1      -0.040  -0.909  -2.256  0.00  0.00    +0.264 A 
ATOM      3  O   UNL     1      -1.258  -0.905  -2.210  0.00  0.00    -0.267 OA
ATOM      4  C   UNL     1       0.639  -1.252  -3.468  0.00  0.00    +0.076 A 
ATOM      5  C   UNL     1       0.064  -1.629  -4.757  0.00  0.00    -0.018 A 
ATOM      6  C   UNL     1       0.927  -1.910  -5.757  0.00  0.00    +0.021 A 
ATOM      7  S   UNL     1       2.535  -1.691  -5.051  0.00  0.00    -0.071 S 
ATOM      8  C   UNL     1       2.043  -1.224  -3.410  0.00  0.00    +0.118 A 
ATOM      9  N   UNL     1       2.698  -0.900  -2.301  0.00  0.00    -0.208 NA
ATOM     10  C   UNL     1       2.047  -0.583  -1.201  0.00  0.00    +0.202 A 
ATOM     11  N   UNL     1       2.751  -0.247  -0.071  0.00  0.00    -0.304 N 
ATOM     12  C   UNL     1       3.138  -1.271   0.912  0.00  0.00    +0.089 C 
ATOM     13  C   UNL     1       4.635  -1.122   1.204  0.00  0.00    -0.059 C 
ATOM     14  N   UNL     1       4.916   0.258   1.622  0.00  0.00    +0.387 N 
ATOM     15  C   UNL     1       4.635   1.183   0.517  0.00  0.00    -0.059 C 
ATOM     16  C   UNL     1       3.143   1.147   0.189  0.00  0.00    +0.089 C 
ATOM     17  C   UNL     1       0.565  -2.317  -7.152  0.00  0.00    +0.203 C 
ATOM     18  O   UNL     1      -0.828  -2.667  -7.162  0.00  0.00    -0.368 OA
ATOM     19  C   UNL     1      -1.664  -1.696  -6.527  0.00  0.00    +0.068 C 
ATOM     20  C   UNL     1      -1.439  -1.714  -5.013  0.00  0.00    +0.071 C 
ATOM     21  C   UNL     1      -1.331  -0.306  -7.073  0.00  0.00    +0.041 C 
ATOM     22  C   UNL     1      -3.130  -2.017  -6.826  0.00  0.00    +0.041 C 
ATOM     23  H   UNL     1       4.335   0.493   2.413  0.00  0.00    -0.081 HD
ENDROOT
BRANCH   1  25
ATOM     24  C   UNL     1      -0.379   1.245   0.050  0.00  0.00    +0.027 C 
ATOM     25  C   UNL     1      -0.006  -0.238   0.077  0.00  0.00    +0.125 C 
ENDBRANCH   1  25
BRANCH  14  26
ATOM     26  C   UNL     1       6.329   0.372   2.007  0.00  0.00    +0.018 C 
BRANCH  26  27
ATOM     27  C   UNL     1       6.591   1.752   2.553  0.00  0.00    +0.194 C 
ATOM     28  O   UNL     1       5.689   2.561   2.615  0.00  0.00    -0.278 OA
ATOM     29  N   UNL     1       7.827   2.088   2.971  0.00  0.00    -0.331 N 
ATOM     30  H   UNL     1       8.549   1.442   2.922  0.00  0.00    +0.145 HD
ATOM     31  H   UNL     1       7.996   2.977   3.322  0.00  0.00    +0.145 HD
ENDBRANCH  26  27
ENDBRANCH  14  26
TORSDOF 3
