REMARK  Name = ZINC08110739
REMARK  8 active torsions:
REMARK  status: ('A' for Active; 'I' for Inactive)
REMARK    1  A    between atoms: C_1  and  C_2
REMARK    2  A    between atoms: C_2  and  C_3
REMARK    3  A    between atoms: C_2  and  C_4
REMARK    4  A    between atoms: C_7  and  S_10
REMARK    5  A    between atoms: S_10  and  N_13
REMARK    6  A    between atoms: N_13  and  N_14
REMARK    7  A    between atoms: C_15  and  C_17
REMARK    8  A    between atoms: C_20  and  C_22
REMARK                            x       y       z     vdW  Elec       q    Type
REMARK                         _______ _______ _______ _____ _____    ______ ____
ROOT
ATOM      1  N   UNL     1       1.193   1.683  -0.000  0.00  0.00    -0.227 N 
ATOM      2  C   UNL     1       2.123   1.447   0.946  0.00  0.00    +0.265 C 
ATOM      3  O   UNL     1       1.918   0.612   1.807  0.00  0.00    -0.268 OA
ATOM      4  H   UNL     1       1.356   2.349  -0.686  0.00  0.00    +0.171 HD
ENDROOT
BRANCH   2   5
ATOM      5  C   UNL     1       3.381   2.197   0.938  0.00  0.00    +0.076 A 
ATOM      6  C   UNL     1       4.453   2.110   1.815  0.00  0.00    +0.021 A 
ATOM      7  C   UNL     1       5.538   2.916   1.607  0.00  0.00    +0.017 A 
ATOM      8  C   UNL     1       5.520   3.794   0.535  0.00  0.00    +0.020 A 
ATOM      9  S   UNL     1       3.926   3.462  -0.198  0.00  0.00    -0.084 S 
BRANCH   8  10
ATOM     10  C   UNL     1       6.555   4.759   0.109  0.00  0.00    -0.011 A 
ATOM     11  C   UNL     1       7.745   4.873   0.829  0.00  0.00    +0.012 A 
ATOM     12  C   UNL     1       8.710   5.771   0.423  0.00  0.00    +0.039 A 
ATOM     13  C   UNL     1       8.495   6.568  -0.690  0.00  0.00    +0.123 A 
ATOM     14  C   UNL     1       7.312   6.463  -1.405  0.00  0.00    +0.039 A 
ATOM     15  C   UNL     1       6.343   5.564  -1.012  0.00  0.00    +0.012 A 
ATOM     16  F   UNL     1       9.441   7.450  -1.080  0.00  0.00    -0.205 F 
ENDBRANCH   8  10
ENDBRANCH   2   5
BRANCH   1  17
ATOM     17  N   UNL     1      -0.011   0.966   0.007  0.00  0.00    -0.108 NA
ATOM     18  H   UNL     1       0.002  -0.004   0.002  0.00  0.00    +0.172 HD
BRANCH  17  19
ATOM     19  S   UNL     1      -1.456   1.774   0.019  0.00  0.00    +0.074 S 
ATOM     20  O   UNL     1      -2.472   0.792  -0.128  0.00  0.00    -0.152 OA
ATOM     21  O   UNL     1      -1.413   2.667   1.123  0.00  0.00    -0.152 OA
BRANCH  19  25
ATOM     22  C   UNL     1      -1.587   4.335  -3.712  0.00  0.00    -0.045 A 
ATOM     23  C   UNL     1      -2.076   3.042  -3.743  0.00  0.00    +0.006 A 
ATOM     24  C   UNL     1      -2.036   2.260  -2.604  0.00  0.00    +0.029 A 
ATOM     25  C   UNL     1      -1.507   2.771  -1.433  0.00  0.00    +0.107 A 
ATOM     26  C   UNL     1      -1.023   4.065  -1.401  0.00  0.00    +0.029 A 
ATOM     27  C   UNL     1      -1.059   4.846  -2.541  0.00  0.00    +0.006 A 
BRANCH  22  29
ATOM     28  C   UNL     1      -2.468   6.438  -4.686  0.00  0.00    +0.012 C 
ATOM     29  C   UNL     1      -1.629   5.187  -4.954  0.00  0.00    +0.013 C 
ATOM     30  C   UNL     1      -0.207   5.599  -5.338  0.00  0.00    +0.012 C 
ENDBRANCH  22  29
ENDBRANCH  19  25
ENDBRANCH  17  19
ENDBRANCH   1  17
TORSDOF 6
