REMARK  Name = ZINC58847145
REMARK  5 active torsions:
REMARK  status: ('A' for Active; 'I' for Inactive)
REMARK    1  A    between atoms: C_3  and  C_10
REMARK    2  A    between atoms: C_5  and  N_7
REMARK    3  A    between atoms: C_21  and  S_26
REMARK    4  A    between atoms: S_26  and  N_29
REMARK    5  A    between atoms: N_29  and  C_30
REMARK                            x       y       z     vdW  Elec       q    Type
REMARK                         _______ _______ _______ _____ _____    ______ ____
ROOT
ATOM      1  C   UNL     1       5.777   2.120  -3.935  0.00  0.00    +0.105 C 
ATOM      2  C   UNL     1       5.273   1.929  -2.536  0.00  0.00    +0.029 C 
ATOM      3  C   UNL     1       3.732   1.966  -2.459  0.00  0.00    +0.033 C 
ATOM      4  C   UNL     1       3.453   2.459  -1.054  0.00  0.00    -0.030 C 
ATOM      5  C   UNL     1       4.513   3.024  -0.538  0.00  0.00    -0.023 C 
ATOM      6  C   UNL     1       5.646   3.019  -1.534  0.00  0.00    +0.049 C 
ATOM      7  C   UNL     1       5.727   4.386  -2.152  0.00  0.00    -0.018 A 
ATOM      8  C   UNL     1       5.755   5.489  -1.310  0.00  0.00    +0.034 A 
ATOM      9  C   UNL     1       5.818   6.766  -1.830  0.00  0.00    +0.109 A 
ATOM     10  C   UNL     1       5.853   6.956  -3.199  0.00  0.00    +0.030 A 
ATOM     11  C   UNL     1       5.831   5.866  -4.045  0.00  0.00    +0.025 A 
ATOM     12  C   UNL     1       5.773   4.577  -3.521  0.00  0.00    +0.031 A 
ATOM     13  N   UNL     1       5.800   3.497  -4.382  0.00  0.00    -0.336 N 
ATOM     14  H   UNL     1       5.807   3.676  -5.336  0.00  0.00    +0.147 HD
ENDROOT
BRANCH   1  17
ATOM     15  C   UNL     1       2.895   1.132  -6.165  0.00  0.00    +0.003 A 
ATOM     16  C   UNL     1       3.700   1.858  -5.306  0.00  0.00    +0.005 A 
ATOM     17  C   UNL     1       4.900   1.329  -4.870  0.00  0.00    -0.025 A 
ATOM     18  C   UNL     1       5.296   0.073  -5.294  0.00  0.00    +0.038 A 
ATOM     19  C   UNL     1       4.492  -0.652  -6.152  0.00  0.00    +0.127 A 
ATOM     20  C   UNL     1       3.292  -0.123  -6.588  0.00  0.00    +0.033 A 
BRANCH  19  21
ATOM     21  N   UNL     1       4.916  -1.996  -6.606  0.00  0.00    +0.056 N 
ATOM     22  O   UNL     1       5.967  -2.458  -6.226  0.00  0.00    -0.126 OA
ATOM     23  O   UNL     1       4.213  -2.631  -7.356  0.00  0.00    -0.126 OA
ENDBRANCH  19  21
ENDBRANCH   1  17
BRANCH   9  24
ATOM     24  S   UNL     1       5.852   8.155  -0.747  0.00  0.00    +0.072 S 
ATOM     25  O   UNL     1       5.245   9.232  -1.449  0.00  0.00    -0.150 OA
ATOM     26  O   UNL     1       5.376   7.701   0.512  0.00  0.00    -0.150 OA
BRANCH  24  27
ATOM     27  N   UNL     1       7.441   8.568  -0.531  0.00  0.00    -0.216 N 
ATOM     28  H   UNL     1       7.761   9.436  -0.823  0.00  0.00    +0.174 HD
BRANCH  27  29
ATOM     29  C   UNL     1       8.323   7.665   0.071  0.00  0.00    +0.048 A 
ATOM     30  C   UNL     1       8.273   7.454   1.443  0.00  0.00    +0.027 A 
ATOM     31  C   UNL     1       9.144   6.561   2.035  0.00  0.00    +0.040 A 
ATOM     32  C   UNL     1      10.067   5.876   1.263  0.00  0.00    +0.124 A 
ATOM     33  C   UNL     1      10.118   6.085  -0.105  0.00  0.00    +0.040 A 
ATOM     34  C   UNL     1       9.246   6.973  -0.703  0.00  0.00    +0.027 A 
ATOM     35  F   UNL     1      10.918   5.003   1.845  0.00  0.00    -0.205 F 
ENDBRANCH  27  29
ENDBRANCH  24  27
ENDBRANCH   9  24
TORSDOF 5
