REMARK  Name = ZINC12930228
REMARK  10 active torsions:
REMARK  status: ('A' for Active; 'I' for Inactive)
REMARK    1  A    between atoms: C_1  and  C_2
REMARK    2  A    between atoms: C_5  and  N_14
REMARK    3  A    between atoms: C_7  and  S_8
REMARK    4  A    between atoms: S_8  and  N_11
REMARK    5  A    between atoms: N_11  and  C_12
REMARK    6  A    between atoms: N_11  and  C_13
REMARK    7  A    between atoms: C_15  and  C_17
REMARK    8  A    between atoms: C_17  and  N_18
REMARK    9  A    between atoms: N_21  and  C_22
REMARK   10  A    between atoms: C_28  and  C_30
REMARK                            x       y       z     vdW  Elec       q    Type
REMARK                         _______ _______ _______ _____ _____    ______ ____
ROOT
ATOM      1  N   UNL     1       0.003   0.497   0.005  0.00  0.00    -0.284 N 
ATOM      2  C   UNL     1       1.224   1.014  -0.233  0.00  0.00    +0.234 C 
ATOM      3  O   UNL     1       1.340   2.180  -0.547  0.00  0.00    -0.274 OA
ATOM      4  H   UNL     1      -0.097  -0.451   0.182  0.00  0.00    +0.155 HD
ENDROOT
BRANCH   1   9
ATOM      5  C   UNL     1      -4.561   3.867  -0.051  0.00  0.00    +0.046 C 
ATOM      6  C   UNL     1      -3.349   2.972  -0.036  0.00  0.00    -0.024 A 
ATOM      7  C   UNL     1      -2.134   3.462   0.408  0.00  0.00    +0.007 A 
ATOM      8  C   UNL     1      -1.023   2.643   0.428  0.00  0.00    +0.023 A 
ATOM      9  C   UNL     1      -1.123   1.329  -0.009  0.00  0.00    +0.035 A 
ATOM     10  C   UNL     1      -2.344   0.839  -0.454  0.00  0.00    +0.052 A 
ATOM     11  C   UNL     1      -3.453   1.662  -0.467  0.00  0.00    +0.110 A 
BRANCH  11  12
ATOM     12  S   UNL     1      -5.003   1.042  -1.032  0.00  0.00    +0.061 S 
ATOM     13  O   UNL     1      -5.513   2.001  -1.949  0.00  0.00    -0.153 OA
ATOM     14  O   UNL     1      -4.790  -0.316  -1.390  0.00  0.00    -0.153 OA
BRANCH  12  15
ATOM     15  N   UNL     1      -6.030   1.035   0.267  0.00  0.00    -0.183 NA
ATOM     16  C   UNL     1      -6.993   2.124   0.445  0.00  0.00    +0.131 C 
ATOM     17  C   UNL     1      -5.976  -0.061   1.237  0.00  0.00    +0.131 C 
ENDBRANCH  12  15
ENDBRANCH  11  12
ENDBRANCH   1   9
BRANCH   2  18
ATOM     18  C   UNL     1       2.448   0.143  -0.109  0.00  0.00    +0.202 C 
BRANCH  18  19
ATOM     19  N   UNL     1       3.643   0.932  -0.416  0.00  0.00    -0.291 N 
ATOM     20  C   UNL     1       4.861   0.358  -0.369  0.00  0.00    +0.300 C 
ATOM     21  O   UNL     1       4.968  -0.817  -0.072  0.00  0.00    -0.253 OA
ATOM     22  N   UNL     1       5.960   1.084  -0.652  0.00  0.00    -0.296 N 
ATOM     23  H   UNL     1       3.558   1.869  -0.653  0.00  0.00    +0.151 HD
ATOM     24  H   UNL     1       5.875   2.021  -0.889  0.00  0.00    +0.151 HD
BRANCH  22  25
ATOM     25  C   UNL     1       7.285   0.459  -0.601  0.00  0.00    +0.077 C 
ATOM     26  C   UNL     1       7.810   0.494   0.836  0.00  0.00    +0.022 C 
ATOM     27  C   UNL     1       7.913   1.946   1.306  0.00  0.00    +0.002 C 
ATOM     28  C   UNL     1       8.873   2.711   0.394  0.00  0.00    +0.000 C 
ATOM     29  C   UNL     1       8.348   2.676  -1.043  0.00  0.00    +0.005 C 
ATOM     30  C   UNL     1       8.245   1.224  -1.513  0.00  0.00    +0.006 C 
ATOM     31  C   UNL     1       7.720   1.189  -2.950  0.00  0.00    +0.009 C 
ENDBRANCH  22  25
ENDBRANCH  18  19
ENDBRANCH   2  18
TORSDOF 6
