REMARK  Name = ZINC39674649
REMARK  9 active torsions:
REMARK  status: ('A' for Active; 'I' for Inactive)
REMARK    1  A    between atoms: C_1  and  C_2
REMARK    2  A    between atoms: C_4  and  C_14
REMARK    3  A    between atoms: C_7  and  C_12
REMARK    4  A    between atoms: C_14  and  C_15
REMARK    5  A    between atoms: C_15  and  N_16
REMARK    6  A    between atoms: C_17  and  C_19
REMARK    7  A    between atoms: C_30  and  C_32
REMARK    8  A    between atoms: C_37  and  O_38
REMARK    9  A    between atoms: O_38  and  C_39
REMARK                            x       y       z     vdW  Elec       q    Type
REMARK                         _______ _______ _______ _____ _____    ______ ____
ROOT
ATOM      1  C   UNL     1       1.369  -1.010  -7.400  0.00  0.00    +0.100 C 
ATOM      2  C   UNL     1       0.057  -1.748  -7.745  0.00  0.00    +0.121 C 
ATOM      3  N   UNL     1       0.251  -2.227  -9.134  0.00  0.00    -0.296 N 
ATOM      4  C   UNL     1       1.666  -2.667  -9.178  0.00  0.00    +0.115 C 
ATOM      5  C   UNL     1       2.423  -1.617  -8.342  0.00  0.00    -0.004 C 
ATOM      6  C   UNL     1       3.531  -2.285  -7.534  0.00  0.00    -0.010 C 
ATOM      7  C   UNL     1       4.596  -2.830  -8.489  0.00  0.00    -0.082 C 
ATOM      8  N   UNL     1       5.144  -1.731  -9.293  0.00  0.00    +0.379 N 
ATOM      9  C   UNL     1       4.091  -1.154 -10.136  0.00  0.00    -0.082 C 
ATOM     10  C   UNL     1       3.004  -0.538  -9.250  0.00  0.00    -0.010 C 
ATOM     11  C   UNL     1      -0.654  -2.256 -10.132  0.00  0.00    +0.250 C 
ATOM     12  O   UNL     1      -1.755  -1.766  -9.969  0.00  0.00    -0.270 OA
ATOM     13  H   UNL     1       5.510  -1.018  -8.680  0.00  0.00    -0.086 HD
ATOM     14  H   UNL     1       5.888  -2.081  -9.878  0.00  0.00    -0.086 HD
ENDROOT
BRANCH  11  15
ATOM     15  C   UNL     1      -0.310  -2.882 -11.423  0.00  0.00    +0.078 A 
ATOM     16  C   UNL     1       0.519  -4.007 -11.459  0.00  0.00    +0.017 A 
ATOM     17  C   UNL     1       0.837  -4.587 -12.668  0.00  0.00    +0.001 A 
ATOM     18  C   UNL     1       0.338  -4.061 -13.848  0.00  0.00    +0.004 A 
ATOM     19  C   UNL     1      -0.481  -2.950 -13.827  0.00  0.00    +0.046 A 
ATOM     20  C   UNL     1      -0.816  -2.356 -12.619  0.00  0.00    +0.132 A 
BRANCH  20  21
ATOM     21  O   UNL     1      -1.626  -1.268 -12.596  0.00  0.00    -0.494 OA
ATOM     22  C   UNL     1      -2.103  -0.788 -13.854  0.00  0.00    +0.277 C 
ENDBRANCH  20  21
ENDBRANCH  11  15
BRANCH   1  24
ATOM     23  N   UNL     1       2.588  -0.411  -5.333  0.00  0.00    -0.315 N 
ATOM     24  C   UNL     1       1.747  -1.255  -5.962  0.00  0.00    +0.218 C 
ATOM     25  O   UNL     1       1.294  -2.212  -5.371  0.00  0.00    -0.275 OA
ATOM     26  H   UNL     1       2.951   0.354  -5.806  0.00  0.00    +0.149 HD
BRANCH  23  27
ATOM     27  C   UNL     1       2.955  -0.650  -3.935  0.00  0.00    +0.108 C 
BRANCH  27  28
ATOM     28  C   UNL     1       3.914   0.446  -3.465  0.00  0.00    +0.052 C 
BRANCH  28  31
ATOM     29  C   UNL     1       6.616   1.073  -1.788  0.00  0.00    +0.035 C 
ATOM     30  C   UNL     1       5.216   1.039  -1.173  0.00  0.00    +0.103 C 
ATOM     31  C   UNL     1       4.292   0.200  -2.027  0.00  0.00    -0.037 C 
ATOM     32  C   UNL     1       3.872  -0.819  -1.235  0.00  0.00    +0.000 A 
ATOM     33  C   UNL     1       3.000  -1.912  -1.482  0.00  0.00    +0.028 A 
ATOM     34  C   UNL     1       2.736  -2.822  -0.485  0.00  0.00    +0.052 A 
ATOM     35  C   UNL     1       3.337  -2.693   0.838  0.00  0.00    +0.021 A 
ATOM     36  C   UNL     1       4.173  -1.675   1.130  0.00  0.00    +0.027 A 
ATOM     37  C   UNL     1       4.487  -0.676   0.102  0.00  0.00    +0.043 A 
ATOM     38  N   UNL     1       5.256   0.388   0.140  0.00  0.00    -0.378 N 
ATOM     39  H   UNL     1       5.766   0.692   0.907  0.00  0.00    +0.160 HD
BRANCH  34  40
ATOM     40  C   UNL     1       1.854  -3.919  -0.751  0.00  0.00    +0.099 C 
ATOM     41  N   UNL     1       1.154  -4.789  -0.962  0.00  0.00    -0.191 NA
ENDBRANCH  34  40
ENDBRANCH  28  31
ENDBRANCH  27  28
ENDBRANCH  23  27
ENDBRANCH   1  24
TORSDOF 7
