REMARK  Name = ZINC14275144
REMARK  8 active torsions:
REMARK  status: ('A' for Active; 'I' for Inactive)
REMARK    1  A    between atoms: C_1  and  C_2
REMARK    2  A    between atoms: C_4  and  C_31
REMARK    3  A    between atoms: C_9  and  C_11
REMARK    4  A    between atoms: C_13  and  N_18
REMARK    5  A    between atoms: C_16  and  O_17
REMARK    6  A    between atoms: N_18  and  C_19
REMARK    7  A    between atoms: C_19  and  N_21
REMARK    8  A    between atoms: C_22  and  C_24
REMARK                            x       y       z     vdW  Elec       q    Type
REMARK                         _______ _______ _______ _____ _____    ______ ____
ROOT
ATOM      1  C   UNL     1       1.280  -0.593  -0.424  0.00  0.00    +0.080 A 
ATOM      2  C   UNL     1       0.052   0.071  -0.403  0.00  0.00    +0.040 A 
ATOM      3  C   UNL     1      -0.010   1.393   0.003  0.00  0.00    +0.034 A 
ATOM      4  C   UNL     1       1.148   2.060   0.388  0.00  0.00    +0.027 A 
ATOM      5  C   UNL     1       2.366   1.409   0.370  0.00  0.00    +0.048 A 
ATOM      6  C   UNL     1       2.442   0.085  -0.034  0.00  0.00    +0.129 A 
ENDROOT
BRANCH   1  15
ATOM      7  C   UNL     1       0.201  -7.511  -2.755  0.00  0.00    +0.044 C 
ATOM      8  C   UNL     1       0.881  -6.261  -2.260  0.00  0.00    -0.048 A 
ATOM      9  C   UNL     1       2.253  -6.260  -2.050  0.00  0.00    +0.010 A 
ATOM     10  C   UNL     1       2.891  -5.124  -1.597  0.00  0.00    -0.006 A 
ATOM     11  C   UNL     1       2.159  -3.973  -1.348  0.00  0.00    +0.159 A 
ATOM     12  C   UNL     1       0.771  -3.969  -1.559  0.00  0.00    +0.110 A 
ATOM     13  C   UNL     1       0.138  -5.127  -2.018  0.00  0.00    +0.035 A 
ATOM     14  N   UNL     1       0.330  -2.726  -1.237  0.00  0.00    -0.209 NA
ATOM     15  C   UNL     1       1.353  -2.003  -0.854  0.00  0.00    +0.232 A 
ATOM     16  O   UNL     1       2.483  -2.733  -0.917  0.00  0.00    -0.435 OA
ATOM     17  C   UNL     1       4.381  -5.133  -1.373  0.00  0.00    +0.047 C 
ENDBRANCH   1  15
BRANCH   6  18
ATOM     18  O   UNL     1       3.640  -0.553  -0.052  0.00  0.00    -0.506 OA
ATOM     19  H   UNL     1       4.114  -0.476  -0.891  0.00  0.00    +0.292 HD
ENDBRANCH   6  18
BRANCH   3  20
ATOM     20  N   UNL     1      -1.240   2.063   0.019  0.00  0.00    -0.297 N 
ATOM     21  H   UNL     1      -1.845   1.984  -0.735  0.00  0.00    +0.154 HD
BRANCH  20  22
ATOM     22  C   UNL     1      -1.583   2.816   1.083  0.00  0.00    +0.141 C 
ATOM     23  S   UNL     1      -0.472   3.043   2.365  0.00  0.00    -0.018 S 
BRANCH  22  24
ATOM     24  N   UNL     1      -2.801   3.391   1.137  0.00  0.00    -0.264 N 
ATOM     25  C   UNL     1      -3.144   4.144   2.200  0.00  0.00    +0.250 C 
ATOM     26  O   UNL     1      -2.356   4.306   3.111  0.00  0.00    -0.270 OA
ATOM     27  H   UNL     1      -3.431   3.263   0.410  0.00  0.00    +0.157 HD
BRANCH  25  28
ATOM     28  C   UNL     1      -4.479   4.774   2.259  0.00  0.00    +0.037 A 
ATOM     29  C   UNL     1      -5.386   4.596   1.212  0.00  0.00    +0.014 A 
ATOM     30  C   UNL     1      -6.632   5.182   1.276  0.00  0.00    +0.016 A 
ATOM     31  C   UNL     1      -6.982   5.955   2.370  0.00  0.00    +0.018 A 
ATOM     32  C   UNL     1      -6.085   6.141   3.409  0.00  0.00    +0.016 A 
ATOM     33  C   UNL     1      -4.838   5.556   3.360  0.00  0.00    +0.014 A 
ATOM     34 BR   UNL     1      -8.691   6.761   2.446  0.00  0.00    -0.050 Br
ENDBRANCH  25  28
ENDBRANCH  22  24
ENDBRANCH  20  22
ENDBRANCH   3  20
TORSDOF 6
