REMARK  Name = ZINC38989933
REMARK  9 active torsions:
REMARK  status: ('A' for Active; 'I' for Inactive)
REMARK    1  A    between atoms: C_1  and  O_2
REMARK    2  A    between atoms: O_2  and  C_3
REMARK    3  A    between atoms: C_9  and  C_12
REMARK    4  A    between atoms: C_12  and  C_13
REMARK    5  A    between atoms: C_13  and  N_14
REMARK    6  A    between atoms: C_15  and  S_30
REMARK    7  A    between atoms: C_20  and  C_26
REMARK    8  A    between atoms: C_26  and  O_28
REMARK    9  A    between atoms: O_28  and  C_29
REMARK                            x       y       z     vdW  Elec       q    Type
REMARK                         _______ _______ _______ _____ _____    ______ ____
ROOT
ATOM      1  N   UNL     1      -0.765  -6.763  -1.437  0.00  0.00    -0.270 N 
ATOM      2  C   UNL     1      -0.544  -8.088  -2.017  0.00  0.00    +0.219 C 
ATOM      3  N   UNL     1      -1.608  -9.009  -1.602  0.00  0.00    -0.317 N 
ATOM      4  C   UNL     1      -2.024  -8.998  -0.274  0.00  0.00    +0.042 A 
ATOM      5  C   UNL     1      -2.535 -10.131   0.335  0.00  0.00    +0.038 A 
ATOM      6  C   UNL     1      -2.950 -10.069   1.665  0.00  0.00    +0.061 A 
ATOM      7  C   UNL     1      -2.851  -8.870   2.377  0.00  0.00    +0.016 A 
ATOM      8  C   UNL     1      -2.339  -7.742   1.775  0.00  0.00    +0.016 A 
ATOM      9  C   UNL     1      -1.917  -7.798   0.448  0.00  0.00    +0.058 A 
ATOM     10  C   UNL     1      -1.334  -6.619  -0.224  0.00  0.00    +0.250 C 
ATOM     11  O   UNL     1      -1.372  -5.527   0.310  0.00  0.00    -0.270 OA
ATOM     12  H   UNL     1      -2.014  -9.614  -2.242  0.00  0.00    +0.149 HD
ENDROOT
BRANCH   6  13
ATOM     13  C   UNL     1      -3.497 -11.276   2.324  0.00  0.00    +0.339 C 
ATOM     14  O   UNL     1      -3.585 -12.318   1.706  0.00  0.00    -0.245 OA
BRANCH  13  15
ATOM     15  O   UNL     1      -3.898 -11.218   3.608  0.00  0.00    -0.464 OA
ATOM     16  C   UNL     1      -4.416 -12.421   4.180  0.00  0.00    +0.280 C 
ENDBRANCH  13  15
ENDBRANCH   6  13
BRANCH   2  17
ATOM     17  S   UNL     1       1.055  -8.732  -1.451  0.00  0.00    -0.137 S 
ATOM     18  H   UNL     1       1.147  -9.938  -2.041  0.00  0.00    +0.105 HD
ENDBRANCH   2  17
BRANCH   1  19
ATOM     19  C   UNL     1      -0.354  -5.573  -2.186  0.00  0.00    +0.115 C 
BRANCH  19  20
ATOM     20  C   UNL     1       1.091  -5.218  -1.828  0.00  0.00    +0.056 C 
BRANCH  20  27
ATOM     21  C   UNL     1       0.606  -0.608  -1.056  0.00  0.00    +0.121 A 
ATOM     22  C   UNL     1       1.169   0.167  -2.067  0.00  0.00    +0.047 A 
ATOM     23  C   UNL     1       1.785  -0.428  -3.146  0.00  0.00    +0.030 A 
ATOM     24  C   UNL     1       1.849  -1.815  -3.233  0.00  0.00    +0.047 A 
ATOM     25  N   UNL     1       2.383  -2.682  -4.162  0.00  0.00    -0.360 N 
ATOM     26  C   UNL     1       2.173  -3.974  -3.767  0.00  0.00    +0.087 A 
ATOM     27  C   UNL     1       1.513  -3.994  -2.598  0.00  0.00    -0.021 A 
ATOM     28  C   UNL     1       1.281  -2.599  -2.213  0.00  0.00    +0.006 A 
ATOM     29  C   UNL     1       0.664  -1.986  -1.121  0.00  0.00    +0.056 A 
ATOM     30  H   UNL     1       2.839  -2.415  -4.976  0.00  0.00    +0.165 HD
BRANCH  21  32
ATOM     31  C   UNL     1      -0.017   1.425   0.010  0.00  0.00    +0.277 C 
ATOM     32  O   UNL     1       0.002  -0.004   0.002  0.00  0.00    -0.495 OA
ENDBRANCH  21  32
ENDBRANCH  20  27
ENDBRANCH  19  20
ENDBRANCH   1  19
TORSDOF 7
