REMARK  Name = ZINC02191781
REMARK  13 active torsions:
REMARK  status: ('A' for Active; 'I' for Inactive)
REMARK    1  A    between atoms: C_1  and  C_2
REMARK    2  A    between atoms: C_2  and  C_3
REMARK    3  A    between atoms: C_2  and  C_4
REMARK    4  A    between atoms: C_2  and  C_5
REMARK    5  A    between atoms: C_12  and  N_16
REMARK    6  A    between atoms: C_13  and  C_14
REMARK    7  A    between atoms: N_16  and  C_17
REMARK    8  A    between atoms: C_17  and  C_18
REMARK    9  A    between atoms: C_17  and  C_22
REMARK   10  A    between atoms: C_17  and  N_26
REMARK   11  A    between atoms: C_18  and  O_20
REMARK   12  A    between atoms: O_20  and  C_21
REMARK   13  A    between atoms: C_27  and  C_29
REMARK                            x       y       z     vdW  Elec       q    Type
REMARK                         _______ _______ _______ _____ _____    ______ ____
ROOT
ATOM      1  C   UNL     1       2.746  -3.391  -4.617  0.00  0.00    +0.296 C 
ENDROOT
BRANCH   1   2
ATOM      2  C   UNL     1       2.156  -2.461  -5.679  0.00  0.00    +0.438 C 
ATOM      3  F   UNL     1       2.327  -1.131  -5.282  0.00  0.00    -0.166 F 
ATOM      4  F   UNL     1       2.811  -2.671  -6.898  0.00  0.00    -0.166 F 
ATOM      5  F   UNL     1       0.792  -2.732  -5.830  0.00  0.00    -0.166 F 
ENDBRANCH   1   2
BRANCH   1   6
ATOM      6  N   UNL     1       2.706  -4.773  -5.101  0.00  0.00    -0.274 N 
ATOM      7  C   UNL     1       3.422  -5.128  -6.186  0.00  0.00    +0.246 C 
ATOM      8  O   UNL     1       4.165  -4.323  -6.714  0.00  0.00    -0.270 OA
ATOM      9  H   UNL     1       2.165  -5.433  -4.640  0.00  0.00    +0.152 HD
BRANCH   7  10
ATOM     10  C   UNL     1       3.303  -6.495  -6.736  0.00  0.00    +0.037 A 
ATOM     11  C   UNL     1       2.455  -7.423  -6.129  0.00  0.00    +0.013 A 
ATOM     12  C   UNL     1       2.346  -8.696  -6.649  0.00  0.00    +0.001 A 
ATOM     13  C   UNL     1       3.082  -9.057  -7.764  0.00  0.00    +0.000 A 
ATOM     14  C   UNL     1       3.928  -8.143  -8.367  0.00  0.00    +0.001 A 
ATOM     15  C   UNL     1       4.043  -6.865  -7.860  0.00  0.00    +0.013 A 
ENDBRANCH   7  10
ENDBRANCH   1   6
BRANCH   1  16
ATOM     16  N   UNL     1       1.962  -3.283  -3.384  0.00  0.00    -0.301 N 
ATOM     17  H   UNL     1       1.544  -4.071  -3.004  0.00  0.00    +0.149 HD
BRANCH  16  24
ATOM     18  C   UNL     1       1.562   2.276  -0.257  0.00  0.00    -0.000 C 
ATOM     19  C   UNL     1       0.157   1.687  -0.110  0.00  0.00    +0.009 C 
ATOM     20  C   UNL     1       0.238   0.162  -0.025  0.00  0.00    +0.037 C 
ATOM     21  C   UNL     1       1.052  -0.352  -1.206  0.00  0.00    -0.018 A 
ATOM     22  C   UNL     1       1.866   0.472  -1.901  0.00  0.00    -0.004 A 
ATOM     23  S   UNL     1       2.586  -0.552  -3.153  0.00  0.00    -0.077 S 
ATOM     24  C   UNL     1       1.818  -2.055  -2.761  0.00  0.00    +0.086 A 
ATOM     25  C   UNL     1       1.023  -1.729  -1.671  0.00  0.00    +0.083 A 
ATOM     26  C   UNL     1       2.099   1.931  -1.654  0.00  0.00    +0.047 C 
BRANCH  18  28
ATOM     27  C   UNL     1       0.949   4.137   1.293  0.00  0.00    +0.011 C 
ATOM     28  C   UNL     1       1.502   3.796  -0.093  0.00  0.00    -0.035 C 
ATOM     29  C   UNL     1       2.907   4.382  -0.240  0.00  0.00    +0.011 C 
ATOM     30  C   UNL     1       0.587   4.388  -1.167  0.00  0.00    +0.011 C 
ENDBRANCH  18  28
BRANCH  25  31
ATOM     31  C   UNL     1       0.204  -2.712  -1.028  0.00  0.00    +0.102 C 
ATOM     32  N   UNL     1      -0.446  -3.493  -0.519  0.00  0.00    -0.191 NA
ENDBRANCH  25  31
ENDBRANCH  16  24
ENDBRANCH   1  16
BRANCH   1  33
ATOM     33  C   UNL     1       4.174  -2.996  -4.340  0.00  0.00    +0.359 C 
ATOM     34  O   UNL     1       5.081  -3.667  -4.773  0.00  0.00    -0.246 OA
BRANCH  33  35
ATOM     35  O   UNL     1       4.438  -1.899  -3.614  0.00  0.00    -0.465 OA
ATOM     36  C   UNL     1       5.836  -1.579  -3.387  0.00  0.00    +0.280 C 
ENDBRANCH  33  35
ENDBRANCH   1  33
TORSDOF 9
