REMARK  Name = ZINC63282054
REMARK  11 active torsions:
REMARK  status: ('A' for Active; 'I' for Inactive)
REMARK    1  A    between atoms: C_1  and  O_2
REMARK    2  A    between atoms: O_2  and  C_3
REMARK    3  A    between atoms: C_5  and  C_13
REMARK    4  A    between atoms: C_7  and  O_11
REMARK    5  A    between atoms: C_8  and  O_9
REMARK    6  A    between atoms: O_9  and  C_10
REMARK    7  A    between atoms: O_11  and  C_12
REMARK    8  A    between atoms: C_19  and  C_20
REMARK    9  A    between atoms: N_22  and  C_23
REMARK   10  A    between atoms: C_23  and  C_24
REMARK   11  A    between atoms: C_24  and  C_25
REMARK                            x       y       z     vdW  Elec       q    Type
REMARK                         _______ _______ _______ _____ _____    ______ ____
ROOT
ATOM      1  C   UNL     1       2.640   0.557  -4.232  0.00  0.00    +0.160 C 
ATOM      2  N   UNL     1       3.684  -0.166  -4.982  0.00  0.00    -0.331 N 
ATOM      3  C   UNL     1       3.373  -0.677  -6.191  0.00  0.00    +0.020 C 
ATOM      4  C   UNL     1       2.191  -0.020  -6.895  0.00  0.00    +0.121 C 
ATOM      5  S   UNL     1       1.233   0.562  -5.422  0.00  0.00    -0.128 S 
ATOM      6  C   UNL     1       4.061  -1.699  -6.739  0.00  0.00    +0.086 C 
ATOM      7  H   UNL     1       4.576  -0.271  -4.614  0.00  0.00    +0.147 HD
ENDROOT
BRANCH   1  10
ATOM      8  C   UNL     1       1.446  -0.165  -0.720  0.00  0.00    +0.166 A 
ATOM      9  C   UNL     1       1.784   0.512  -1.882  0.00  0.00    +0.056 A 
ATOM     10  C   UNL     1       2.274  -0.183  -2.972  0.00  0.00    -0.010 A 
ATOM     11  C   UNL     1       2.429  -1.555  -2.908  0.00  0.00    +0.056 A 
ATOM     12  C   UNL     1       2.094  -2.240  -1.750  0.00  0.00    +0.166 A 
ATOM     13  C   UNL     1       1.606  -1.544  -0.650  0.00  0.00    +0.204 A 
BRANCH   8  15
ATOM     14  C   UNL     1       0.826   1.935   0.209  0.00  0.00    +0.277 C 
ATOM     15  O   UNL     1       0.964   0.519   0.352  0.00  0.00    -0.491 OA
ENDBRANCH   8  15
BRANCH  13  16
ATOM     16  O   UNL     1       1.281  -2.212   0.490  0.00  0.00    -0.488 OA
ATOM     17  C   UNL     1      -0.061  -2.690   0.602  0.00  0.00    +0.277 C 
ENDBRANCH  13  16
BRANCH  12  18
ATOM     18  O   UNL     1       2.247  -3.590  -1.689  0.00  0.00    -0.491 OA
ATOM     19  C   UNL     1       2.758  -4.238  -2.855  0.00  0.00    +0.277 C 
ENDBRANCH  12  18
ENDBRANCH   1  10
BRANCH   6  20
ATOM     20  C   UNL     1       5.058  -2.365  -5.989  0.00  0.00    +0.238 C 
ATOM     21  O   UNL     1       5.222  -2.087  -4.814  0.00  0.00    -0.271 OA
ATOM     22  N   UNL     1       5.825  -3.307  -6.572  0.00  0.00    -0.311 N 
ATOM     23  H   UNL     1       5.693  -3.528  -7.508  0.00  0.00    +0.149 HD
BRANCH  22  24
ATOM     24  C   UNL     1       6.857  -3.996  -5.795  0.00  0.00    +0.109 C 
BRANCH  24  25
ATOM     25  C   UNL     1       7.578  -5.008  -6.687  0.00  0.00    +0.052 C 
BRANCH  25  26
ATOM     26  C   UNL     1       8.640  -5.717  -5.887  0.00  0.00    -0.040 C 
ATOM     27  C   UNL     1       8.523  -6.908  -5.257  0.00  0.00    +0.002 A 
ATOM     28  C   UNL     1       7.415  -7.862  -5.132  0.00  0.00    +0.048 A 
ATOM     29  C   UNL     1       7.604  -8.998  -4.418  0.00  0.00    +0.124 A 
ATOM     30  C   UNL     1       8.830  -9.283  -3.797  0.00  0.00    +0.040 A 
ATOM     31  C   UNL     1       9.892  -8.454  -3.867  0.00  0.00    +0.029 A 
ATOM     32  C   UNL     1       9.806  -7.233  -4.592  0.00  0.00    +0.043 A 
ATOM     33  N   UNL     1      10.680  -6.280  -4.803  0.00  0.00    -0.380 N 
ATOM     34  C   UNL     1      10.053  -5.244  -5.632  0.00  0.00    +0.144 C 
ATOM     35  F   UNL     1       6.586  -9.878  -4.301  0.00  0.00    -0.205 F 
ATOM     36  H   UNL     1      11.591  -6.263  -4.469  0.00  0.00    +0.160 HD
ENDBRANCH  25  26
ENDBRANCH  24  25
ENDBRANCH  22  24
ENDBRANCH   6  20
TORSDOF 8
