REMARK  Name = ZINC61886396
REMARK  4 active torsions:
REMARK  status: ('A' for Active; 'I' for Inactive)
REMARK    1  A    between atoms: C_3  and  C_9
REMARK    2  A    between atoms: N_11  and  C_12
REMARK    3  A    between atoms: C_17  and  C_19
REMARK    4  A    between atoms: N_20  and  O_21
REMARK                            x       y       z     vdW  Elec       q    Type
REMARK                         _______ _______ _______ _____ _____    ______ ____
ROOT
ATOM      1  C   UNL     1       3.441   2.274  -0.264  0.00  0.00    +0.247 C 
ATOM      2  O   UNL     1       4.462   1.614  -0.235  0.00  0.00    -0.270 OA
ATOM      3  N   UNL     1       3.509   3.620  -0.260  0.00  0.00    -0.308 N 
ATOM      4  H   UNL     1       2.696   4.147  -0.210  0.00  0.00    +0.149 HD
ENDROOT
BRANCH   1   7
ATOM      5  C   UNL     1      -0.271   1.718  -0.264  0.00  0.00    +0.016 A 
ATOM      6  C   UNL     1       0.953   2.352  -0.225  0.00  0.00    +0.017 A 
ATOM      7  C   UNL     1       2.127   1.601  -0.304  0.00  0.00    +0.072 A 
ATOM      8  C   UNL     1       2.054   0.209  -0.422  0.00  0.00    +0.137 A 
ATOM      9  C   UNL     1       0.820  -0.412  -0.460  0.00  0.00    +0.054 A 
ATOM     10  C   UNL     1      -0.339   0.340  -0.381  0.00  0.00    +0.021 A 
ATOM     11 BR   UNL     1      -2.023  -0.519  -0.432  0.00  0.00    -0.050 Br
ATOM     12  F   UNL     1       3.185  -0.525  -0.500  0.00  0.00    -0.205 F 
ENDBRANCH   1   7
BRANCH   3  13
ATOM     13  C   UNL     1       4.811   4.288  -0.330  0.00  0.00    +0.083 C 
ATOM     14  C   UNL     1       5.178   4.576  -1.796  0.00  0.00    +0.023 C 
ATOM     15  C   UNL     1       5.320   6.107  -1.923  0.00  0.00    +0.003 C 
ATOM     16  C   UNL     1       4.467   6.665  -0.757  0.00  0.00    +0.013 C 
ATOM     17  C   UNL     1       4.744   5.653   0.385  0.00  0.00    +0.076 C 
BRANCH  17  18
ATOM     18  C   UNL     1       3.620   5.668   1.388  0.00  0.00    +0.136 C 
ATOM     19  N   UNL     1       3.857   5.395   2.628  0.00  0.00    -0.076 NA
ATOM     20  N   UNL     1       2.340   5.974   0.984  0.00  0.00    -0.344 N 
ATOM     21  H   UNL     1       2.162   6.180   0.053  0.00  0.00    +0.144 HD
ATOM     22  H   UNL     1       1.616   5.984   1.630  0.00  0.00    +0.144 HD
BRANCH  19  23
ATOM     23  O   UNL     1       5.188   5.186   3.065  0.00  0.00    -0.408 OA
ATOM     24  H   UNL     1       5.260   4.912   3.990  0.00  0.00    +0.328 HD
ENDBRANCH  19  23
ENDBRANCH  17  18
ENDBRANCH   3  13
TORSDOF 4
