REMARK  Name = ZINC08818832
REMARK  8 active torsions:
REMARK  status: ('A' for Active; 'I' for Inactive)
REMARK    1  A    between atoms: C_1  and  C_2
REMARK    2  A    between atoms: C_5  and  C_8
REMARK    3  A    between atoms: N_10  and  C_11
REMARK    4  A    between atoms: C_11  and  C_26
REMARK    5  A    between atoms: C_12  and  C_13
REMARK    6  A    between atoms: C_16  and  C_18
REMARK    7  A    between atoms: N_28  and  C_29
REMARK    8  A    between atoms: C_29  and  C_30
REMARK                            x       y       z     vdW  Elec       q    Type
REMARK                         _______ _______ _______ _____ _____    ______ ____
ROOT
ATOM      1  C   UNL     1      -2.280   4.346   5.377  0.00  0.00    +0.100 C 
ATOM      2  C   UNL     1      -0.987   4.330   5.802  0.00  0.00    +0.074 C 
ENDROOT
BRANCH   2   3
ATOM      3  C   UNL     1      -0.676   4.689   7.134  0.00  0.00    +0.131 A 
ATOM      4  C   UNL     1       0.594   4.827   7.662  0.00  0.00    +0.050 A 
ATOM      5  C   UNL     1       0.435   5.194   9.002  0.00  0.00    +0.050 A 
ATOM      6  C   UNL     1      -0.908   5.257   9.246  0.00  0.00    +0.136 A 
ATOM      7  O   UNL     1      -1.567   4.951   8.113  0.00  0.00    -0.455 OA
BRANCH   6   8
ATOM      8  C   UNL     1      -1.532   5.603  10.537  0.00  0.00    +0.019 A 
ATOM      9  C   UNL     1      -0.739   6.009  11.614  0.00  0.00    +0.013 A 
ATOM     10  C   UNL     1      -1.328   6.336  12.816  0.00  0.00    +0.022 A 
ATOM     11  C   UNL     1      -2.703   6.252  12.963  0.00  0.00    +0.059 A 
ATOM     12  C   UNL     1      -3.496   5.845  11.902  0.00  0.00    +0.060 A 
ATOM     13  C   UNL     1      -2.918   5.520  10.691  0.00  0.00    +0.033 A 
ATOM     14 CL   UNL     1      -5.218   5.742  12.095  0.00  0.00    -0.082 Cl
ATOM     15 CL   UNL     1      -3.437   6.660  14.483  0.00  0.00    -0.082 Cl
ENDBRANCH   6   8
ENDBRANCH   2   3
BRANCH   1  18
ATOM     16  C   UNL     1      -4.313   4.042   6.574  0.00  0.00    +0.248 C 
ATOM     17  O   UNL     1      -4.404   2.921   6.111  0.00  0.00    -0.270 OA
ATOM     18  N   UNL     1      -3.286   4.837   6.216  0.00  0.00    -0.277 N 
ATOM     19  H   UNL     1      -3.244   5.750   6.540  0.00  0.00    +0.155 HD
BRANCH  16  24
ATOM     20  C   UNL     1      -8.271   5.948  10.290  0.00  0.00    +0.044 C 
ATOM     21  C   UNL     1      -7.235   5.449   9.317  0.00  0.00    -0.050 A 
ATOM     22  C   UNL     1      -7.274   4.136   8.883  0.00  0.00    +0.004 A 
ATOM     23  C   UNL     1      -6.328   3.672   7.992  0.00  0.00    +0.013 A 
ATOM     24  C   UNL     1      -5.330   4.531   7.528  0.00  0.00    +0.037 A 
ATOM     25  C   UNL     1      -5.293   5.854   7.975  0.00  0.00    +0.013 A 
ATOM     26  C   UNL     1      -6.248   6.306   8.861  0.00  0.00    +0.004 A 
ENDBRANCH  16  24
ENDBRANCH   1  18
BRANCH   1  27
ATOM     27  C   UNL     1      -2.618   3.849   4.041  0.00  0.00    +0.258 C 
ATOM     28  O   UNL     1      -3.782   3.786   3.692  0.00  0.00    -0.269 OA
ATOM     29  N   UNL     1      -1.639   3.463   3.199  0.00  0.00    -0.308 N 
ATOM     30  H   UNL     1      -0.711   3.513   3.477  0.00  0.00    +0.149 HD
BRANCH  29  31
ATOM     31  C   UNL     1      -1.977   2.966   1.863  0.00  0.00    +0.136 C 
BRANCH  31  32
ATOM     32  C   UNL     1      -0.694   2.598   1.116  0.00  0.00    +0.135 C 
ATOM     33  C   UNL     1      -1.011   2.187  -0.345  0.00  0.00    +0.035 C 
ATOM     34  C   UNL     1       0.198   1.288  -0.699  0.00  0.00    +0.031 C 
ATOM     35  C   UNL     1       0.754   0.846   0.669  0.00  0.00    +0.160 C 
ATOM     36  O   UNL     1      -0.099   1.408   1.681  0.00  0.00    -0.375 OA
ENDBRANCH  31  32
ENDBRANCH  29  31
ENDBRANCH   1  27
TORSDOF 7
