REMARK  Name = ZINC23537003
REMARK  9 active torsions:
REMARK  status: ('A' for Active; 'I' for Inactive)
REMARK    1  A    between atoms: C_1  and  C_2
REMARK    2  A    between atoms: C_2  and  C_3
REMARK    3  A    between atoms: C_3  and  N_4
REMARK    4  A    between atoms: C_8  and  C_10
REMARK    5  A    between atoms: C_10  and  S_11
REMARK    6  A    between atoms: S_11  and  C_12
REMARK    7  A    between atoms: N_24  and  C_25
REMARK    8  A    between atoms: C_28  and  C_32
REMARK    9  A    between atoms: C_30  and  C_31
REMARK                            x       y       z     vdW  Elec       q    Type
REMARK                         _______ _______ _______ _____ _____    ______ ____
ROOT
ATOM      1  C   UNL     1      -0.255   2.233  -5.334  0.00  0.00    +0.178 A 
ATOM      2  N   UNL     1      -1.385   2.525  -4.722  0.00  0.00    -0.215 NA
ATOM      3  C   UNL     1      -1.524   2.317  -3.417  0.00  0.00    +0.117 A 
ATOM      4  C   UNL     1      -0.491   1.785  -2.633  0.00  0.00    +0.076 A 
ATOM      5  C   UNL     1      -0.791   1.612  -1.202  0.00  0.00    -0.023 A 
ATOM      6  C   UNL     1      -2.014   1.979  -0.789  0.00  0.00    -0.004 A 
ATOM      7  S   UNL     1      -2.837   2.567  -2.252  0.00  0.00    -0.073 S 
ATOM      8  C   UNL     1      -2.206   1.760   0.688  0.00  0.00    +0.043 C 
ATOM      9  C   UNL     1      -0.772   1.602   1.246  0.00  0.00    +0.010 C 
ATOM     10  C   UNL     1      -0.013   1.086   0.008  0.00  0.00    +0.037 C 
ATOM     11  C   UNL     1       0.725   1.478  -3.320  0.00  0.00    +0.268 A 
ATOM     12  O   UNL     1       1.677   1.012  -2.716  0.00  0.00    -0.267 OA
ATOM     13  N   UNL     1       0.803   1.711  -4.644  0.00  0.00    -0.255 N 
ENDROOT
BRANCH  13  14
ATOM     14  C   UNL     1       1.990   1.413  -5.326  0.00  0.00    +0.055 A 
ATOM     15  C   UNL     1       2.175   0.155  -5.884  0.00  0.00    +0.027 A 
ATOM     16  C   UNL     1       3.346  -0.135  -6.556  0.00  0.00    +0.005 A 
ATOM     17  C   UNL     1       4.334   0.826  -6.674  0.00  0.00    -0.050 A 
ATOM     18  C   UNL     1       4.152   2.079  -6.119  0.00  0.00    +0.008 A 
ATOM     19  C   UNL     1       2.982   2.377  -5.450  0.00  0.00    -0.026 A 
ATOM     20  C   UNL     1       2.783   3.745  -4.851  0.00  0.00    +0.046 C 
ATOM     21  C   UNL     1       5.610   0.505  -7.408  0.00  0.00    +0.044 C 
ENDBRANCH  13  14
BRANCH   1  22
ATOM     22  S   UNL     1      -0.105   2.521  -7.066  0.00  0.00    -0.078 S 
BRANCH  22  23
ATOM     23  C   UNL     1      -1.750   3.189  -7.417  0.00  0.00    +0.173 C 
BRANCH  23  28
ATOM     24  N   UNL     1      -4.238   4.840 -11.185  0.00  0.00    -0.299 N 
ATOM     25  C   UNL     1      -3.094   4.326 -10.690  0.00  0.00    +0.306 C 
ATOM     26  O   UNL     1      -2.149   4.127 -11.428  0.00  0.00    -0.252 OA
ATOM     27  N   UNL     1      -2.999   4.032  -9.378  0.00  0.00    -0.240 N 
ATOM     28  C   UNL     1      -1.856   3.518  -8.884  0.00  0.00    +0.231 C 
ATOM     29  O   UNL     1      -0.913   3.320  -9.619  0.00  0.00    -0.274 OA
ATOM     30  H   UNL     1      -5.093   5.020 -10.518  0.00  0.00    +0.150 HD
ATOM     31  H   UNL     1      -3.855   4.212  -8.711  0.00  0.00    +0.159 HD
BRANCH  24  32
ATOM     32  C   UNL     1      -4.341   5.160 -12.611  0.00  0.00    +0.105 C 
BRANCH  32  34
ATOM     33  C   UNL     1      -5.839   6.058 -14.397  0.00  0.00    +0.005 C 
ATOM     34  C   UNL     1      -5.731   5.725 -12.908  0.00  0.00    +0.015 C 
ENDBRANCH  32  34
ENDBRANCH  24  32
ENDBRANCH  23  28
ENDBRANCH  22  23
ENDBRANCH   1  22
TORSDOF 6
