REMARK  Name = ZINC16840864
REMARK  6 active torsions:
REMARK  status: ('A' for Active; 'I' for Inactive)
REMARK    1  A    between atoms: C_1  and  N_2
REMARK    2  A    between atoms: C_7  and  C_11
REMARK    3  A    between atoms: C_18  and  S_19
REMARK    4  A    between atoms: S_19  and  C_20
REMARK    5  A    between atoms: C_20  and  C_21
REMARK    6  A    between atoms: N_23  and  C_24
REMARK                            x       y       z     vdW  Elec       q    Type
REMARK                         _______ _______ _______ _____ _____    ______ ____
ROOT
ATOM      1  C   UNL     1       2.421   1.218  -0.018  0.00  0.00    +0.154 C 
ATOM      2  N   UNL     1       1.136   1.922  -0.011  0.00  0.00    -0.289 N 
ATOM      3  C   UNL     1      -0.015   1.216  -0.013  0.00  0.00    +0.278 A 
ATOM      4  O   UNL     1       0.001  -0.004  -0.019  0.00  0.00    -0.265 OA
ATOM      5  C   UNL     1      -1.236   1.919  -0.013  0.00  0.00    +0.131 A 
ATOM      6  C   UNL     1      -1.200   3.318   0.001  0.00  0.00    +0.104 A 
ATOM      7  C   UNL     1      -2.597   3.756   0.007  0.00  0.00    +0.026 A 
ATOM      8  C   UNL     1      -3.362   2.630   0.003  0.00  0.00    +0.093 A 
ATOM      9  N   UNL     1      -2.560   1.535  -0.005  0.00  0.00    -0.355 N 
ATOM     10  H   UNL     1      -2.872   0.616  -0.010  0.00  0.00    +0.166 HD
ATOM     11  N   UNL     1      -0.018   3.957   0.002  0.00  0.00    -0.221 NA
ATOM     12  C   UNL     1       1.112   3.287  -0.004  0.00  0.00    +0.172 A 
ENDROOT
BRANCH   7  13
ATOM     13  C   UNL     1      -3.085   5.156   0.017  0.00  0.00    -0.014 A 
ATOM     14  C   UNL     1      -2.585   6.065   0.949  0.00  0.00    +0.008 A 
ATOM     15  C   UNL     1      -3.039   7.368   0.949  0.00  0.00    +0.001 A 
ATOM     16  C   UNL     1      -3.996   7.771   0.036  0.00  0.00    +0.000 A 
ATOM     17  C   UNL     1      -4.500   6.872  -0.888  0.00  0.00    +0.001 A 
ATOM     18  C   UNL     1      -4.049   5.568  -0.902  0.00  0.00    +0.008 A 
ENDBRANCH   7  13
BRANCH  12  19
ATOM     19  S   UNL     1       2.635   4.173  -0.003  0.00  0.00    -0.078 S 
BRANCH  19  20
ATOM     20  C   UNL     1       2.010   5.872   0.008  0.00  0.00    +0.173 C 
BRANCH  20  21
ATOM     21  C   UNL     1       3.171   6.833   0.010  0.00  0.00    +0.227 C 
ATOM     22  O   UNL     1       4.308   6.411   0.006  0.00  0.00    -0.275 OA
ATOM     23  N   UNL     1       2.945   8.162   0.018  0.00  0.00    -0.285 N 
ATOM     24  H   UNL     1       2.038   8.500  -0.046  0.00  0.00    +0.155 HD
BRANCH  23  25
ATOM     25  C   UNL     1       4.019   9.054   0.118  0.00  0.00    +0.033 A 
ATOM     26  C   UNL     1       3.872  10.244   0.818  0.00  0.00    +0.024 A 
ATOM     27  C   UNL     1       4.934  11.120   0.919  0.00  0.00    +0.017 A 
ATOM     28  C   UNL     1       6.142  10.817   0.316  0.00  0.00    +0.018 A 
ATOM     29  C   UNL     1       6.290   9.634  -0.386  0.00  0.00    +0.017 A 
ATOM     30  C   UNL     1       5.232   8.752  -0.486  0.00  0.00    +0.024 A 
ATOM     31 BR   UNL     1       7.593  12.022   0.452  0.00  0.00    -0.050 Br
ENDBRANCH  23  25
ENDBRANCH  20  21
ENDBRANCH  19  20
ENDBRANCH  12  19
TORSDOF 5
