REMARK  Name = ZINC15023960
REMARK  5 active torsions:
REMARK  status: ('A' for Active; 'I' for Inactive)
REMARK    1  A    between atoms: C_6  and  C_7
REMARK    2  A    between atoms: C_7  and  C_9
REMARK    3  A    between atoms: C_11  and  C_31
REMARK    4  A    between atoms: C_13  and  C_26
REMARK    5  A    between atoms: C_13  and  C_28
REMARK                            x       y       z     vdW  Elec       q    Type
REMARK                         _______ _______ _______ _____ _____    ______ ____
ROOT
ATOM      1  C   UNL     1      -2.159  -2.801  -1.088  0.00  0.00    +0.155 C 
ATOM      2  C   UNL     1      -1.032  -2.299  -0.150  0.00  0.00    +0.078 C 
ATOM      3  C   UNL     1      -1.293  -0.775   0.010  0.00  0.00    +0.163 C 
ATOM      4  C   UNL     1      -2.128  -0.460  -1.242  0.00  0.00    +0.127 C 
ATOM      5  N   UNL     1      -3.017  -1.647  -1.331  0.00  0.00    -0.310 N 
ATOM      6  C   UNL     1      -3.790  -1.576  -2.463  0.00  0.00    +0.038 A 
ATOM      7  C   UNL     1      -4.028  -2.663  -3.281  0.00  0.00    +0.026 A 
ATOM      8  C   UNL     1      -4.791  -2.511  -4.426  0.00  0.00    +0.040 A 
ATOM      9  C   UNL     1      -5.320  -1.274  -4.759  0.00  0.00    +0.124 A 
ATOM     10  C   UNL     1      -5.094  -0.175  -3.949  0.00  0.00    +0.048 A 
ATOM     11  C   UNL     1      -4.332  -0.316  -2.797  0.00  0.00    -0.001 A 
ATOM     12  C   UNL     1      -4.068   0.830  -1.896  0.00  0.00    +0.007 C 
ATOM     13  C   UNL     1      -2.974   0.772  -1.116  0.00  0.00    -0.002 C 
ATOM     14  F   UNL     1      -6.061  -1.140  -5.881  0.00  0.00    -0.205 F 
ENDROOT
BRANCH   2  15
ATOM     15  C   UNL     1      -1.117  -2.989   1.187  0.00  0.00    -0.037 A 
ATOM     16  C   UNL     1      -2.283  -2.944   1.936  0.00  0.00    +0.024 A 
ATOM     17  C   UNL     1      -2.325  -3.592   3.156  0.00  0.00    +0.111 A 
ATOM     18  N   UNL     1      -1.271  -4.239   3.613  0.00  0.00    -0.263 NA
ATOM     19  C   UNL     1      -0.144  -4.298   2.930  0.00  0.00    +0.111 A 
ATOM     20  C   UNL     1      -0.029  -3.678   1.701  0.00  0.00    +0.024 A 
ENDBRANCH   2  15
BRANCH   3  21
ATOM     21  C   UNL     1       0.002  -0.004   0.002  0.00  0.00    +0.233 C 
ATOM     22  O   UNL     1       1.060  -0.596  -0.011  0.00  0.00    -0.274 OA
ATOM     23  N   UNL     1      -0.016   1.344   0.009  0.00  0.00    -0.328 N 
ATOM     24  H   UNL     1       0.817   1.840   0.004  0.00  0.00    +0.145 HD
ATOM     25  H   UNL     1      -0.863   1.817   0.016  0.00  0.00    +0.145 HD
ENDBRANCH   3  21
BRANCH   1  26
ATOM     26  C   UNL     1      -1.573  -3.296  -2.385  0.00  0.00    +0.184 C 
ATOM     27  O   UNL     1      -1.558  -2.573  -3.359  0.00  0.00    -0.290 OA
BRANCH  26  33
ATOM     28  C   UNL     1      -1.031  -5.492  -1.349  0.00  0.00    +0.013 A 
ATOM     29  C   UNL     1      -0.515  -6.767  -1.438  0.00  0.00    +0.020 A 
ATOM     30  C   UNL     1       0.022  -7.218  -2.632  0.00  0.00    +0.041 A 
ATOM     31  C   UNL     1       0.041  -6.395  -3.747  0.00  0.00    +0.020 A 
ATOM     32  C   UNL     1      -0.476  -5.120  -3.674  0.00  0.00    +0.013 A 
ATOM     33  C   UNL     1      -1.020  -4.657  -2.471  0.00  0.00    +0.019 A 
ATOM     34 CL   UNL     1       0.676  -8.823  -2.733  0.00  0.00    -0.084 Cl
ENDBRANCH  26  33
ENDBRANCH   1  26
BRANCH   3  35
ATOM     35  C   UNL     1      -2.059  -0.498   1.236  0.00  0.00    +0.082 C 
ATOM     36  N   UNL     1      -2.650  -0.285   2.183  0.00  0.00    -0.195 NA
ENDBRANCH   3  35
TORSDOF 5
