REMARK  Name = ZINC21246506
REMARK  10 active torsions:
REMARK  status: ('A' for Active; 'I' for Inactive)
REMARK    1  A    between atoms: C_1  and  C_2
REMARK    2  A    between atoms: C_2  and  C_3
REMARK    3  A    between atoms: C_3  and  C_4
REMARK    4  A    between atoms: C_4  and  O_5
REMARK    5  A    between atoms: O_5  and  C_6
REMARK    6  A    between atoms: C_11  and  C_12
REMARK    7  A    between atoms: C_17  and  C_22
REMARK    8  A    between atoms: C_25  and  O_28
REMARK    9  A    between atoms: O_28  and  C_29
REMARK   10  A    between atoms: C_29  and  C_30
REMARK                            x       y       z     vdW  Elec       q    Type
REMARK                         _______ _______ _______ _____ _____    ______ ____
ROOT
ATOM      1  C   UNL     1       1.119 -10.347   1.464  0.00  0.00    +0.139 C 
ATOM      2  C   UNL     1       0.816  -8.868   1.434  0.00  0.00    +0.037 C 
ATOM      3  C   UNL     1      -0.220  -8.262   2.038  0.00  0.00    +0.017 C 
ATOM      4  C   UNL     1      -0.417  -6.761   1.903  0.00  0.00    +0.059 C 
ATOM      5  C   UNL     1       0.940  -6.066   1.807  0.00  0.00    +0.032 C 
ATOM      6  C   UNL     1       1.660  -6.617   0.571  0.00  0.00    +0.088 C 
ATOM      7  C   UNL     1       1.754  -8.108   0.696  0.00  0.00    +0.163 C 
ATOM      8  O   UNL     1       2.670  -8.685   0.143  0.00  0.00    -0.292 OA
ATOM      9  N   UNL     1      -1.156  -8.892   2.792  0.00  0.00    -0.316 N 
ATOM     10  C   UNL     1      -1.809 -10.064   2.428  0.00  0.00    +0.052 A 
ATOM     11  C   UNL     1      -3.173 -10.109   2.196  0.00  0.00    +0.025 A 
ATOM     12  C   UNL     1      -3.768 -11.318   1.880  0.00  0.00    +0.002 A 
ATOM     13  C   UNL     1      -3.008 -12.471   1.802  0.00  0.00    +0.002 A 
ATOM     14  C   UNL     1      -1.641 -12.424   2.018  0.00  0.00    +0.025 A 
ATOM     15  C   UNL     1      -1.039 -11.211   2.312  0.00  0.00    +0.049 A 
ATOM     16  N   UNL     1       0.345 -11.097   2.431  0.00  0.00    -0.331 N 
ATOM     17  H   UNL     1      -1.446  -8.477   3.768  0.00  0.00    +0.152 HD
ATOM     18  H   UNL     1       0.848 -11.587   3.277  0.00  0.00    +0.147 HD
ENDROOT
BRANCH   1  24
ATOM     19  C   UNL     1       1.454 -12.102  -0.295  0.00  0.00    +0.126 A 
ATOM     20  C   UNL     1       1.202 -12.624  -1.556  0.00  0.00    +0.046 A 
ATOM     21  C   UNL     1       0.361 -11.956  -2.424  0.00  0.00    +0.004 A 
ATOM     22  C   UNL     1      -0.235 -10.770  -2.035  0.00  0.00    +0.001 A 
ATOM     23  C   UNL     1       0.010 -10.250  -0.778  0.00  0.00    +0.009 A 
ATOM     24  C   UNL     1       0.851 -10.915   0.094  0.00  0.00    +0.019 A 
BRANCH  19  25
ATOM     25  O   UNL     1       2.286 -12.754   0.558  0.00  0.00    -0.492 OA
BRANCH  25  26
ATOM     26  C   UNL     1       2.872 -13.971   0.090  0.00  0.00    +0.229 C 
BRANCH  26  27
ATOM     27  C   UNL     1       3.771 -14.557   1.181  0.00  0.00    +0.041 C 
BRANCH  27  29
ATOM     28  C   UNL     1       5.297 -16.445   1.770  0.00  0.00    +0.004 C 
ATOM     29  C   UNL     1       4.397 -15.860   0.680  0.00  0.00    -0.000 C 
ENDBRANCH  27  29
ENDBRANCH  26  27
ENDBRANCH  25  26
ENDBRANCH  19  25
ENDBRANCH   1  24
BRANCH   5  30
ATOM     30  C   UNL     1       0.743  -4.579   1.663  0.00  0.00    -0.043 A 
ATOM     31  C   UNL     1       1.266  -3.718   2.610  0.00  0.00    +0.007 A 
ATOM     32  C   UNL     1       1.087  -2.355   2.480  0.00  0.00    +0.046 A 
ATOM     33  C   UNL     1       0.381  -1.849   1.398  0.00  0.00    +0.121 A 
ATOM     34  C   UNL     1      -0.149  -2.715   0.453  0.00  0.00    +0.046 A 
ATOM     35  C   UNL     1       0.038  -4.078   0.584  0.00  0.00    +0.007 A 
BRANCH  33  36
ATOM     36  O   UNL     1       0.203  -0.508   1.268  0.00  0.00    -0.492 OA
BRANCH  36  37
ATOM     37  C   UNL     1      -0.535  -0.059   0.130  0.00  0.00    +0.225 C 
ATOM     38  C   UNL     1      -0.630   1.468   0.154  0.00  0.00    +0.048 C 
ENDBRANCH  36  37
ENDBRANCH  33  36
ENDBRANCH   5  30
TORSDOF 8
