REMARK  Name = ZINC06049332
REMARK  6 active torsions:
REMARK  status: ('A' for Active; 'I' for Inactive)
REMARK    1  A    between atoms: C_1  and  C_2
REMARK    2  A    between atoms: C_2  and  C_4
REMARK    3  A    between atoms: C_2  and  N_20
REMARK    4  A    between atoms: N_6  and  C_7
REMARK    5  A    between atoms: C_7  and  C_9
REMARK    6  A    between atoms: C_7  and  C_10
REMARK                            x       y       z     vdW  Elec       q    Type
REMARK                         _______ _______ _______ _____ _____    ______ ____
ROOT
ATOM      1  C   UNL     1       0.707  -0.490  -1.238  0.00  0.00    +0.233 C 
ATOM      2  O   UNL     1       1.704  -1.174  -1.140  0.00  0.00    -0.274 OA
ATOM      3  N   UNL     1       0.231  -0.164  -2.456  0.00  0.00    -0.311 N 
ATOM      4  H   UNL     1      -0.566   0.383  -2.534  0.00  0.00    +0.149 HD
ENDROOT
BRANCH   1   6
ATOM      5  C   UNL     1      -0.019   1.526   0.010  0.00  0.00    +0.038 C 
ATOM      6  C   UNL     1       0.002  -0.004   0.002  0.00  0.00    +0.157 C 
BRANCH   6   7
ATOM      7  N   UNL     1       0.711  -0.489   1.189  0.00  0.00    -0.289 N 
ATOM      8  C   UNL     1       0.051  -0.633   2.355  0.00  0.00    +0.298 C 
ATOM      9  O   UNL     1      -1.132  -0.361   2.423  0.00  0.00    -0.253 OA
ATOM     10  N   UNL     1       0.703  -1.080   3.447  0.00  0.00    -0.313 N 
ATOM     11  H   UNL     1       1.654  -0.707   1.135  0.00  0.00    +0.151 HD
ATOM     12  H   UNL     1       1.647  -1.298   3.394  0.00  0.00    +0.146 HD
ATOM     13  H   UNL     1       0.229  -1.184   4.287  0.00  0.00    +0.146 HD
ENDBRANCH   6   7
ENDBRANCH   1   6
BRANCH   3  14
ATOM     14  C   UNL     1       0.917  -0.637  -3.661  0.00  0.00    +0.076 C 
ATOM     15  C   UNL     1       0.427  -2.044  -4.008  0.00  0.00    +0.028 C 
BRANCH  14  16
ATOM     16  C   UNL     1       0.614   0.310  -4.824  0.00  0.00    -0.010 C 
ATOM     17  C   UNL     1       1.103   1.717  -4.478  0.00  0.00    +0.012 C 
ATOM     18  C   UNL     1       0.800   2.664  -5.641  0.00  0.00    -0.010 C 
ATOM     19  C   UNL     1       1.516   2.170  -6.900  0.00  0.00    +0.007 C 
ATOM     20  C   UNL     1       1.026   0.763  -7.247  0.00  0.00    -0.010 C 
ATOM     21  C   UNL     1       1.330  -0.184  -6.083  0.00  0.00    +0.012 C 
ATOM     22  C   UNL     1      -0.482   0.795  -7.498  0.00  0.00    +0.007 C 
ATOM     23  C   UNL     1      -1.198   1.289  -6.239  0.00  0.00    -0.010 C 
ATOM     24  C   UNL     1      -0.709   2.696  -5.892  0.00  0.00    +0.007 C 
ATOM     25  C   UNL     1      -0.895   0.342  -5.076  0.00  0.00    +0.012 C 
ENDBRANCH  14  16
ENDBRANCH   3  14
TORSDOF 4
