REMARK  Name = ZINC40371996
REMARK  4 active torsions:
REMARK  status: ('A' for Active; 'I' for Inactive)
REMARK    1  A    between atoms: C_3  and  C_9
REMARK    2  A    between atoms: N_11  and  C_12
REMARK    3  A    between atoms: C_12  and  C_17
REMARK    4  A    between atoms: N_18  and  O_19
REMARK                            x       y       z     vdW  Elec       q    Type
REMARK                         _______ _______ _______ _____ _____    ______ ____
ROOT
ATOM      1  C   UNL     1       3.915   1.871  -0.178  0.00  0.00    +0.246 C 
ATOM      2  O   UNL     1       5.037   1.416  -0.287  0.00  0.00    -0.270 OA
ATOM      3  N   UNL     1       3.736   3.201  -0.060  0.00  0.00    -0.299 N 
ATOM      4  H   UNL     1       2.839   3.570  -0.038  0.00  0.00    +0.150 HD
ENDROOT
BRANCH   1   7
ATOM      5  C   UNL     1       0.373   0.637  -0.045  0.00  0.00    +0.039 A 
ATOM      6  C   UNL     1       1.458   1.486  -0.048  0.00  0.00    +0.017 A 
ATOM      7  C   UNL     1       2.748   0.966  -0.174  0.00  0.00    +0.055 A 
ATOM      8  C   UNL     1       2.931  -0.415  -0.296  0.00  0.00    +0.056 A 
ATOM      9  C   UNL     1       1.836  -1.255  -0.292  0.00  0.00    +0.059 A 
ATOM     10  C   UNL     1       0.559  -0.732  -0.167  0.00  0.00    +0.125 A 
ATOM     11  F   UNL     1      -0.509  -1.559  -0.164  0.00  0.00    -0.205 F 
ATOM     12 CL   UNL     1       4.531  -1.071  -0.453  0.00  0.00    -0.083 Cl
ENDBRANCH   1   7
BRANCH   3  13
ATOM     13  C   UNL     1       4.896   4.091   0.033  0.00  0.00    +0.093 C 
ATOM     14  C   UNL     1       5.800   3.914  -1.205  0.00  0.00    +0.033 C 
ATOM     15  C   UNL     1       5.352   5.043  -2.166  0.00  0.00    +0.003 C 
ATOM     16  C   UNL     1       5.075   6.223  -1.202  0.00  0.00    +0.003 C 
ATOM     17  C   UNL     1       4.436   5.559   0.035  0.00  0.00    +0.033 C 
BRANCH  13  18
ATOM     18  C   UNL     1       5.675   3.793   1.289  0.00  0.00    +0.155 C 
ATOM     19  N   UNL     1       6.739   4.472   1.565  0.00  0.00    -0.075 NA
ATOM     20  N   UNL     1       5.253   2.796   2.140  0.00  0.00    -0.342 N 
ATOM     21  H   UNL     1       4.471   2.268   1.918  0.00  0.00    +0.144 HD
ATOM     22  H   UNL     1       5.738   2.623   2.962  0.00  0.00    +0.144 HD
BRANCH  19  23
ATOM     23  O   UNL     1       7.198   5.466   0.668  0.00  0.00    -0.408 OA
ATOM     24  H   UNL     1       8.000   5.920   0.961  0.00  0.00    +0.328 HD
ENDBRANCH  19  23
ENDBRANCH  13  18
ENDBRANCH   3  13
TORSDOF 4
