REMARK  Name = ZINC43527507
REMARK  7 active torsions:
REMARK  status: ('A' for Active; 'I' for Inactive)
REMARK    1  A    between atoms: C_4  and  N_7
REMARK    2  A    between atoms: N_7  and  C_8
REMARK    3  A    between atoms: C_8  and  N_10
REMARK    4  A    between atoms: N_10  and  C_11
REMARK    5  A    between atoms: C_11  and  C_12
REMARK    6  A    between atoms: C_21  and  C_23
REMARK    7  A    between atoms: C_23  and  N_24
REMARK                            x       y       z     vdW  Elec       q    Type
REMARK                         _______ _______ _______ _____ _____    ______ ____
ROOT
ATOM      1  C   UNL     1       6.396  -4.122   0.029  0.00  0.00    -0.051 C 
ATOM      2  C   UNL     1       6.232  -5.643   0.067  0.00  0.00    -0.010 C 
ATOM      3  C   UNL     1       7.065  -6.259  -1.064  0.00  0.00    -0.015 C 
ATOM      4  C   UNL     1       6.561  -5.696  -2.399  0.00  0.00    -0.015 C 
ATOM      5  C   UNL     1       6.694  -4.171  -2.374  0.00  0.00    -0.078 C 
ATOM      6  N   UNL     1       7.289  -3.743  -1.069  0.00  0.00    +0.383 N 
ATOM      7  C   UNL     1       8.620  -4.324  -0.875  0.00  0.00    -0.076 C 
ATOM      8  C   UNL     1       8.530  -5.849  -0.865  0.00  0.00    -0.041 C 
ATOM      9  H   UNL     1       7.384  -2.739  -1.072  0.00  0.00    -0.081 HD
ENDROOT
BRANCH   1  10
ATOM     10  C   UNL     1       5.028  -3.469  -0.182  0.00  0.00    +0.088 C 
BRANCH  10  11
ATOM     11  N   UNL     1       5.196  -2.021  -0.333  0.00  0.00    -0.328 N 
ATOM     12  H   UNL     1       6.082  -1.629  -0.291  0.00  0.00    +0.148 HD
BRANCH  11  13
ATOM     13  C   UNL     1       4.120  -1.235  -0.529  0.00  0.00    +0.134 C 
ATOM     14  S   UNL     1       2.556  -1.927  -0.603  0.00  0.00    -0.019 S 
BRANCH  13  15
ATOM     15  N   UNL     1       4.274   0.097  -0.668  0.00  0.00    -0.297 N 
ATOM     16  H   UNL     1       5.164   0.481  -0.702  0.00  0.00    +0.154 HD
BRANCH  15  20
ATOM     17  C   UNL     1       0.930   2.564  -0.953  0.00  0.00    +0.000 A 
ATOM     18  C   UNL     1       0.938   1.515  -0.052  0.00  0.00    +0.002 A 
ATOM     19  C   UNL     1       2.046   0.695   0.044  0.00  0.00    +0.023 A 
ATOM     20  C   UNL     1       3.151   0.925  -0.764  0.00  0.00    +0.033 A 
ATOM     21  C   UNL     1       3.139   1.980  -1.667  0.00  0.00    +0.023 A 
ATOM     22  C   UNL     1       2.029   2.796  -1.759  0.00  0.00    +0.002 A 
ENDBRANCH  15  20
ENDBRANCH  13  15
ENDBRANCH  11  13
ENDBRANCH  10  11
ENDBRANCH   1  10
BRANCH   8  23
ATOM     23  C   UNL     1       9.382  -6.419  -2.001  0.00  0.00    -0.077 C 
BRANCH  23  24
ATOM     24  N   UNL     1      10.790  -6.064  -1.783  0.00  0.00    +0.382 N 
ATOM     25  C   UNL     1      11.580  -6.459  -2.957  0.00  0.00    -0.060 C 
ATOM     26  C   UNL     1      13.027  -5.987  -2.780  0.00  0.00    +0.089 C 
ATOM     27  N   UNL     1      13.535  -6.510  -1.502  0.00  0.00    -0.303 N 
ATOM     28  C   UNL     1      12.721  -6.301  -0.294  0.00  0.00    +0.089 C 
ATOM     29  C   UNL     1      11.289  -6.758  -0.589  0.00  0.00    -0.060 C 
ATOM     30  C   UNL     1      14.744  -7.181  -1.438  0.00  0.00    +0.218 A 
ATOM     31  N   UNL     1      15.451  -7.346  -2.546  0.00  0.00    -0.223 NA
ATOM     32  C   UNL     1      16.611  -7.981  -2.520  0.00  0.00    +0.116 A 
ATOM     33  C   UNL     1      17.083  -8.477  -1.314  0.00  0.00    +0.039 A 
ATOM     34  C   UNL     1      16.318  -8.287  -0.175  0.00  0.00    +0.116 A 
ATOM     35  N   UNL     1      15.169  -7.638  -0.270  0.00  0.00    -0.223 NA
ATOM     36  H   UNL     1      10.868  -5.067  -1.649  0.00  0.00    -0.082 HD
ENDBRANCH  23  24
ENDBRANCH   8  23
TORSDOF 7
