REMARK  Name = ZINC59741408
REMARK  6 active torsions:
REMARK  status: ('A' for Active; 'I' for Inactive)
REMARK    1  A    between atoms: C_1  and  C_2
REMARK    2  A    between atoms: C_2  and  C_3
REMARK    3  A    between atoms: C_2  and  C_4
REMARK    4  A    between atoms: C_2  and  C_5
REMARK    5  A    between atoms: C_11  and  C_14
REMARK    6  A    between atoms: N_16  and  C_17
REMARK                            x       y       z     vdW  Elec       q    Type
REMARK                         _______ _______ _______ _____ _____    ______ ____
ROOT
ATOM      1  C   UNL     1       0.497  -1.052  -0.957  0.00  0.00    +0.221 C 
ATOM      2  O   UNL     1       1.105  -0.722  -1.953  0.00  0.00    -0.275 OA
ATOM      3  N   UNL     1       0.268  -2.357  -0.710  0.00  0.00    -0.300 N 
ATOM      4  C   UNL     1      -0.375  -2.780   0.542  0.00  0.00    +0.108 C 
ATOM      5  C   UNL     1      -1.585  -3.656   0.204  0.00  0.00    +0.020 C 
ATOM      6  C   UNL     1      -1.139  -4.811  -0.695  0.00  0.00    +0.016 C 
ATOM      7  C   UNL     1      -0.567  -4.253  -2.000  0.00  0.00    +0.092 C 
ATOM      8  C   UNL     1       0.650  -3.383  -1.689  0.00  0.00    +0.120 C 
ENDROOT
BRANCH   1  10
ATOM      9  C   UNL     1       0.354   1.386  -0.527  0.00  0.00    +0.020 C 
ATOM     10  C   UNL     1      -0.002  -0.004   0.004  0.00  0.00    +0.039 C 
ATOM     11  C   UNL     1       0.655  -0.211   1.371  0.00  0.00    +0.020 C 
ATOM     12  C   UNL     1      -1.520  -0.123   0.145  0.00  0.00    +0.020 C 
ENDBRANCH   1  10
BRANCH   7  13
ATOM     13  C   UNL     1      -0.158  -5.392  -2.898  0.00  0.00    +0.218 C 
ATOM     14  O   UNL     1       0.996  -5.498  -3.256  0.00  0.00    -0.275 OA
ATOM     15  N   UNL     1      -1.075  -6.292  -3.304  0.00  0.00    -0.312 N 
ATOM     16  H   UNL     1      -1.998  -6.207  -3.018  0.00  0.00    +0.149 HD
BRANCH  15  17
ATOM     17  C   UNL     1      -0.678  -7.399  -4.177  0.00  0.00    +0.073 C 
ATOM     18  C   UNL     1      -0.704  -6.934  -5.635  0.00  0.00    +0.022 C 
ATOM     19  C   UNL     1       0.073  -7.928  -6.501  0.00  0.00    +0.002 C 
ATOM     20  C   UNL     1       1.378  -8.306  -5.797  0.00  0.00    +0.000 C 
ATOM     21  C   UNL     1       1.328  -9.780  -5.389  0.00  0.00    +0.000 C 
ATOM     22  C   UNL     1       0.431  -9.938  -4.159  0.00  0.00    +0.000 C 
ATOM     23  C   UNL     1      -1.036  -9.839  -4.582  0.00  0.00    +0.002 C 
ATOM     24  C   UNL     1      -1.651  -8.566  -3.997  0.00  0.00    +0.022 C 
ENDBRANCH  15  17
ENDBRANCH   7  13
TORSDOF 3
