REMARK  Name = ZINC39667147
REMARK  7 active torsions:
REMARK  status: ('A' for Active; 'I' for Inactive)
REMARK    1  A    between atoms: C_1  and  C_2
REMARK    2  A    between atoms: C_5  and  C_9
REMARK    3  A    between atoms: C_6  and  C_8
REMARK    4  A    between atoms: C_9  and  C_10
REMARK    5  A    between atoms: C_10  and  N_11
REMARK    6  A    between atoms: C_12  and  C_14
REMARK    7  A    between atoms: C_25  and  C_27
REMARK                            x       y       z     vdW  Elec       q    Type
REMARK                         _______ _______ _______ _____ _____    ______ ____
ROOT
ATOM      1  C   UNL     1      -2.476  -8.475   0.196  0.00  0.00    +0.100 C 
ATOM      2  C   UNL     1      -1.595  -9.009   1.347  0.00  0.00    +0.121 C 
ATOM      3  N   UNL     1      -2.544  -9.268   2.455  0.00  0.00    -0.296 N 
ATOM      4  C   UNL     1      -3.741  -9.836   1.790  0.00  0.00    +0.115 C 
ATOM      5  C   UNL     1      -3.883  -9.023   0.488  0.00  0.00    -0.004 C 
ATOM      6  C   UNL     1      -4.866  -7.874   0.690  0.00  0.00    -0.010 C 
ATOM      7  C   UNL     1      -6.268  -8.444   0.923  0.00  0.00    -0.082 C 
ATOM      8  N   UNL     1      -6.666  -9.258  -0.232  0.00  0.00    +0.379 N 
ATOM      9  C   UNL     1      -5.769 -10.413  -0.364  0.00  0.00    -0.082 C 
ATOM     10  C   UNL     1      -4.346  -9.927  -0.651  0.00  0.00    -0.010 C 
ATOM     11  C   UNL     1      -2.360  -9.040   3.771  0.00  0.00    +0.248 C 
ATOM     12  O   UNL     1      -1.353  -8.476   4.155  0.00  0.00    -0.270 OA
ATOM     13  H   UNL     1      -7.613  -9.582  -0.104  0.00  0.00    -0.086 HD
ATOM     14  H   UNL     1      -6.616  -8.698  -1.070  0.00  0.00    -0.086 HD
ENDROOT
BRANCH  11  15
ATOM     15  C   UNL     1      -3.375  -9.472   4.740  0.00  0.00    +0.052 A 
ATOM     16  C   UNL     1      -4.084 -10.615   4.548  0.00  0.00    +0.059 A 
ATOM     17  S   UNL     1      -5.113 -10.727   5.868  0.00  0.00    -0.096 S 
ATOM     18  C   UNL     1      -4.657  -9.259   6.748  0.00  0.00    +0.020 A 
ATOM     19  C   UNL     1      -3.650  -8.688   5.946  0.00  0.00    +0.001 A 
ATOM     20  C   UNL     1      -3.072  -7.486   6.395  0.00  0.00    +0.010 A 
ATOM     21  C   UNL     1      -3.485  -6.914   7.573  0.00  0.00    +0.001 A 
ATOM     22  C   UNL     1      -4.476  -7.499   8.347  0.00  0.00    +0.001 A 
ATOM     23  C   UNL     1      -5.068  -8.674   7.926  0.00  0.00    +0.015 A 
ENDBRANCH  11  15
BRANCH   1  25
ATOM     24  N   UNL     1      -2.634  -6.292  -0.957  0.00  0.00    -0.315 N 
ATOM     25  C   UNL     1      -2.489  -6.968   0.200  0.00  0.00    +0.218 C 
ATOM     26  O   UNL     1      -2.369  -6.363   1.244  0.00  0.00    -0.275 OA
ATOM     27  H   UNL     1      -2.730  -6.776  -1.793  0.00  0.00    +0.149 HD
BRANCH  24  28
ATOM     28  C   UNL     1      -2.646  -4.827  -0.953  0.00  0.00    +0.109 C 
BRANCH  28  29
ATOM     29  C   UNL     1      -2.823  -4.315  -2.384  0.00  0.00    +0.054 C 
BRANCH  29  34
ATOM     30  C   UNL     1      -2.872   1.464  -2.365  0.00  0.00    +0.044 C 
ATOM     31  C   UNL     1      -2.859  -0.043  -2.370  0.00  0.00    -0.050 A 
ATOM     32  C   UNL     1      -4.050  -0.745  -2.335  0.00  0.00    +0.003 A 
ATOM     33  C   UNL     1      -4.038  -2.127  -2.339  0.00  0.00    +0.004 A 
ATOM     34  C   UNL     1      -2.836  -2.808  -2.380  0.00  0.00    -0.043 A 
ATOM     35  C   UNL     1      -1.645  -2.107  -2.417  0.00  0.00    -0.047 A 
ATOM     36  C   UNL     1      -1.657  -0.724  -2.416  0.00  0.00    +0.007 A 
ATOM     37  C   UNL     1      -0.335  -2.849  -2.460  0.00  0.00    +0.044 C 
ENDBRANCH  29  34
ENDBRANCH  28  29
ENDBRANCH  24  28
ENDBRANCH   1  25
TORSDOF 5
