REMARK  Name = ZINC65244744
REMARK  8 active torsions:
REMARK  status: ('A' for Active; 'I' for Inactive)
REMARK    1  A    between atoms: C_1  and  C_2
REMARK    2  A    between atoms: C_5  and  C_8
REMARK    3  A    between atoms: C_8  and  C_9
REMARK    4  A    between atoms: C_8  and  N_12
REMARK    5  A    between atoms: C_13  and  C_15
REMARK    6  A    between atoms: C_15  and  N_16
REMARK    7  A    between atoms: C_20  and  C_22
REMARK    8  A    between atoms: N_24  and  C_25
REMARK                            x       y       z     vdW  Elec       q    Type
REMARK                         _______ _______ _______ _____ _____    ______ ____
ROOT
ATOM      1  N   UNL     1       0.959  -4.758   1.029  0.00  0.00    -0.310 N 
ATOM      2  C   UNL     1       1.534  -5.972   0.919  0.00  0.00    +0.197 C 
ATOM      3  O   UNL     1       1.306  -6.665  -0.050  0.00  0.00    -0.278 OA
ATOM      4  H   UNL     1       1.142  -4.204   1.804  0.00  0.00    +0.149 HD
ENDROOT
BRANCH   1   5
ATOM      5  C   UNL     1       0.059  -4.275  -0.021  0.00  0.00    +0.106 C 
BRANCH   5  10
ATOM      6  C   UNL     1      -0.018   1.503   0.010  0.00  0.00    +0.044 C 
ATOM      7  C   UNL     1       0.002  -0.004   0.002  0.00  0.00    -0.050 A 
ATOM      8  C   UNL     1       0.006  -0.689  -1.199  0.00  0.00    +0.004 A 
ATOM      9  C   UNL     1       0.025  -2.071  -1.206  0.00  0.00    +0.006 A 
ATOM     10  C   UNL     1       0.040  -2.768  -0.013  0.00  0.00    -0.027 A 
ATOM     11  C   UNL     1       0.037  -2.084   1.188  0.00  0.00    +0.006 A 
ATOM     12  C   UNL     1       0.023  -0.702   1.195  0.00  0.00    +0.004 A 
ENDBRANCH   5  10
BRANCH   5  13
ATOM     13  C   UNL     1      -1.353  -4.805   0.234  0.00  0.00    +0.014 C 
ATOM     14  C   UNL     1      -1.611  -5.518   1.563  0.00  0.00    +0.006 C 
ATOM     15  C   UNL     1      -1.544  -6.323   0.264  0.00  0.00    +0.006 C 
ENDBRANCH   5  13
ENDBRANCH   1   5
BRANCH   2  16
ATOM     16  C   UNL     1       2.460  -6.468   1.999  0.00  0.00    +0.019 C 
BRANCH  16  17
ATOM     17  N   UNL     1       2.951  -7.807   1.646  0.00  0.00    +0.386 N 
ATOM     18  C   UNL     1       3.770  -7.721   0.431  0.00  0.00    -0.078 C 
ATOM     19  C   UNL     1       4.218  -9.123   0.013  0.00  0.00    -0.018 C 
ATOM     20  C   UNL     1       5.042  -9.748   1.142  0.00  0.00    +0.009 C 
ATOM     21  C   UNL     1       4.204  -9.764   2.424  0.00  0.00    +0.058 C 
ATOM     22  C   UNL     1       3.756  -8.338   2.753  0.00  0.00    -0.065 C 
ATOM     23  H   UNL     1       2.167  -8.419   1.478  0.00  0.00    -0.081 HD
BRANCH  21  24
ATOM     24  C   UNL     1       5.032 -10.307   3.560  0.00  0.00    +0.215 C 
ATOM     25  O   UNL     1       5.240  -9.622   4.539  0.00  0.00    -0.276 OA
ATOM     26  N   UNL     1       5.540 -11.553   3.488  0.00  0.00    -0.312 N 
ATOM     27  H   UNL     1       5.373 -12.101   2.705  0.00  0.00    +0.149 HD
BRANCH  26  28
ATOM     28  C   UNL     1       6.345 -12.080   4.593  0.00  0.00    +0.073 C 
ATOM     29  C   UNL     1       7.624 -12.840   4.235  0.00  0.00    +0.024 C 
ATOM     30  C   UNL     1       6.405 -13.600   4.761  0.00  0.00    +0.024 C 
ENDBRANCH  26  28
ENDBRANCH  21  24
ENDBRANCH  16  17
ENDBRANCH   2  16
TORSDOF 7
