REMARK  Name = ZINC09010390
REMARK  5 active torsions:
REMARK  status: ('A' for Active; 'I' for Inactive)
REMARK    1  A    between atoms: C_5  and  N_7
REMARK    2  A    between atoms: N_7  and  S_8
REMARK    3  A    between atoms: S_8  and  C_11
REMARK    4  A    between atoms: C_24  and  C_27
REMARK    5  A    between atoms: C_31  and  N_33
REMARK                            x       y       z     vdW  Elec       q    Type
REMARK                         _______ _______ _______ _____ _____    ______ ____
ROOT
ATOM      1  C   UNL     1      -1.451   3.455   0.163  0.00  0.00    +0.109 A 
ATOM      2  C   UNL     1      -0.264   4.162   0.227  0.00  0.00    +0.030 A 
ATOM      3  C   UNL     1       0.935   3.481   0.291  0.00  0.00    +0.025 A 
ATOM      4  C   UNL     1       0.947   2.092   0.291  0.00  0.00    +0.031 A 
ATOM      5  C   UNL     1      -0.241   1.379   0.230  0.00  0.00    -0.018 A 
ATOM      6  C   UNL     1      -1.440   2.075   0.159  0.00  0.00    +0.034 A 
ATOM      7  C   UNL     1      -0.278  -0.116   0.231  0.00  0.00    +0.049 C 
ATOM      8  C   UNL     1      -0.583  -0.662  -1.144  0.00  0.00    -0.023 C 
ATOM      9  C   UNL     1       0.089  -1.768  -1.352  0.00  0.00    -0.030 C 
ATOM     10  C   UNL     1       0.931  -2.114  -0.139  0.00  0.00    +0.033 C 
ATOM     11  C   UNL     1       1.077  -0.751   0.599  0.00  0.00    +0.029 C 
ATOM     12  C   UNL     1       2.215   0.016  -0.081  0.00  0.00    +0.105 C 
ATOM     13  N   UNL     1       2.170   1.416   0.353  0.00  0.00    -0.336 N 
ATOM     14  H   UNL     1       2.969   1.862   0.675  0.00  0.00    +0.147 HD
ENDROOT
BRANCH  12  15
ATOM     15  C   UNL     1       3.537  -0.592   0.309  0.00  0.00    -0.025 A 
ATOM     16  C   UNL     1       4.109  -0.278   1.528  0.00  0.00    +0.005 A 
ATOM     17  C   UNL     1       5.320  -0.838   1.888  0.00  0.00    +0.003 A 
ATOM     18  C   UNL     1       5.964  -1.706   1.026  0.00  0.00    +0.033 A 
ATOM     19  C   UNL     1       5.394  -2.016  -0.195  0.00  0.00    +0.127 A 
ATOM     20  C   UNL     1       4.181  -1.459  -0.553  0.00  0.00    +0.038 A 
BRANCH  19  21
ATOM     21  N   UNL     1       6.084  -2.945  -1.118  0.00  0.00    +0.056 N 
ATOM     22  O   UNL     1       5.582  -3.219  -2.194  0.00  0.00    -0.126 OA
ATOM     23  O   UNL     1       7.153  -3.437  -0.803  0.00  0.00    -0.126 OA
ENDBRANCH  19  21
ENDBRANCH  12  15
BRANCH   1  24
ATOM     24  S   UNL     1      -2.984   4.320   0.079  0.00  0.00    +0.072 S 
ATOM     25  O   UNL     1      -3.977   3.435   0.578  0.00  0.00    -0.150 OA
ATOM     26  O   UNL     1      -2.756   5.605   0.642  0.00  0.00    -0.150 OA
BRANCH  24  27
ATOM     27  N   UNL     1      -3.324   4.559  -1.524  0.00  0.00    -0.213 N 
ATOM     28  H   UNL     1      -3.415   5.460  -1.871  0.00  0.00    +0.174 HD
BRANCH  27  33
ATOM     29  C   UNL     1      -4.225   1.214  -2.754  0.00  0.00    +0.002 A 
ATOM     30  C   UNL     1      -3.789   1.289  -4.064  0.00  0.00    +0.003 A 
ATOM     31  C   UNL     1      -3.199   2.448  -4.534  0.00  0.00    +0.040 A 
ATOM     32  C   UNL     1      -3.047   3.538  -3.696  0.00  0.00    +0.146 A 
ATOM     33  C   UNL     1      -3.480   3.462  -2.377  0.00  0.00    +0.083 A 
ATOM     34  C   UNL     1      -4.072   2.296  -1.909  0.00  0.00    +0.027 A 
ATOM     35  F   UNL     1      -2.476   4.672  -4.157  0.00  0.00    -0.204 F 
ENDBRANCH  27  33
ENDBRANCH  24  27
ENDBRANCH   1  24
TORSDOF 5
