REMARK  Name = ZINC12823554
REMARK  11 active torsions:
REMARK  status: ('A' for Active; 'I' for Inactive)
REMARK    1  A    between atoms: C_1  and  N_2
REMARK    2  A    between atoms: N_2  and  C_3
REMARK    3  A    between atoms: N_2  and  C_4
REMARK    4  A    between atoms: C_7  and  S_21
REMARK    5  A    between atoms: C_9  and  N_10
REMARK    6  A    between atoms: C_11  and  C_13
REMARK    7  A    between atoms: C_13  and  S_14
REMARK    8  A    between atoms: S_14  and  C_15
REMARK    9  A    between atoms: S_21  and  N_24
REMARK   10  A    between atoms: N_24  and  C_25
REMARK   11  A    between atoms: N_24  and  C_26
REMARK                            x       y       z     vdW  Elec       q    Type
REMARK                         _______ _______ _______ _____ _____    ______ ____
ROOT
ATOM      1  C   UNL     1       1.169   1.791   0.017  0.00  0.00    +0.051 A 
ATOM      2  C   UNL     1      -0.026   1.087   0.034  0.00  0.00    +0.027 A 
ATOM      3  C   UNL     1      -1.229   1.768   0.046  0.00  0.00    +0.030 A 
ATOM      4  C   UNL     1      -1.246   3.150   0.053  0.00  0.00    +0.107 A 
ATOM      5  C   UNL     1      -0.059   3.860   0.036  0.00  0.00    +0.053 A 
ATOM      6  C   UNL     1       1.152   3.186   0.018  0.00  0.00    +0.057 A 
ENDROOT
BRANCH   6   7
ATOM      7  N   UNL     1       2.356   3.904   0.000  0.00  0.00    -0.283 N 
ATOM      8  C   UNL     1       2.433   5.074  -0.664  0.00  0.00    +0.228 C 
ATOM      9  O   UNL     1       1.441   5.546  -1.179  0.00  0.00    -0.275 OA
ATOM     10  H   UNL     1       3.133   3.558   0.466  0.00  0.00    +0.155 HD
BRANCH   8  11
ATOM     11  C   UNL     1       3.752   5.796  -0.768  0.00  0.00    +0.172 C 
BRANCH  11  12
ATOM     12  S   UNL     1       3.530   7.327  -1.715  0.00  0.00    -0.088 S 
BRANCH  12  13
ATOM     13  C   UNL     1       5.138   8.045  -1.747  0.00  0.00    +0.160 A 
ATOM     14  N   UNL     1       6.263   7.602  -1.218  0.00  0.00    -0.133 NA
ATOM     15  N   UNL     1       7.421   8.329  -1.364  0.00  0.00    -0.125 NA
ATOM     16  C   UNL     1       7.403   9.466  -2.032  0.00  0.00    +0.180 A 
ATOM     17  S   UNL     1       5.684   9.565  -2.511  0.00  0.00    -0.025 S 
ATOM     18  N   UNL     1       8.443  10.348  -2.298  0.00  0.00    -0.336 N 
ATOM     19  H   UNL     1       9.336  10.158  -1.971  0.00  0.00    +0.144 HD
ATOM     20  H   UNL     1       8.276  11.155  -2.809  0.00  0.00    +0.144 HD
ENDBRANCH  12  13
ENDBRANCH  11  12
ENDBRANCH   8  11
ENDBRANCH   6   7
BRANCH   1  22
ATOM     21  C   UNL     1       2.528   0.248   1.183  0.00  0.00    +0.129 C 
ATOM     22  N   UNL     1       2.388   1.105  -0.002  0.00  0.00    -0.335 N 
ATOM     23  C   UNL     1       2.533   0.323  -1.237  0.00  0.00    +0.129 C 
ENDBRANCH   1  22
BRANCH   4  24
ATOM     24  S   UNL     1      -2.783   4.010   0.075  0.00  0.00    +0.060 S 
ATOM     25  O   UNL     1      -3.737   3.121   0.640  0.00  0.00    -0.153 OA
ATOM     26  O   UNL     1      -2.522   5.295   0.623  0.00  0.00    -0.153 OA
BRANCH  24  27
ATOM     27  N   UNL     1      -3.234   4.249  -1.500  0.00  0.00    -0.183 NA
ATOM     28  C   UNL     1      -4.052   3.248  -2.188  0.00  0.00    +0.131 C 
ATOM     29  C   UNL     1      -2.814   5.463  -2.205  0.00  0.00    +0.131 C 
ENDBRANCH  24  27
ENDBRANCH   4  24
TORSDOF 7
