REMARK  Name = ZINC16949345
REMARK  7 active torsions:
REMARK  status: ('A' for Active; 'I' for Inactive)
REMARK    1  A    between atoms: C_1  and  C_2
REMARK    2  A    between atoms: C_5  and  C_8
REMARK    3  A    between atoms: C_8  and  O_30
REMARK    4  A    between atoms: N_12  and  C_13
REMARK    5  A    between atoms: C_14  and  C_19
REMARK    6  A    between atoms: N_21  and  C_22
REMARK    7  A    between atoms: N_23  and  C_24
REMARK                            x       y       z     vdW  Elec       q    Type
REMARK                         _______ _______ _______ _____ _____    ______ ____
ROOT
ATOM      1  C   UNL     1      -0.095  -4.402   0.137  0.00  0.00    +0.174 C 
ATOM      2  C   UNL     1      -1.532  -4.974   0.111  0.00  0.00    +0.137 C 
ATOM      3  S   UNL     1      -1.400  -6.225   1.457  0.00  0.00    -0.085 S 
ATOM      4  C   UNL     1       0.027  -5.542   2.288  0.00  0.00    +0.166 C 
ATOM      5  N   UNL     1       0.402  -5.728   3.539  0.00  0.00    -0.206 NA
ATOM      6  N   UNL     1       0.642  -4.780   1.327  0.00  0.00    -0.246 N 
ENDROOT
BRANCH   1  11
ATOM      7  C   UNL     1      -0.383   1.363  -0.126  0.00  0.00    +0.044 C 
ATOM      8  C   UNL     1      -0.308  -0.140  -0.058  0.00  0.00    -0.050 A 
ATOM      9  C   UNL     1      -0.405  -0.891  -1.214  0.00  0.00    +0.004 A 
ATOM     10  C   UNL     1      -0.336  -2.270  -1.152  0.00  0.00    +0.008 A 
ATOM     11  C   UNL     1      -0.169  -2.899   0.068  0.00  0.00    +0.003 A 
ATOM     12  C   UNL     1      -0.071  -2.148   1.225  0.00  0.00    +0.008 A 
ATOM     13  C   UNL     1      -0.136  -0.769   1.161  0.00  0.00    +0.004 A 
ENDBRANCH   1  11
BRANCH   5  14
ATOM     14  C   UNL     1      -0.379  -6.436   4.380  0.00  0.00    +0.165 A 
ATOM     15  C   UNL     1      -0.728  -6.096   5.689  0.00  0.00    +0.169 A 
ATOM     16  N   UNL     1      -1.526  -7.090   6.162  0.00  0.00    -0.229 NA
ATOM     17  C   UNL     1      -1.681  -7.995   5.243  0.00  0.00    +0.198 A 
ATOM     18  N   UNL     1      -0.996  -7.633   4.120  0.00  0.00    -0.329 N 
ATOM     19  H   UNL     1      -0.951  -8.132   3.289  0.00  0.00    +0.168 HD
BRANCH  15  20
ATOM     20  C   UNL     1      -0.313  -4.896   6.414  0.00  0.00    +0.266 C 
ATOM     21  O   UNL     1       0.408  -4.077   5.874  0.00  0.00    -0.268 OA
ATOM     22  N   UNL     1      -0.729  -4.697   7.681  0.00  0.00    -0.313 N 
ATOM     23  C   UNL     1      -0.313  -3.495   8.408  0.00  0.00    +0.128 C 
ATOM     24  H   UNL     1      -1.304  -5.349   8.111  0.00  0.00    +0.149 HD
ENDBRANCH  15  20
ENDBRANCH   5  14
BRANCH   6  25
ATOM     25  C   UNL     1       1.969  -4.372   1.494  0.00  0.00    +0.039 A 
ATOM     26  C   UNL     1       2.549  -3.499   0.582  0.00  0.00    +0.023 A 
ATOM     27  C   UNL     1       3.859  -3.097   0.750  0.00  0.00    +0.002 A 
ATOM     28  C   UNL     1       4.595  -3.564   1.824  0.00  0.00    +0.000 A 
ATOM     29  C   UNL     1       4.021  -4.434   2.733  0.00  0.00    +0.002 A 
ATOM     30  C   UNL     1       2.709  -4.834   2.575  0.00  0.00    +0.023 A 
ENDBRANCH   6  25
BRANCH   1  31
ATOM     31  O   UNL     1       0.609  -4.880  -1.012  0.00  0.00    -0.366 OA
ATOM     32  H   UNL     1       0.199  -4.638  -1.853  0.00  0.00    +0.212 HD
ENDBRANCH   1  31
TORSDOF 5
