REMARK  Name = ZINC11915176
REMARK  9 active torsions:
REMARK  status: ('A' for Active; 'I' for Inactive)
REMARK    1  A    between atoms: C_1  and  C_2
REMARK    2  A    between atoms: C_2  and  N_3
REMARK    3  A    between atoms: C_4  and  C_6
REMARK    4  A    between atoms: C_10  and  N_11
REMARK    5  A    between atoms: C_12  and  C_14
REMARK    6  A    between atoms: C_16  and  C_19
REMARK    7  A    between atoms: C_22  and  O_25
REMARK    8  A    between atoms: O_25  and  C_26
REMARK    9  A    between atoms: C_26  and  C_27
REMARK                            x       y       z     vdW  Elec       q    Type
REMARK                         _______ _______ _______ _____ _____    ______ ____
ROOT
ATOM      1  N   UNL     1      -1.290   1.179   4.956  0.00  0.00    -0.274 N 
ATOM      2  C   UNL     1      -2.066   1.840   5.837  0.00  0.00    +0.270 C 
ATOM      3  O   UNL     1      -2.761   2.763   5.461  0.00  0.00    -0.268 OA
ATOM      4  H   UNL     1      -0.735   0.442   5.256  0.00  0.00    +0.156 HD
ENDROOT
BRANCH   1   9
ATOM      5  C   UNL     1      -0.559   0.998   2.575  0.00  0.00    +0.069 A 
ATOM      6  C   UNL     1      -0.732   1.580   1.257  0.00  0.00    -0.023 A 
ATOM      7  C   UNL     1      -1.601   2.615   1.194  0.00  0.00    -0.004 A 
ATOM      8  S   UNL     1      -2.179   2.821   2.854  0.00  0.00    -0.077 S 
ATOM      9  C   UNL     1      -1.283   1.552   3.622  0.00  0.00    +0.085 A 
ATOM     10  C   UNL     1      -1.980   3.405  -0.021  0.00  0.00    +0.043 C 
ATOM     11  C   UNL     1      -0.956   3.111  -1.127  0.00  0.00    +0.005 C 
ATOM     12  C   UNL     1      -0.758   1.595  -1.227  0.00  0.00    +0.005 C 
ATOM     13  C   UNL     1      -0.013   1.086   0.008  0.00  0.00    +0.037 C 
BRANCH   5  15
ATOM     14  N   UNL     1       1.643   0.095   3.104  0.00  0.00    -0.312 N 
ATOM     15  C   UNL     1       0.351  -0.131   2.793  0.00  0.00    +0.247 C 
ATOM     16  O   UNL     1      -0.061  -1.272   2.693  0.00  0.00    -0.270 OA
ATOM     17  H   UNL     1       1.971   1.004   3.184  0.00  0.00    +0.149 HD
BRANCH  14  19
ATOM     18  C   UNL     1       3.948  -0.506   3.659  0.00  0.00    +0.024 C 
ATOM     19  C   UNL     1       2.551  -1.034   3.322  0.00  0.00    +0.101 C 
ENDBRANCH  14  19
ENDBRANCH   5  15
ENDBRANCH   1   9
BRANCH   2  20
ATOM     20  C   UNL     1      -2.073   1.441   7.265  0.00  0.00    +0.169 A 
ATOM     21  C   UNL     1      -2.825   2.036   8.311  0.00  0.00    +0.086 A 
ATOM     22  C   UNL     1      -2.480   1.307   9.416  0.00  0.00    +0.168 A 
ATOM     23  O   UNL     1      -1.594   0.385   9.001  0.00  0.00    -0.354 OA
ATOM     24  N   UNL     1      -1.380   0.472   7.814  0.00  0.00    -0.073 NA
BRANCH  22  25
ATOM     25  C   UNL     1      -2.979   1.498  10.794  0.00  0.00    +0.020 A 
ATOM     26  C   UNL     1      -3.901   2.510  11.071  0.00  0.00    +0.015 A 
ATOM     27  C   UNL     1      -4.367   2.682  12.356  0.00  0.00    +0.046 A 
ATOM     28  C   UNL     1      -3.913   1.857  13.378  0.00  0.00    +0.121 A 
ATOM     29  C   UNL     1      -2.992   0.854  13.107  0.00  0.00    +0.046 A 
ATOM     30  C   UNL     1      -2.525   0.672  11.824  0.00  0.00    +0.015 A 
BRANCH  28  31
ATOM     31  O   UNL     1      -4.371   2.034  14.644  0.00  0.00    -0.492 OA
BRANCH  31  32
ATOM     32  C   UNL     1      -5.317   3.084  14.852  0.00  0.00    +0.225 C 
ATOM     33  C   UNL     1      -5.714   3.129  16.329  0.00  0.00    +0.048 C 
ENDBRANCH  31  32
ENDBRANCH  28  31
ENDBRANCH  22  25
ENDBRANCH   2  20
TORSDOF 7
