REMARK  Name = ZINC00891313
REMARK  9 active torsions:
REMARK  status: ('A' for Active; 'I' for Inactive)
REMARK    1  A    between atoms: C_1  and  C_2
REMARK    2  A    between atoms: C_2  and  C_3
REMARK    3  A    between atoms: C_8  and  N_9
REMARK    4  A    between atoms: N_9  and  C_10
REMARK    5  A    between atoms: C_10  and  N_12
REMARK    6  A    between atoms: N_12  and  C_13
REMARK    7  A    between atoms: N_12  and  C_30
REMARK    8  A    between atoms: C_13  and  C_14
REMARK    9  A    between atoms: C_30  and  C_31
REMARK                            x       y       z     vdW  Elec       q    Type
REMARK                         _______ _______ _______ _____ _____    ______ ____
ROOT
ATOM      1  N   UNL     1      -7.073   2.101  -1.461  0.00  0.00    -0.305 N 
ENDROOT
BRANCH   1   2
ATOM      2  C   UNL     1      -7.774   1.166  -2.132  0.00  0.00    +0.138 C 
ATOM      3  S   UNL     1      -8.718   0.024  -1.274  0.00  0.00    -0.018 S 
BRANCH   2   4
ATOM      4  N   UNL     1      -7.733   1.130  -3.479  0.00  0.00    -0.297 N 
ATOM      5  H   UNL     1      -7.146   1.733  -3.962  0.00  0.00    +0.154 HD
BRANCH   4  11
ATOM      6  C   UNL     1      -9.190   0.624  -5.337  0.00  0.00    -0.026 A 
ATOM      7  C   UNL     1      -9.981  -0.274  -6.027  0.00  0.00    +0.005 A 
ATOM      8  C   UNL     1     -10.122  -1.570  -5.566  0.00  0.00    +0.000 A 
ATOM      9  C   UNL     1      -9.471  -1.972  -4.414  0.00  0.00    +0.002 A 
ATOM     10  C   UNL     1      -8.675  -1.081  -3.722  0.00  0.00    +0.023 A 
ATOM     11  C   UNL     1      -8.535   0.223  -4.180  0.00  0.00    +0.036 A 
BRANCH   6  13
ATOM     12  C   UNL     1      -7.773   2.140  -6.695  0.00  0.00    +0.009 C 
ATOM     13  C   UNL     1      -9.038   2.036  -5.839  0.00  0.00    +0.033 C 
ENDBRANCH   6  13
ENDBRANCH   4  11
ENDBRANCH   2   4
ENDBRANCH   1   2
BRANCH   1  14
ATOM     14  C   UNL     1      -7.028   2.072   0.003  0.00  0.00    +0.147 C 
BRANCH  14  15
ATOM     15  C   UNL     1      -8.121   2.950   0.556  0.00  0.00    +0.035 A 
ATOM     16  C   UNL     1      -9.320   2.407   0.889  0.00  0.00    +0.020 A 
ATOM     17  C   UNL     1     -10.361   3.285   1.422  0.00  0.00    +0.003 A 
ATOM     18  C   UNL     1     -11.619   2.783   1.777  0.00  0.00    +0.059 A 
ATOM     19  C   UNL     1     -12.580   3.635   2.279  0.00  0.00    +0.163 A 
ATOM     20  C   UNL     1     -12.305   4.997   2.428  0.00  0.00    +0.164 A 
ATOM     21  C   UNL     1     -11.065   5.503   2.076  0.00  0.00    +0.075 A 
ATOM     22  C   UNL     1     -10.085   4.658   1.572  0.00  0.00    +0.053 A 
ATOM     23  N   UNL     1      -8.844   5.146   1.216  0.00  0.00    -0.322 N 
ATOM     24  H   UNL     1      -8.649   6.121   1.324  0.00  0.00    +0.169 HD
ATOM     25  C   UNL     1      -7.895   4.330   0.726  0.00  0.00    +0.254 A 
ATOM     26  O   UNL     1      -6.811   4.797   0.420  0.00  0.00    -0.268 OA
ATOM     27  O   UNL     1     -13.248   5.845   2.922  0.00  0.00    -0.485 OA
ATOM     28  C   UNL     1     -14.601   5.378   2.913  0.00  0.00    +0.270 C 
ATOM     29  C   UNL     1     -14.619   3.946   3.463  0.00  0.00    +0.270 C 
ATOM     30  O   UNL     1     -13.799   3.131   2.619  0.00  0.00    -0.485 OA
ENDBRANCH  14  15
ENDBRANCH   1  14
BRANCH   1  31
ATOM     31  C   UNL     1      -6.355   3.146  -2.196  0.00  0.00    +0.138 C 
BRANCH  31  32
ATOM     32  C   UNL     1      -4.942   2.660  -2.522  0.00  0.00    +0.136 C 
ATOM     33  C   UNL     1      -4.205   3.720  -3.365  0.00  0.00    +0.035 C 
ATOM     34  C   UNL     1      -2.954   4.070  -2.523  0.00  0.00    +0.031 C 
ATOM     35  C   UNL     1      -2.823   2.829  -1.604  0.00  0.00    +0.160 C 
ATOM     36  O   UNL     1      -4.193   2.483  -1.308  0.00  0.00    -0.375 OA
ENDBRANCH  31  32
ENDBRANCH   1  31
TORSDOF 8
