REMARK  Name = ZINC17733733
REMARK  6 active torsions:
REMARK  status: ('A' for Active; 'I' for Inactive)
REMARK    1  A    between atoms: C_3  and  C_13
REMARK    2  A    between atoms: C_4  and  N_10
REMARK    3  A    between atoms: C_6  and  C_7
REMARK    4  A    between atoms: C_13  and  O_14
REMARK    5  A    between atoms: O_14  and  C_15
REMARK    6  A    between atoms: C_15  and  C_17
REMARK                            x       y       z     vdW  Elec       q    Type
REMARK                         _______ _______ _______ _____ _____    ______ ____
ROOT
ATOM      1  O   UNL     1      -8.894  -0.361  -0.047  0.00  0.00    -0.456 OA
ENDROOT
BRANCH   1   2
ATOM      2  C   UNL     1      -7.702  -0.209  -0.657  0.00  0.00    +0.340 C 
ATOM      3  O   UNL     1      -7.606  -0.387  -1.855  0.00  0.00    -0.245 OA
BRANCH   2   4
ATOM      4  C   UNL     1      -6.514   0.174   0.129  0.00  0.00    +0.060 A 
ATOM      5  C   UNL     1      -6.643   0.374   1.508  0.00  0.00    +0.017 A 
ATOM      6  C   UNL     1      -5.582   0.730   2.298  0.00  0.00    +0.027 A 
ATOM      7  C   UNL     1      -4.343   0.889   1.675  0.00  0.00    +0.047 A 
ATOM      8  C   UNL     1      -4.199   0.689   0.276  0.00  0.00    +0.004 A 
ATOM      9  C   UNL     1      -5.285   0.327  -0.521  0.00  0.00    +0.025 A 
ATOM     10  C   UNL     1      -2.803   0.936  -0.021  0.00  0.00    -0.019 A 
ATOM     11  C   UNL     1      -2.201   1.254   1.145  0.00  0.00    +0.020 A 
ATOM     12  N   UNL     1      -3.118   1.229   2.163  0.00  0.00    -0.358 N 
ATOM     13  H   UNL     1      -2.924   1.425   3.093  0.00  0.00    +0.166 HD
ATOM     14  C   UNL     1      -0.731   1.580   1.269  0.00  0.00    +0.053 C 
ATOM     15  C   UNL     1      -0.013   1.086   0.008  0.00  0.00    +0.006 C 
ATOM     16  C   UNL     1      -0.754   1.593  -1.232  0.00  0.00    +0.005 C 
ATOM     17  C   UNL     1      -2.099   0.866  -1.352  0.00  0.00    +0.037 C 
ENDBRANCH   2   4
ENDBRANCH   1   2
BRANCH   1  18
ATOM     18  C   UNL     1     -10.019  -0.739  -0.883  0.00  0.00    +0.270 C 
BRANCH  18  21
ATOM     19  C   UNL     1     -12.316  -0.729   2.111  0.00  0.00    +0.013 A 
ATOM     20  C   UNL     1     -11.186  -0.620   1.327  0.00  0.00    +0.010 A 
ATOM     21  C   UNL     1     -11.258  -0.861  -0.033  0.00  0.00    +0.020 A 
ATOM     22  C   UNL     1     -12.463  -1.208  -0.618  0.00  0.00    +0.133 A 
ATOM     23  C   UNL     1     -13.599  -1.326   0.155  0.00  0.00    +0.046 A 
ATOM     24  C   UNL     1     -13.534  -1.084   1.528  0.00  0.00    +0.039 A 
BRANCH  24  25
ATOM     25  C   UNL     1     -14.749  -1.203   2.361  0.00  0.00    +0.242 C 
ATOM     26  O   UNL     1     -15.808  -1.512   1.851  0.00  0.00    -0.270 OA
ATOM     27  N   UNL     1     -14.682  -0.969   3.687  0.00  0.00    -0.325 N 
ATOM     28  H   UNL     1     -13.837  -0.722   4.094  0.00  0.00    +0.145 HD
ATOM     29  H   UNL     1     -15.480  -1.047   4.234  0.00  0.00    +0.145 HD
ENDBRANCH  24  25
BRANCH  22  30
ATOM     30  N   UNL     1     -12.531  -1.458  -2.075  0.00  0.00    +0.057 N 
ATOM     31  O   UNL     1     -13.591  -1.764  -2.591  0.00  0.00    -0.126 OA
ATOM     32  O   UNL     1     -11.528  -1.359  -2.758  0.00  0.00    -0.126 OA
ENDBRANCH  22  30
ENDBRANCH  18  21
ENDBRANCH   1  18
TORSDOF 6
