REMARK  Name = ZINC12376807
REMARK  7 active torsions:
REMARK  status: ('A' for Active; 'I' for Inactive)
REMARK    1  A    between atoms: C_4  and  O_7
REMARK    2  A    between atoms: O_7  and  C_8
REMARK    3  A    between atoms: C_12  and  C_14
REMARK    4  A    between atoms: C_21  and  C_23
REMARK    5  A    between atoms: C_23  and  O_24
REMARK    6  A    between atoms: C_26  and  N_30
REMARK    7  A    between atoms: C_27  and  C_28
REMARK                            x       y       z     vdW  Elec       q    Type
REMARK                         _______ _______ _______ _____ _____    ______ ____
ROOT
ATOM      1  C   UNL     1      -1.263   2.152   0.118  0.00  0.00    +0.134 C 
ATOM      2  C   UNL     1      -1.278   3.004   1.363  0.00  0.00    +0.164 A 
ATOM      3  C   UNL     1      -1.054   4.331   1.283  0.00  0.00    +0.215 A 
ATOM      4  C   UNL     1      -1.073   5.111   2.475  0.00  0.00    +0.228 A 
ATOM      5  O   UNL     1      -0.874   6.316   2.445  0.00  0.00    -0.284 OA
ATOM      6  C   UNL     1      -1.329   4.441   3.699  0.00  0.00    +0.098 A 
ATOM      7  C   UNL     1      -1.540   3.112   3.674  0.00  0.00    +0.134 A 
ATOM      8  O   UNL     1      -1.516   2.411   2.543  0.00  0.00    -0.457 OA
ATOM      9  O   UNL     1      -0.814   4.944   0.098  0.00  0.00    -0.434 OA
ATOM     10  C   UNL     1      -1.177   4.348  -1.051  0.00  0.00    +0.199 C 
ATOM     11  C   UNL     1      -1.407   3.012  -1.105  0.00  0.00    +0.101 C 
ENDROOT
BRANCH   1  16
ATOM     12  C   UNL     1       1.235  -0.680  -0.023  0.00  0.00    +0.129 A 
ATOM     13  C   UNL     1       2.433   0.015  -0.099  0.00  0.00    +0.046 A 
ATOM     14  C   UNL     1       2.431   1.396  -0.101  0.00  0.00    +0.004 A 
ATOM     15  C   UNL     1       1.234   2.087  -0.029  0.00  0.00    +0.005 A 
ATOM     16  C   UNL     1       0.039   1.397   0.046  0.00  0.00    -0.028 A 
ATOM     17  C   UNL     1       0.036   0.015   0.049  0.00  0.00    +0.051 A 
BRANCH  12  18
ATOM     18  O   UNL     1       1.235  -2.039  -0.020  0.00  0.00    -0.456 OA
BRANCH  18  22
ATOM     19  C   UNL     1       2.838  -3.968   3.255  0.00  0.00    +0.000 A 
ATOM     20  C   UNL     1       2.438  -4.698   2.151  0.00  0.00    +0.004 A 
ATOM     21  C   UNL     1       1.901  -4.055   1.053  0.00  0.00    +0.046 A 
ATOM     22  C   UNL     1       1.762  -2.674   1.059  0.00  0.00    +0.128 A 
ATOM     23  C   UNL     1       2.169  -1.943   2.166  0.00  0.00    +0.046 A 
ATOM     24  C   UNL     1       2.701  -2.592   3.263  0.00  0.00    +0.004 A 
ENDBRANCH  18  22
ENDBRANCH  12  18
ENDBRANCH   1  16
BRANCH  10  25
ATOM     25  N   UNL     1      -1.317   5.103  -2.188  0.00  0.00    -0.328 N 
ATOM     26  H   UNL     1      -1.580   4.682  -3.021  0.00  0.00    +0.145 HD
ATOM     27  H   UNL     1      -1.155   6.059  -2.158  0.00  0.00    +0.145 HD
ENDBRANCH  10  25
BRANCH  11  28
ATOM     28  C   UNL     1      -1.794   2.413  -2.347  0.00  0.00    +0.101 C 
ATOM     29  N   UNL     1      -2.100   1.938  -3.333  0.00  0.00    -0.191 NA
ENDBRANCH  11  28
BRANCH   7  30
ATOM     30  C   UNL     1      -1.814   2.393   4.970  0.00  0.00    +0.230 C 
BRANCH  30  31
ATOM     31  O   UNL     1      -3.220   2.380   5.220  0.00  0.00    -0.387 OA
ATOM     32  H   UNL     1      -3.470   1.932   6.040  0.00  0.00    +0.210 HD
ENDBRANCH  30  31
ENDBRANCH   7  30
TORSDOF 7
