REMARK  Name = ZINC02314100
REMARK  9 active torsions:
REMARK  status: ('A' for Active; 'I' for Inactive)
REMARK    1  A    between atoms: C_1  and  C_2
REMARK    2  A    between atoms: C_2  and  C_4
REMARK    3  A    between atoms: C_2  and  N_59
REMARK    4  A    between atoms: N_6  and  C_7
REMARK    5  A    between atoms: C_16  and  C_17
REMARK    6  A    between atoms: C_17  and  O_19
REMARK    7  A    between atoms: O_19  and  C_20
REMARK    8  A    between atoms: N_24  and  C_27
REMARK    9  A    between atoms: C_31  and  C_33
REMARK                            x       y       z     vdW  Elec       q    Type
REMARK                         _______ _______ _______ _____ _____    ______ ____
ROOT
ATOM      1  C   UNL     1      -6.817  -1.204  -0.358  0.00  0.00    -0.004 C 
ATOM      2  C   UNL     1      -5.875  -1.326   0.841  0.00  0.00    +0.017 C 
ENDROOT
BRANCH   2   8
ATOM      3  C   UNL     1      -3.801  -0.906  -0.337  0.00  0.00    -0.059 C 
ATOM      4  C   UNL     1      -2.602   0.040  -0.426  0.00  0.00    +0.086 C 
ATOM      5  N   UNL     1      -3.070   1.389  -0.773  0.00  0.00    -0.333 N 
ATOM      6  C   UNL     1      -4.014   1.892   0.235  0.00  0.00    +0.086 C 
ATOM      7  C   UNL     1      -5.213   0.945   0.325  0.00  0.00    -0.059 C 
ATOM      8  N   UNL     1      -4.731  -0.401   0.696  0.00  0.00    +0.389 N 
ATOM      9  H   UNL     1      -4.234  -0.342   1.593  0.00  0.00    -0.081 HD
BRANCH   5  10
ATOM     10  C   UNL     1      -1.995   2.267  -0.934  0.00  0.00    +0.030 A 
ATOM     11  C   UNL     1      -0.694   1.812  -0.763  0.00  0.00    +0.023 A 
ATOM     12  C   UNL     1       0.367   2.680  -0.929  0.00  0.00    +0.002 A 
ATOM     13  C   UNL     1       0.134   4.003  -1.259  0.00  0.00    +0.012 A 
ATOM     14  C   UNL     1      -1.160   4.460  -1.425  0.00  0.00    +0.057 A 
ATOM     15  C   UNL     1      -2.225   3.597  -1.261  0.00  0.00    +0.035 A 
BRANCH  14  16
ATOM     16  C   UNL     1      -1.408   5.902  -1.786  0.00  0.00    +0.417 C 
ATOM     17  F   UNL     1      -0.185   6.572  -1.897  0.00  0.00    -0.166 F 
ATOM     18  F   UNL     1      -2.088   5.967  -3.007  0.00  0.00    -0.166 F 
ATOM     19  F   UNL     1      -2.182   6.506  -0.789  0.00  0.00    -0.166 F 
ENDBRANCH  14  16
ENDBRANCH   5  10
ENDBRANCH   2   8
BRANCH   2  20
ATOM     20  C   UNL     1      -6.622  -0.979   2.104  0.00  0.00    +0.203 C 
ATOM     21  O   UNL     1      -6.393   0.065   2.676  0.00  0.00    -0.277 OA
ATOM     22  N   UNL     1      -7.544  -1.830   2.597  0.00  0.00    -0.284 N 
ATOM     23  H   UNL     1      -7.672  -2.698   2.184  0.00  0.00    +0.155 HD
BRANCH  22  24
ATOM     24  C   UNL     1      -8.311  -1.462   3.697  0.00  0.00    +0.073 A 
ATOM     25  C   UNL     1      -7.856  -0.712   4.870  0.00  0.00    +0.023 A 
ATOM     26  C   UNL     1      -6.624  -0.167   5.246  0.00  0.00    +0.031 A 
ATOM     27  C   UNL     1      -6.508   0.495   6.435  0.00  0.00    +0.042 A 
ATOM     28  C   UNL     1      -7.607   0.631   7.276  0.00  0.00    +0.022 A 
ATOM     29  C   UNL     1      -8.831   0.111   6.922  0.00  0.00    +0.028 A 
ATOM     30  C   UNL     1      -8.972  -0.574   5.716  0.00  0.00    +0.049 A 
ATOM     31  N   UNL     1     -10.039  -1.200   5.116  0.00  0.00    -0.348 N 
ATOM     32  H   UNL     1     -10.933  -1.258   5.489  0.00  0.00    +0.166 HD
ATOM     33  C   UNL     1      -9.648  -1.738   3.899  0.00  0.00    +0.147 A 
ATOM     34 CL   UNL     1      -4.979   1.171   6.900  0.00  0.00    -0.084 Cl
BRANCH  33  35
ATOM     35  C   UNL     1     -10.485  -2.456   3.007  0.00  0.00    +0.357 C 
ATOM     36  O   UNL     1     -10.014  -2.967   2.009  0.00  0.00    -0.243 OA
BRANCH  35  37
ATOM     37  O   UNL     1     -11.804  -2.571   3.266  0.00  0.00    -0.463 OA
ATOM     38  C   UNL     1     -12.588  -3.308   2.325  0.00  0.00    +0.280 C 
ENDBRANCH  35  37
ENDBRANCH  33  35
ENDBRANCH  22  24
ENDBRANCH   2  20
TORSDOF 7
