REMARK  Name = ZINC13423869
REMARK  16 active torsions:
REMARK  status: ('A' for Active; 'I' for Inactive)
REMARK    1  A    between atoms: C_1  and  C_2
REMARK    2  A    between atoms: C_2  and  C_4
REMARK    3  A    between atoms: C_2  and  C_10
REMARK    4  A    between atoms: C_4  and  C_5
REMARK    5  A    between atoms: C_5  and  C_6
REMARK    6  A    between atoms: C_6  and  C_7
REMARK    7  A    between atoms: C_7  and  C_8
REMARK    8  A    between atoms: C_7  and  C_9
REMARK    9  A    between atoms: C_16  and  C_43
REMARK   10  A    between atoms: C_24  and  O_39
REMARK   11  A    between atoms: C_26  and  N_35
REMARK   12  A    between atoms: C_27  and  C_34
REMARK   13  A    between atoms: C_31  and  O_33
REMARK   14  A    between atoms: C_36  and  C_38
REMARK   15  A    between atoms: O_39  and  C_40
REMARK   16  A    between atoms: C_40  and  C_42
REMARK                            x       y       z     vdW  Elec       q    Type
REMARK                         _______ _______ _______ _____ _____    ______ ____
ROOT
ATOM      1  C   UNL     1       0.746  -0.661   1.155  0.00  0.00    -0.002 C 
ATOM      2  C   UNL     1       2.161  -0.064   1.310  0.00  0.00    +0.004 C 
ATOM      3  C   UNL     1       3.060  -1.261   1.702  0.00  0.00    +0.004 C 
ATOM      4  C   UNL     1       2.431  -2.451   0.928  0.00  0.00    -0.001 C 
ATOM      5  C   UNL     1       0.925  -2.168   1.002  0.00  0.00    -0.026 C 
ATOM      6  C   UNL     1       0.110  -2.843  -0.067  0.00  0.00    +0.007 C 
ATOM      7  C   UNL     1       0.738  -2.740  -1.458  0.00  0.00    +0.005 C 
ATOM      8  C   UNL     1       2.132  -3.352  -1.403  0.00  0.00    +0.001 C 
ATOM      9  C   UNL     1       3.016  -2.535  -0.466  0.00  0.00    -0.000 C 
ATOM     10  C   UNL     1       3.336  -1.175  -1.070  0.00  0.00    +0.051 C 
ATOM     11  C   UNL     1       4.085  -1.371  -2.395  0.00  0.00    +0.203 C 
ATOM     12  C   UNL     1       3.219  -2.169  -3.361  0.00  0.00    +0.103 C 
ATOM     13  C   UNL     1       2.769  -3.498  -2.781  0.00  0.00    -0.002 C 
ATOM     14  C   UNL     1       1.772  -4.144  -3.754  0.00  0.00    +0.009 C 
ATOM     15  C   UNL     1       2.441  -4.371  -5.107  0.00  0.00    +0.003 C 
ATOM     16  C   UNL     1       2.995  -3.077  -5.688  0.00  0.00    +0.033 C 
ATOM     17  C   UNL     1       3.914  -2.351  -4.709  0.00  0.00    +0.142 C 
ATOM     18  C   UNL     1       3.949  -4.475  -2.625  0.00  0.00    +0.014 C 
ATOM     19  C   UNL     1       0.442  -2.791   2.343  0.00  0.00    +0.012 C 
ENDROOT
BRANCH  12  20
ATOM     20  N   UNL     1       2.022  -1.338  -3.650  0.00  0.00    -0.304 N 
ATOM     21  C   UNL     1       2.166  -0.121  -4.210  0.00  0.00    +0.211 C 
ATOM     22  O   UNL     1       3.273   0.296  -4.478  0.00  0.00    -0.276 OA
ATOM     23  C   UNL     1       0.952   0.722  -4.503  0.00  0.00    +0.109 C 
ATOM     24  H   UNL     1       1.137  -1.672  -3.436  0.00  0.00    +0.149 HD
ENDBRANCH  12  20
BRANCH   1  26
ATOM     25  C   UNL     1       0.308   1.495  -0.014  0.00  0.00    +0.008 C 
ATOM     26  C   UNL     1       0.002  -0.004   0.002  0.00  0.00    -0.010 C 
BRANCH  26  27
ATOM     27  C   UNL     1      -1.503  -0.216   0.179  0.00  0.00    +0.003 C 
BRANCH  27  28
ATOM     28  C   UNL     1      -2.239   0.293  -1.062  0.00  0.00    +0.001 C 
BRANCH  28  29
ATOM     29  C   UNL     1      -3.744   0.081  -0.885  0.00  0.00    +0.003 C 
BRANCH  29  30
ATOM     30  C   UNL     1      -4.480   0.589  -2.126  0.00  0.00    -0.017 C 
ATOM     31  C   UNL     1      -5.970   0.265  -2.003  0.00  0.00    +0.007 C 
ATOM     32  C   UNL     1      -4.295   2.103  -2.244  0.00  0.00    +0.007 C 
ENDBRANCH  29  30
ENDBRANCH  28  29
ENDBRANCH  27  28
ENDBRANCH  26  27
ENDBRANCH   1  26
BRANCH  17  33
ATOM     33  O   UNL     1       5.171  -3.001  -4.611  0.00  0.00    -0.390 OA
ATOM     34  H   UNL     1       5.619  -3.120  -5.460  0.00  0.00    +0.210 HD
ENDBRANCH  17  33
BRANCH  11  35
ATOM     35  O   UNL     1       5.340  -1.996  -2.154  0.00  0.00    -0.459 OA
BRANCH  35  36
ATOM     36  C   UNL     1       6.388  -1.190  -1.921  0.00  0.00    +0.304 C 
ATOM     37  O   UNL     1       6.240   0.009  -1.923  0.00  0.00    -0.251 OA
ATOM     38  C   UNL     1       7.749  -1.781  -1.658  0.00  0.00    +0.136 C 
ENDBRANCH  35  36
ENDBRANCH  11  35
TORSDOF 9
