REMARK  Name = ZINC21604415
REMARK  11 active torsions:
REMARK  status: ('A' for Active; 'I' for Inactive)
REMARK    1  A    between atoms: C_1  and  C_2
REMARK    2  A    between atoms: C_2  and  C_4
REMARK    3  A    between atoms: C_2  and  O_18
REMARK    4  A    between atoms: N_6  and  C_7
REMARK    5  A    between atoms: C_8  and  C_15
REMARK    6  A    between atoms: O_18  and  C_19
REMARK    7  A    between atoms: C_19  and  C_21
REMARK    8  A    between atoms: C_22  and  C_23
REMARK    9  A    between atoms: C_26  and  C_29
REMARK   10  A    between atoms: C_29  and  C_30
REMARK   11  A    between atoms: C_29  and  C_31
REMARK                            x       y       z     vdW  Elec       q    Type
REMARK                         _______ _______ _______ _____ _____    ______ ____
ROOT
ATOM      1  C   UNL     1       0.707  -0.490  -1.238  0.00  0.00    +0.258 C 
ATOM      2  O   UNL     1       1.753  -1.097  -1.142  0.00  0.00    -0.271 OA
ATOM      3  N   UNL     1       0.176  -0.250  -2.453  0.00  0.00    -0.276 N 
ATOM      4  H   UNL     1      -0.660   0.235  -2.530  0.00  0.00    +0.155 HD
ENDROOT
BRANCH   3   5
ATOM      5  C   UNL     1       0.825  -0.697  -3.594  0.00  0.00    +0.084 A 
ATOM      6  C   UNL     1       0.436  -0.539  -4.911  0.00  0.00    +0.068 A 
ATOM      7  C   UNL     1       1.304  -1.109  -5.940  0.00  0.00    -0.023 A 
ATOM      8  C   UNL     1       2.395  -1.729  -5.455  0.00  0.00    -0.004 A 
ATOM      9  S   UNL     1       2.268  -1.548  -3.694  0.00  0.00    -0.077 S 
ATOM     10  C   UNL     1       3.251  -2.300  -6.553  0.00  0.00    +0.043 C 
ATOM     11  C   UNL     1       2.328  -2.328  -7.792  0.00  0.00    +0.010 C 
ATOM     12  C   UNL     1       1.326  -1.202  -7.464  0.00  0.00    +0.037 C 
BRANCH   6  13
ATOM     13  C   UNL     1      -0.799   0.170  -5.262  0.00  0.00    +0.244 C 
ATOM     14  O   UNL     1      -0.776   1.371  -5.457  0.00  0.00    -0.270 OA
ATOM     15  N   UNL     1      -1.959  -0.508  -5.367  0.00  0.00    -0.325 N 
ATOM     16  H   UNL     1      -1.977  -1.465  -5.211  0.00  0.00    +0.145 HD
ATOM     17  H   UNL     1      -2.775  -0.038  -5.599  0.00  0.00    +0.145 HD
ENDBRANCH   6  13
ENDBRANCH   3   5
BRANCH   1  19
ATOM     18  C   UNL     1      -0.019   1.526   0.010  0.00  0.00    +0.062 C 
ATOM     19  C   UNL     1       0.002  -0.004   0.002  0.00  0.00    +0.259 C 
BRANCH  19  20
ATOM     20  O   UNL     1       0.693  -0.477   1.160  0.00  0.00    -0.449 OA
BRANCH  20  21
ATOM     21  C   UNL     1      -0.046  -0.698   2.267  0.00  0.00    +0.333 C 
ATOM     22  O   UNL     1      -1.244  -0.493   2.248  0.00  0.00    -0.246 OA
BRANCH  21  23
ATOM     23  C   UNL     1       0.595  -1.183   3.489  0.00  0.00    +0.092 C 
ATOM     24  C   UNL     1      -0.144  -1.403   4.596  0.00  0.00    +0.015 C 
BRANCH  24  25
ATOM     25  C   UNL     1       0.500  -1.891   5.826  0.00  0.00    -0.025 A 
ATOM     26  C   UNL     1       1.879  -2.122   5.852  0.00  0.00    +0.008 A 
ATOM     27  C   UNL     1       2.476  -2.579   7.009  0.00  0.00    +0.004 A 
ATOM     28  C   UNL     1       1.714  -2.809   8.141  0.00  0.00    -0.045 A 
ATOM     29  C   UNL     1       0.348  -2.583   8.122  0.00  0.00    +0.004 A 
ATOM     30  C   UNL     1      -0.262  -2.120   6.975  0.00  0.00    +0.008 A 
BRANCH  28  31
ATOM     31  C   UNL     1       2.373  -3.309   9.400  0.00  0.00    +0.013 C 
ATOM     32  C   UNL     1       2.148  -2.301  10.528  0.00  0.00    +0.012 C 
ATOM     33  C   UNL     1       1.767  -4.658   9.792  0.00  0.00    +0.012 C 
ENDBRANCH  28  31
ENDBRANCH  24  25
ENDBRANCH  21  23
ENDBRANCH  20  21
ENDBRANCH  19  20
ENDBRANCH   1  19
TORSDOF 8
