REMARK  Name = ZINC24553554
REMARK  4 active torsions:
REMARK  status: ('A' for Active; 'I' for Inactive)
REMARK    1  A    between atoms: C_1  and  C_2
REMARK    2  A    between atoms: C_5  and  C_26
REMARK    3  A    between atoms: C_12  and  C_14
REMARK    4  A    between atoms: C_14  and  N_15
REMARK                            x       y       z     vdW  Elec       q    Type
REMARK                         _______ _______ _______ _____ _____    ______ ____
ROOT
ATOM      1  C   UNL     1       3.708  -0.745  -0.039  0.00  0.00    +0.046 C 
ATOM      2  C   UNL     1       2.408   0.018  -0.021  0.00  0.00    -0.024 A 
ATOM      3  C   UNL     1       1.220  -0.667  -0.013  0.00  0.00    +0.006 A 
ATOM      4  C   UNL     1       0.002  -0.004   0.002  0.00  0.00    +0.005 A 
ATOM      5  C   UNL     1      -0.017   1.379   0.010  0.00  0.00    -0.035 A 
ATOM      6  C   UNL     1       1.167   2.072   0.002  0.00  0.00    +0.044 A 
ATOM      7  C   UNL     1       2.427   1.431  -0.014  0.00  0.00    +0.083 A 
ATOM      8  N   UNL     1       3.501   2.251  -0.021  0.00  0.00    -0.224 NA
ATOM      9  C   UNL     1       3.390   3.559  -0.011  0.00  0.00    +0.166 A 
ATOM     10  S   UNL     1       1.618   3.791   0.007  0.00  0.00    -0.052 S 
ATOM     11  N   UNL     1       4.392   4.516  -0.016  0.00  0.00    -0.263 N 
ATOM     12  C   UNL     1       5.685   4.137  -0.030  0.00  0.00    +0.237 C 
ATOM     13  O   UNL     1       5.972   2.959  -0.039  0.00  0.00    -0.274 OA
ATOM     14  C   UNL     1      -1.329   2.119   0.020  0.00  0.00    +0.045 C 
ATOM     15  H   UNL     1       4.131   5.584  -0.008  0.00  0.00    +0.157 HD
ENDROOT
BRANCH  12  16
ATOM     16  C   UNL     1       6.775   5.178  -0.035  0.00  0.00    +0.214 C 
BRANCH  16  17
ATOM     17  N   UNL     1       8.082   4.516  -0.051  0.00  0.00    -0.215 N 
ATOM     18  C   UNL     1       8.749   4.179  -1.176  0.00  0.00    +0.247 C 
ATOM     19  O   UNL     1       8.396   4.358  -2.322  0.00  0.00    -0.273 OA
ATOM     20  C   UNL     1      10.026   3.533  -0.703  0.00  0.00    +0.113 C 
ATOM     21  C   UNL     1      11.253   4.303  -1.208  0.00  0.00    +0.035 C 
ATOM     22  C   UNL     1      12.308   3.196  -1.470  0.00  0.00    +0.003 C 
ATOM     23  C   UNL     1      11.453   2.031  -2.030  0.00  0.00    +0.003 C 
ATOM     24  C   UNL     1      10.143   2.095  -1.213  0.00  0.00    +0.035 C 
ATOM     25  N   UNL     1       9.939   3.576   0.758  0.00  0.00    -0.285 N 
ATOM     26  C   UNL     1       8.767   4.176   1.048  0.00  0.00    +0.310 C 
ATOM     27  O   UNL     1       8.374   4.381   2.180  0.00  0.00    -0.252 OA
ATOM     28  H   UNL     1      10.753   3.160   1.370  0.00  0.00    +0.151 HD
ENDBRANCH  16  17
ENDBRANCH  12  16
TORSDOF 2
