REMARK  Name = ZINC20978213
REMARK  9 active torsions:
REMARK  status: ('A' for Active; 'I' for Inactive)
REMARK    1  A    between atoms: C_1  and  C_2
REMARK    2  A    between atoms: C_5  and  C_34
REMARK    3  A    between atoms: C_6  and  C_8
REMARK    4  A    between atoms: C_8  and  N_9
REMARK    5  A    between atoms: C_12  and  C_15
REMARK    6  A    between atoms: C_15  and  N_16
REMARK    7  A    between atoms: N_16  and  S_17
REMARK    8  A    between atoms: S_17  and  C_20
REMARK    9  A    between atoms: C_29  and  C_33
REMARK                            x       y       z     vdW  Elec       q    Type
REMARK                         _______ _______ _______ _____ _____    ______ ____
ROOT
ATOM      1  N   UNL     1       4.173   0.030  -2.648  0.00  0.00    -0.190 NA
ATOM      2  H   UNL     1       4.489   0.891  -2.041  0.00  0.00    +0.148 HD
ENDROOT
BRANCH   1   3
ATOM      3  S   UNL     1       5.231  -0.619  -3.745  0.00  0.00    +0.058 S 
ATOM      4  O   UNL     1       6.487   0.004  -3.515  0.00  0.00    -0.153 OA
ATOM      5  O   UNL     1       5.059  -2.028  -3.690  0.00  0.00    -0.153 OA
BRANCH   3   6
ATOM      6  C   UNL     1       4.701  -0.108  -5.345  0.00  0.00    +0.107 A 
ATOM      7  C   UNL     1       3.810  -0.885  -6.064  0.00  0.00    +0.030 A 
ATOM      8  C   UNL     1       3.404  -0.468  -7.309  0.00  0.00    +0.018 A 
ATOM      9  C   UNL     1       3.877   0.723  -7.878  0.00  0.00    +0.029 A 
ATOM     10  C   UNL     1       4.772   1.503  -7.161  0.00  0.00    +0.049 A 
ATOM     11  C   UNL     1       5.174   1.061  -5.889  0.00  0.00    +0.053 A 
ATOM     12  N   UNL     1       5.338   2.685  -7.560  0.00  0.00    -0.284 N 
ATOM     13  C   UNL     1       5.228   3.604  -8.453  0.00  0.00    +0.221 C 
ATOM     14  O   UNL     1       5.838   4.626  -8.222  0.00  0.00    -0.275 OA
ATOM     15  C   UNL     1       4.461   3.597  -9.729  0.00  0.00    +0.082 C 
ATOM     16  C   UNL     1       3.141   2.893  -9.598  0.00  0.00    +0.087 C 
ATOM     17  S   UNL     1       3.278   1.117  -9.471  0.00  0.00    -0.123 S 
ATOM     18  C   UNL     1       4.212   5.042 -10.165  0.00  0.00    +0.018 C 
ATOM     19  H   UNL     1       6.193   3.100  -7.006  0.00  0.00    +0.155 HD
ENDBRANCH   3   6
ENDBRANCH   1   3
BRANCH   1  20
ATOM     20  C   UNL     1       2.771  -0.394  -2.644  0.00  0.00    +0.109 C 
BRANCH  20  24
ATOM     21  N   UNL     1      -0.018   1.464   0.010  0.00  0.00    +0.382 N 
ATOM     22  C   UNL     1       1.344   2.014   0.000  0.00  0.00    -0.078 C 
ATOM     23  C   UNL     1       2.062   1.579  -1.280  0.00  0.00    -0.014 C 
ATOM     24  C   UNL     1       2.108   0.049  -1.338  0.00  0.00    +0.001 C 
ATOM     25  C   UNL     1       0.680  -0.499  -1.278  0.00  0.00    -0.014 C 
ATOM     26  C   UNL     1       0.002  -0.004   0.002  0.00  0.00    -0.078 C 
ATOM     27  H   UNL     1      -0.521   1.798  -0.910  0.00  0.00    -0.081 HD
BRANCH  21  28
ATOM     28  C   UNL     1      -0.783   1.974   1.156  0.00  0.00    -0.043 C 
BRANCH  28  34
ATOM     29  C   UNL     1       1.485   5.882   3.308  0.00  0.00    +0.044 C 
ATOM     30  C   UNL     1       0.506   5.332   2.303  0.00  0.00    -0.050 A 
ATOM     31  C   UNL     1      -0.206   6.194   1.488  0.00  0.00    +0.003 A 
ATOM     32  C   UNL     1      -1.104   5.689   0.567  0.00  0.00    +0.004 A 
ATOM     33  C   UNL     1      -1.287   4.324   0.455  0.00  0.00    -0.049 A 
ATOM     34  C   UNL     1      -0.580   3.463   1.273  0.00  0.00    -0.061 A 
ATOM     35  C   UNL     1       0.319   3.967   2.195  0.00  0.00    +0.005 A 
ATOM     36  C   UNL     1      -2.261   3.773  -0.554  0.00  0.00    +0.044 C 
ENDBRANCH  28  34
ENDBRANCH  21  28
ENDBRANCH  20  24
ENDBRANCH   1  20
TORSDOF 6
