REMARK  Name = ZINC14554699
REMARK  12 active torsions:
REMARK  status: ('A' for Active; 'I' for Inactive)
REMARK    1  A    between atoms: C_1  and  C_2
REMARK    2  A    between atoms: C_2  and  C_3
REMARK    3  A    between atoms: C_3  and  O_4
REMARK    4  A    between atoms: O_4  and  C_5
REMARK    5  A    between atoms: C_8  and  C_12
REMARK    6  A    between atoms: N_14  and  C_15
REMARK    7  A    between atoms: C_15  and  N_17
REMARK    8  A    between atoms: N_17  and  C_18
REMARK    9  A    between atoms: C_21  and  C_24
REMARK   10  A    between atoms: N_26  and  C_27
REMARK   11  A    between atoms: C_27  and  C_28
REMARK   12  A    between atoms: C_27  and  C_29
REMARK                            x       y       z     vdW  Elec       q    Type
REMARK                         _______ _______ _______ _____ _____    ______ ____
ROOT
ATOM      1  C   UNL     1      -4.957   5.308   0.158  0.00  0.00    +0.141 C 
ATOM      2  S   UNL     1      -3.489   6.189   0.156  0.00  0.00    -0.018 S 
ENDROOT
BRANCH   1   5
ATOM      3  C   UNL     1      -6.152   7.301   0.378  0.00  0.00    +0.250 C 
ATOM      4  O   UNL     1      -5.110   7.927   0.377  0.00  0.00    -0.270 OA
ATOM      5  N   UNL     1      -6.133   5.958   0.268  0.00  0.00    -0.264 N 
ATOM      6  H   UNL     1      -6.964   5.459   0.269  0.00  0.00    +0.157 HD
BRANCH   3  10
ATOM      7  C   UNL     1      -9.857   9.347   0.726  0.00  0.00    +0.134 A 
ATOM      8  C   UNL     1      -9.838   7.962   0.613  0.00  0.00    +0.047 A 
ATOM      9  C   UNL     1      -8.639   7.295   0.494  0.00  0.00    +0.017 A 
ATOM     10  C   UNL     1      -7.439   8.012   0.499  0.00  0.00    +0.038 A 
ATOM     11  C   UNL     1      -7.462   9.405   0.613  0.00  0.00    +0.032 A 
ATOM     12  C   UNL     1      -8.666  10.065   0.725  0.00  0.00    +0.060 A 
ATOM     13 BR   UNL     1      -8.699  11.950   0.880  0.00  0.00    -0.046 Br
BRANCH   7  14
ATOM     14  O   UNL     1     -11.041  10.001   0.837  0.00  0.00    -0.491 OA
BRANCH  14  15
ATOM     15  C   UNL     1     -12.226   9.202   0.830  0.00  0.00    +0.229 C 
BRANCH  15  17
ATOM     16  C   UNL     1     -14.721   9.253   0.957  0.00  0.00    +0.007 C 
ATOM     17  C   UNL     1     -13.453  10.108   0.964  0.00  0.00    +0.038 C 
ENDBRANCH  15  17
ENDBRANCH  14  15
ENDBRANCH   7  14
ENDBRANCH   3  10
ENDBRANCH   1   5
BRANCH   1  18
ATOM     18  N   UNL     1      -4.937   3.965   0.048  0.00  0.00    -0.297 N 
ATOM     19  H   UNL     1      -5.769   3.473  -0.032  0.00  0.00    +0.154 HD
BRANCH  18  20
ATOM     20  C   UNL     1      -3.721   3.284   0.050  0.00  0.00    +0.033 A 
ATOM     21  C   UNL     1      -2.719   3.655   0.941  0.00  0.00    +0.024 A 
ATOM     22  C   UNL     1      -1.517   2.984   0.946  0.00  0.00    +0.015 A 
ATOM     23  C   UNL     1      -1.304   1.929   0.054  0.00  0.00    +0.037 A 
ATOM     24  C   UNL     1      -2.311   1.562  -0.843  0.00  0.00    +0.015 A 
ATOM     25  C   UNL     1      -3.513   2.234  -0.839  0.00  0.00    +0.024 A 
BRANCH  23  26
ATOM     26  C   UNL     1      -0.017   1.207   0.056  0.00  0.00    +0.244 C 
ATOM     27  O   UNL     1       0.860   1.531   0.834  0.00  0.00    -0.270 OA
ATOM     28  N   UNL     1       0.185   0.186  -0.801  0.00  0.00    -0.309 N 
ATOM     29  H   UNL     1      -0.514  -0.071  -1.421  0.00  0.00    +0.149 HD
BRANCH  28  30
ATOM     30  C   UNL     1       1.461  -0.533  -0.795  0.00  0.00    +0.067 C 
ATOM     31  C   UNL     1       1.252  -1.947  -1.343  0.00  0.00    +0.027 C 
ATOM     32  C   UNL     1       2.470   0.209  -1.672  0.00  0.00    +0.027 C 
ENDBRANCH  28  30
ENDBRANCH  23  26
ENDBRANCH  18  20
ENDBRANCH   1  18
TORSDOF 9
