REMARK  Name = ZINC14467267
REMARK  4 active torsions:
REMARK  status: ('A' for Active; 'I' for Inactive)
REMARK    1  A    between atoms: C_6  and  S_7
REMARK    2  A    between atoms: S_7  and  N_10
REMARK    3  A    between atoms: C_23  and  C_26
REMARK    4  A    between atoms: C_31  and  O_32
REMARK                            x       y       z     vdW  Elec       q    Type
REMARK                         _______ _______ _______ _____ _____    ______ ____
ROOT
ATOM      1  C   UNL     1      -6.034   0.717   0.244  0.00  0.00    +0.030 A 
ATOM      2  C   UNL     1      -4.719   0.571   0.636  0.00  0.00    +0.025 A 
ATOM      3  C   UNL     1      -3.740   1.421   0.137  0.00  0.00    +0.031 A 
ATOM      4  C   UNL     1      -4.106   2.433  -0.758  0.00  0.00    -0.018 A 
ATOM      5  C   UNL     1      -5.420   2.567  -1.147  0.00  0.00    +0.034 A 
ATOM      6  C   UNL     1      -6.386   1.712  -0.649  0.00  0.00    +0.106 A 
ATOM      7  C   UNL     1      -3.037   3.330  -1.248  0.00  0.00    +0.049 C 
ATOM      8  C   UNL     1      -3.137   4.031  -2.554  0.00  0.00    -0.023 C 
ATOM      9  C   UNL     1      -1.915   4.180  -3.050  0.00  0.00    -0.030 C 
ATOM     10  C   UNL     1      -0.887   3.547  -2.109  0.00  0.00    +0.033 C 
ATOM     11  C   UNL     1      -1.735   2.486  -1.395  0.00  0.00    +0.029 C 
ATOM     12  C   UNL     1      -1.332   2.114   0.020  0.00  0.00    +0.109 C 
ATOM     13  N   UNL     1      -2.407   1.231   0.522  0.00  0.00    -0.336 N 
ATOM     14  H   UNL     1      -2.185   0.508   1.129  0.00  0.00    +0.147 HD
ENDROOT
BRANCH  12  15
ATOM     15  C   UNL     1      -0.017   1.378   0.010  0.00  0.00    +0.017 A 
ATOM     16  C   UNL     1       0.002  -0.004   0.002  0.00  0.00    +0.029 A 
ATOM     17  C   UNL     1       1.209  -0.681  -0.013  0.00  0.00    +0.043 A 
ATOM     18  C   UNL     1       2.399   0.024  -0.020  0.00  0.00    +0.043 A 
ATOM     19  C   UNL     1       2.385   1.406  -0.013  0.00  0.00    +0.084 A 
ATOM     20  C   UNL     1       1.175   2.087   0.002  0.00  0.00    +0.140 A 
ATOM     21 CL   UNL     1       3.879   2.291  -0.022  0.00  0.00    -0.080 Cl
ATOM     22 CL   UNL     1       1.229  -2.417  -0.023  0.00  0.00    -0.083 Cl
BRANCH  20  23
ATOM     23  O   UNL     1       1.158   3.446   0.009  0.00  0.00    -0.505 OA
ATOM     24  H   UNL     1       1.162   3.835   0.894  0.00  0.00    +0.292 HD
ENDBRANCH  20  23
ENDBRANCH  12  15
BRANCH   6  25
ATOM     25  S   UNL     1      -8.066   1.890  -1.153  0.00  0.00    +0.061 S 
ATOM     26  O   UNL     1      -8.044   2.547  -2.413  0.00  0.00    -0.153 OA
ATOM     27  O   UNL     1      -8.682   0.624  -0.965  0.00  0.00    -0.153 OA
BRANCH  25  28
ATOM     28  N   UNL     1      -8.789   2.932  -0.088  0.00  0.00    -0.172 NA
ATOM     29  C   UNL     1      -9.448   2.433   1.129  0.00  0.00    +0.137 C 
ATOM     30  C   UNL     1      -8.914   3.236   2.326  0.00  0.00    +0.177 C 
ATOM     31  O   UNL     1      -9.055   4.633   2.054  0.00  0.00    -0.377 OA
ATOM     32  C   UNL     1      -8.298   5.090   0.931  0.00  0.00    +0.177 C 
ATOM     33  C   UNL     1      -8.796   4.382  -0.335  0.00  0.00    +0.137 C 
ENDBRANCH  25  28
ENDBRANCH   6  25
TORSDOF 4
