REMARK  Name = ZINC35706570
REMARK  8 active torsions:
REMARK  status: ('A' for Active; 'I' for Inactive)
REMARK    1  A    between atoms: C_1  and  C_2
REMARK    2  A    between atoms: C_5  and  N_8
REMARK    3  A    between atoms: C_9  and  C_22
REMARK    4  A    between atoms: C_12  and  S_13
REMARK    5  A    between atoms: S_13  and  C_14
REMARK    6  A    between atoms: C_14  and  C_15
REMARK    7  A    between atoms: C_22  and  N_23
REMARK    8  A    between atoms: N_26  and  C_27
REMARK                            x       y       z     vdW  Elec       q    Type
REMARK                         _______ _______ _______ _____ _____    ______ ____
ROOT
ATOM      1  N   UNL     1       0.058  -4.153  -0.017  0.00  0.00    -0.273 N 
ATOM      2  C   UNL     1      -0.916  -5.003   0.433  0.00  0.00    +0.156 A 
ATOM      3  N   UNL     1      -0.493  -6.219   0.233  0.00  0.00    -0.132 NA
ATOM      4  N   UNL     1       0.672  -6.198  -0.309  0.00  0.00    -0.122 NA
ATOM      5  C   UNL     1       1.058  -4.956  -0.491  0.00  0.00    +0.196 A 
ENDROOT
BRANCH   1  10
ATOM      6  C   UNL     1      -0.043   1.522   0.049  0.00  0.00    +0.044 C 
ATOM      7  C   UNL     1      -0.016   0.016   0.031  0.00  0.00    -0.050 A 
ATOM      8  C   UNL     1      -0.008  -0.660  -1.175  0.00  0.00    +0.005 A 
ATOM      9  C   UNL     1       0.016  -2.041  -1.194  0.00  0.00    +0.026 A 
ATOM     10  C   UNL     1       0.034  -2.750  -0.001  0.00  0.00    +0.050 A 
ATOM     11  C   UNL     1       0.026  -2.069   1.209  0.00  0.00    +0.026 A 
ATOM     12  C   UNL     1       0.007  -0.688   1.222  0.00  0.00    +0.005 A 
ENDBRANCH   1  10
BRANCH   5  13
ATOM     13  S   UNL     1       2.579  -4.426  -1.207  0.00  0.00    -0.081 S 
BRANCH  13  14
ATOM     14  C   UNL     1       3.434  -5.972  -1.616  0.00  0.00    +0.112 C 
BRANCH  14  15
ATOM     15  C   UNL     1       4.768  -5.658  -2.244  0.00  0.00    -0.037 A 
ATOM     16  C   UNL     1       4.866  -5.505  -3.615  0.00  0.00    +0.007 A 
ATOM     17  C   UNL     1       6.088  -5.216  -4.192  0.00  0.00    +0.038 A 
ATOM     18  C   UNL     1       7.214  -5.080  -3.397  0.00  0.00    +0.123 A 
ATOM     19  C   UNL     1       7.114  -5.233  -2.025  0.00  0.00    +0.038 A 
ATOM     20  C   UNL     1       5.890  -5.517  -1.449  0.00  0.00    +0.007 A 
ATOM     21  F   UNL     1       8.409  -4.798  -3.960  0.00  0.00    -0.205 F 
ENDBRANCH  14  15
ENDBRANCH  13  14
ENDBRANCH   5  13
BRANCH   2  22
ATOM     22  C   UNL     1      -2.234  -4.606   1.048  0.00  0.00    +0.182 C 
BRANCH  22  23
ATOM     23  N   UNL     1      -3.244  -4.472  -0.005  0.00  0.00    -0.292 N 
ATOM     24  C   UNL     1      -4.506  -4.122   0.313  0.00  0.00    +0.304 C 
ATOM     25  O   UNL     1      -4.807  -3.918   1.473  0.00  0.00    -0.252 OA
ATOM     26  N   UNL     1      -5.435  -4.000  -0.656  0.00  0.00    -0.269 N 
ATOM     27  H   UNL     1      -3.004  -4.636  -0.930  0.00  0.00    +0.151 HD
ATOM     28  H   UNL     1      -5.181  -4.097  -1.587  0.00  0.00    +0.156 HD
BRANCH  26  29
ATOM     29  C   UNL     1      -6.768  -3.731  -0.318  0.00  0.00    +0.036 A 
ATOM     30  C   UNL     1      -7.799  -4.286  -1.064  0.00  0.00    +0.026 A 
ATOM     31  C   UNL     1      -9.113  -4.021  -0.730  0.00  0.00    +0.041 A 
ATOM     32  C   UNL     1      -9.402  -3.202   0.348  0.00  0.00    +0.142 A 
ATOM     33  C   UNL     1      -8.375  -2.646   1.093  0.00  0.00    +0.078 A 
ATOM     34  C   UNL     1      -7.059  -2.915   0.766  0.00  0.00    +0.046 A 
ATOM     35 CL   UNL     1      -8.740  -1.619   2.444  0.00  0.00    -0.081 Cl
ATOM     36  F   UNL     1     -10.688  -2.943   0.673  0.00  0.00    -0.204 F 
ENDBRANCH  26  29
ENDBRANCH  22  23
ENDBRANCH   2  22
TORSDOF 7
