REMARK  Name = ZINC44320961
REMARK  8 active torsions:
REMARK  status: ('A' for Active; 'I' for Inactive)
REMARK    1  A    between atoms: C_1  and  C_2
REMARK    2  A    between atoms: C_7  and  C_8
REMARK    3  A    between atoms: C_8  and  CA_9
REMARK    4  A    between atoms: CA_9  and  C_11
REMARK    5  A    between atoms: CA_9  and  N_14
REMARK    6  A    between atoms: C_15  and  O_17
REMARK    7  A    between atoms: O_17  and  C_18
REMARK    8  A    between atoms: C_18  and  C_19
REMARK                            x       y       z     vdW  Elec       q    Type
REMARK                         _______ _______ _______ _____ _____    ______ ____
ROOT
ATOM      1  N   UNL     1      -2.384   0.931   1.812  0.00  0.00    -0.267 N 
ATOM      2  C   UNL     1      -3.689   0.671   1.594  0.00  0.00    +0.401 C 
ATOM      3  O   UNL     1      -4.265  -0.156   2.272  0.00  0.00    -0.226 OA
ATOM      4  H   UNL     1      -1.924   1.592   1.270  0.00  0.00    +0.153 HD
ENDROOT
BRANCH   1   5
ATOM      5  CA  UNL     1      -1.661   0.216   2.866  0.00  0.00    +0.193 C 
BRANCH   5   6
ATOM      6  C   UNL     1      -1.817   0.953   4.171  0.00  0.00    +0.376 C 
ATOM      7  O   UNL     1      -2.312   2.067   4.186  0.00  0.00    -0.244 OA
ATOM      8  OXT UNL     1      -1.448   0.435   5.211  0.00  0.00    -0.244 OA
ENDBRANCH   5   6
BRANCH   5   9
ATOM      9  C   UNL     1      -0.177   0.134   2.501  0.00  0.00    +0.069 C 
BRANCH   9  16
ATOM     10  C   UNL     1      -0.152  -2.746   2.715  0.00  0.00    +0.044 C 
ATOM     11  C   UNL     1       0.002  -2.090   1.367  0.00  0.00    -0.047 A 
ATOM     12  C   UNL     1       0.149  -2.868   0.233  0.00  0.00    +0.006 A 
ATOM     13  C   UNL     1       0.290  -2.267  -1.004  0.00  0.00    +0.038 A 
ATOM     14  C   UNL     1       0.283  -0.886  -1.107  0.00  0.00    +0.124 A 
ATOM     15  C   UNL     1       0.136  -0.109   0.029  0.00  0.00    +0.042 A 
ATOM     16  C   UNL     1      -0.010  -0.712   1.264  0.00  0.00    -0.039 A 
ATOM     17  F   UNL     1       0.421  -0.298  -2.315  0.00  0.00    -0.205 F 
ENDBRANCH   9  16
ENDBRANCH   5   9
ENDBRANCH   1   5
BRANCH   2  18
ATOM     18  O   UNL     1      -4.354   1.329   0.625  0.00  0.00    -0.449 OA
BRANCH  18  19
ATOM     19  C   UNL     1      -5.734   1.003   0.450  0.00  0.00    +0.246 C 
BRANCH  19  20
ATOM     20  C   UNL     1      -6.316   1.845  -0.688  0.00  0.00    +0.088 C 
ATOM     21  C   UNL     1      -6.380   3.296  -0.280  0.00  0.00    -0.029 A 
ATOM     22  C   UNL     1      -5.404   4.198   0.088  0.00  0.00    +0.005 A 
ATOM     23  C   UNL     1      -5.751   5.496   0.420  0.00  0.00    +0.000 A 
ATOM     24  C   UNL     1      -7.076   5.891   0.384  0.00  0.00    +0.001 A 
ATOM     25  C   UNL     1      -8.059   4.995   0.017  0.00  0.00    +0.009 A 
ATOM     26  C   UNL     1      -7.716   3.684  -0.319  0.00  0.00    -0.014 A 
ATOM     27  C   UNL     1      -8.553   2.534  -0.742  0.00  0.00    -0.014 A 
ATOM     28  C   UNL     1      -7.739   1.427  -0.967  0.00  0.00    -0.029 A 
ATOM     29  C   UNL     1      -8.290   0.229  -1.371  0.00  0.00    +0.005 A 
ATOM     30  C   UNL     1      -9.657   0.123  -1.556  0.00  0.00    +0.000 A 
ATOM     31  C   UNL     1     -10.474   1.217  -1.335  0.00  0.00    +0.001 A 
ATOM     32  C   UNL     1      -9.931   2.419  -0.930  0.00  0.00    +0.009 A 
ENDBRANCH  19  20
ENDBRANCH  18  19
ENDBRANCH   2  18
TORSDOF 7
