REMARK  Name = ZINC36586835
REMARK  19 active torsions:
REMARK  status: ('A' for Active; 'I' for Inactive)
REMARK    1  A    between atoms: C_1  and  C_2
REMARK    2  A    between atoms: C_5  and  C_8
REMARK    3  A    between atoms: C_8  and  C_10
REMARK    4  A    between atoms: C_8  and  N_21
REMARK    5  A    between atoms: N_12  and  C_13
REMARK    6  A    between atoms: C_13  and  C_14
REMARK    7  A    between atoms: C_13  and  C_15
REMARK    8  A    between atoms: C_13  and  C_16
REMARK    9  A    between atoms: C_16  and  C_17
REMARK   10  A    between atoms: C_17  and  C_18
REMARK   11  A    between atoms: C_17  and  C_19
REMARK   12  A    between atoms: C_17  and  C_20
REMARK   13  A    between atoms: N_21  and  C_32
REMARK   14  A    between atoms: C_22  and  C_24
REMARK   15  A    between atoms: C_25  and  O_31
REMARK   16  A    between atoms: C_29  and  O_30
REMARK   17  A    between atoms: C_32  and  C_33
REMARK   18  A    between atoms: C_32  and  C_34
REMARK   19  A    between atoms: C_32  and  C_35
REMARK                            x       y       z     vdW  Elec       q    Type
REMARK                         _______ _______ _______ _____ _____    ______ ____
ROOT
ATOM      1  C   UNL     1       0.669  -3.598   0.293  0.00  0.00    +0.193 C 
ENDROOT
BRANCH   1   6
ATOM      2  C   UNL     1      -0.373   2.024  -0.545  0.00  0.00    +0.044 C 
ATOM      3  C   UNL     1      -0.101   0.558  -0.327  0.00  0.00    -0.050 A 
ATOM      4  C   UNL     1       0.220  -0.253  -1.399  0.00  0.00    +0.004 A 
ATOM      5  C   UNL     1       0.470  -1.598  -1.198  0.00  0.00    +0.006 A 
ATOM      6  C   UNL     1       0.398  -2.132   0.075  0.00  0.00    -0.018 A 
ATOM      7  C   UNL     1       0.078  -1.321   1.147  0.00  0.00    +0.006 A 
ATOM      8  C   UNL     1      -0.167   0.025   0.947  0.00  0.00    +0.004 A 
ENDBRANCH   1   6
BRANCH   1   9
ATOM      9  C   UNL     1       2.115  -3.893  -0.012  0.00  0.00    +0.239 C 
ATOM     10  O   UNL     1       2.817  -4.419   0.826  0.00  0.00    -0.273 OA
ATOM     11  N   UNL     1       2.629  -3.572  -1.216  0.00  0.00    -0.308 N 
ATOM     12  H   UNL     1       2.067  -3.151  -1.886  0.00  0.00    +0.149 HD
BRANCH  11  13
ATOM     13  C   UNL     1       4.034  -3.858  -1.513  0.00  0.00    +0.030 C 
ATOM     14  C   UNL     1       4.929  -2.953  -0.665  0.00  0.00    +0.031 C 
ATOM     15  C   UNL     1       4.336  -5.322  -1.189  0.00  0.00    +0.031 C 
BRANCH  13  16
ATOM     16  C   UNL     1       4.305  -3.598  -2.997  0.00  0.00    +0.031 C 
BRANCH  16  17
ATOM     17  C   UNL     1       3.253  -4.319  -3.841  0.00  0.00    -0.036 C 
ATOM     18  C   UNL     1       1.894  -3.641  -3.651  0.00  0.00    +0.010 C 
ATOM     19  C   UNL     1       3.652  -4.255  -5.317  0.00  0.00    +0.010 C 
ATOM     20  C   UNL     1       3.159  -5.781  -3.401  0.00  0.00    +0.010 C 
ENDBRANCH  16  17
ENDBRANCH  13  16
ENDBRANCH  11  13
ENDBRANCH   1   9
BRANCH   1  21
ATOM     21  N   UNL     1       0.384  -3.945   1.688  0.00  0.00    -0.277 N 
ATOM     22  C   UNL     1       0.890  -3.193   2.686  0.00  0.00    +0.255 C 
ATOM     23  O   UNL     1       1.568  -2.217   2.428  0.00  0.00    -0.270 OA
BRANCH  22  24
ATOM     24  C   UNL     1       0.621  -3.553   4.088  0.00  0.00    +0.119 A 
ATOM     25  C   UNL     1       1.345  -4.584   4.704  0.00  0.00    +0.133 A 
ATOM     26  C   UNL     1       1.085  -4.915   6.024  0.00  0.00    +0.046 A 
ATOM     27  C   UNL     1       0.114  -4.233   6.733  0.00  0.00    +0.007 A 
ATOM     28  C   UNL     1      -0.607  -3.215   6.136  0.00  0.00    +0.046 A 
ATOM     29  C   UNL     1      -0.358  -2.865   4.819  0.00  0.00    +0.133 A 
BRANCH  29  30
ATOM     30  O   UNL     1      -1.062  -1.862   4.237  0.00  0.00    -0.506 OA
ATOM     31  H   UNL     1      -1.875  -2.153   3.802  0.00  0.00    +0.292 HD
ENDBRANCH  29  30
BRANCH  25  32
ATOM     32  O   UNL     1       2.298  -5.255   4.009  0.00  0.00    -0.506 OA
ATOM     33  H   UNL     1       3.180  -4.865   4.074  0.00  0.00    +0.292 HD
ENDBRANCH  25  32
ENDBRANCH  22  24
BRANCH  21  34
ATOM     34  C   UNL     1      -0.450  -5.109   1.998  0.00  0.00    +0.030 C 
ATOM     35  C   UNL     1      -0.887  -5.784   0.696  0.00  0.00    +0.031 C 
ATOM     36  C   UNL     1       0.353  -6.101   2.842  0.00  0.00    +0.031 C 
ATOM     37  C   UNL     1      -1.685  -4.657   2.778  0.00  0.00    +0.031 C 
ENDBRANCH  21  34
ENDBRANCH   1  21
TORSDOF 10
