REMARK  Name = ZINC02521845
REMARK  6 active torsions:
REMARK  status: ('A' for Active; 'I' for Inactive)
REMARK    1  A    between atoms: C_5  and  C_7
REMARK    2  A    between atoms: N_8  and  N_9
REMARK    3  A    between atoms: C_10  and  C_12
REMARK    4  A    between atoms: C_15  and  N_18
REMARK    5  A    between atoms: N_18  and  S_19
REMARK    6  A    between atoms: S_19  and  C_22
REMARK                            x       y       z     vdW  Elec       q    Type
REMARK                         _______ _______ _______ _____ _____    ______ ____
ROOT
ATOM      1  C   UNL     1       4.110  -1.931  -4.274  0.00  0.00    +0.038 A 
ATOM      2  C   UNL     1       3.456  -3.165  -4.348  0.00  0.00    +0.015 A 
ATOM      3  C   UNL     1       2.465  -3.472  -3.445  0.00  0.00    +0.025 A 
ATOM      4  C   UNL     1       2.113  -2.556  -2.457  0.00  0.00    +0.048 A 
ATOM      5  C   UNL     1       2.758  -1.325  -2.384  0.00  0.00    +0.025 A 
ATOM      6  C   UNL     1       3.754  -1.013  -3.281  0.00  0.00    +0.015 A 
ENDROOT
BRANCH   1   8
ATOM      7  N   UNL     1       5.802  -0.409  -5.168  0.00  0.00    -0.203 N 
ATOM      8  C   UNL     1       5.173  -1.599  -5.241  0.00  0.00    +0.263 C 
ATOM      9  O   UNL     1       5.482  -2.398  -6.104  0.00  0.00    -0.268 OA
ATOM     10  H   UNL     1       5.556   0.229  -4.479  0.00  0.00    +0.178 HD
BRANCH   7  12
ATOM     11  C   UNL     1       7.418   1.052  -6.016  0.00  0.00    +0.139 C 
ATOM     12  N   UNL     1       6.812  -0.093  -6.086  0.00  0.00    -0.187 NA
BRANCH  11  17
ATOM     13  C   UNL     1      10.128   2.921  -7.817  0.00  0.00    +0.001 A 
ATOM     14  C   UNL     1      10.477   2.009  -8.798  0.00  0.00    +0.001 A 
ATOM     15  C   UNL     1       9.834   0.787  -8.877  0.00  0.00    +0.016 A 
ATOM     16  C   UNL     1       8.838   0.469  -7.976  0.00  0.00    +0.027 A 
ATOM     17  C   UNL     1       8.480   1.385  -6.982  0.00  0.00    +0.008 A 
ATOM     18  C   UNL     1       9.131   2.619  -6.914  0.00  0.00    +0.010 A 
ATOM     19 BR   UNL     1       7.959  -1.202  -8.085  0.00  0.00    -0.050 Br
ENDBRANCH  11  17
ENDBRANCH   7  12
ENDBRANCH   1   8
BRANCH   4  20
ATOM     20  N   UNL     1       1.111  -2.870  -1.545  0.00  0.00    -0.216 N 
ATOM     21  H   UNL     1       0.238  -2.453  -1.621  0.00  0.00    +0.174 HD
BRANCH  20  22
ATOM     22  S   UNL     1       1.408  -3.954  -0.329  0.00  0.00    +0.072 S 
ATOM     23  O   UNL     1       1.972  -5.106  -0.941  0.00  0.00    -0.150 OA
ATOM     24  O   UNL     1       0.228  -4.012   0.461  0.00  0.00    -0.150 OA
BRANCH  22  25
ATOM     25  C   UNL     1       2.665  -3.261   0.693  0.00  0.00    +0.109 A 
ATOM     26  C   UNL     1       2.326  -2.375   1.699  0.00  0.00    +0.030 A 
ATOM     27  C   UNL     1       3.312  -1.831   2.501  0.00  0.00    +0.022 A 
ATOM     28  C   UNL     1       4.637  -2.172   2.296  0.00  0.00    +0.041 A 
ATOM     29  C   UNL     1       4.975  -3.058   1.288  0.00  0.00    +0.022 A 
ATOM     30  C   UNL     1       3.989  -3.602   0.487  0.00  0.00    +0.030 A 
ATOM     31 CL   UNL     1       5.875  -1.489   3.303  0.00  0.00    -0.084 Cl
ENDBRANCH  22  25
ENDBRANCH  20  22
ENDBRANCH   4  20
TORSDOF 6
