REMARK  Name = ZINC09699951
REMARK  7 active torsions:
REMARK  status: ('A' for Active; 'I' for Inactive)
REMARK    1  A    between atoms: C_1  and  C_2
REMARK    2  A    between atoms: C_5  and  C_34
REMARK    3  A    between atoms: C_6  and  N_8
REMARK    4  A    between atoms: C_9  and  C_11
REMARK    5  A    between atoms: C_11  and  C_12
REMARK    6  A    between atoms: C_18  and  C_20
REMARK    7  A    between atoms: N_25  and  C_27
REMARK                            x       y       z     vdW  Elec       q    Type
REMARK                         _______ _______ _______ _____ _____    ______ ____
ROOT
ATOM      1  C   UNL     1       3.394  11.205   1.763  0.00  0.00    +0.059 A 
ATOM      2  C   UNL     1       4.336  10.656   2.568  0.00  0.00    +0.072 A 
ATOM      3  S   UNL     1       4.124   8.922   2.193  0.00  0.00    -0.060 S 
ATOM      4  C   UNL     1       2.848   9.097   1.028  0.00  0.00    +0.165 A 
ATOM      5  N   UNL     1       2.668  10.404   1.008  0.00  0.00    -0.229 NA
ATOM      6  N   UNL     1       2.182   8.113   0.307  0.00  0.00    -0.264 N 
ATOM      7  C   UNL     1       2.515   6.817   0.470  0.00  0.00    +0.224 C 
ATOM      8  O   UNL     1       3.395   6.510   1.246  0.00  0.00    -0.275 OA
ATOM      9  H   UNL     1       1.478   8.358  -0.313  0.00  0.00    +0.157 HD
ENDROOT
BRANCH   7  10
ATOM     10  C   UNL     1       1.793   5.750  -0.311  0.00  0.00    +0.102 C 
ATOM     11  C   UNL     1       0.285   5.739   0.030  0.00  0.00    +0.110 C 
ATOM     12  C   UNL     1      -0.088   4.273   0.014  0.00  0.00    +0.221 C 
ATOM     13  O   UNL     1      -1.222   3.845  -0.045  0.00  0.00    -0.275 OA
ATOM     14  N   UNL     1       1.019   3.513   0.074  0.00  0.00    -0.271 N 
ATOM     15  C   UNL     1       2.229   4.340   0.152  0.00  0.00    +0.127 C 
BRANCH  14  16
ATOM     16  C   UNL     1       1.018   2.113   0.070  0.00  0.00    +0.036 A 
ATOM     17  C   UNL     1      -0.184   1.419   0.112  0.00  0.00    +0.026 A 
ATOM     18  C   UNL     1      -0.183   0.037   0.107  0.00  0.00    +0.040 A 
ATOM     19  C   UNL     1       1.015  -0.655   0.059  0.00  0.00    +0.124 A 
ATOM     20  C   UNL     1       2.215   0.036   0.016  0.00  0.00    +0.040 A 
ATOM     21  C   UNL     1       2.218   1.417   0.022  0.00  0.00    +0.026 A 
ATOM     22  F   UNL     1       1.014  -2.006   0.055  0.00  0.00    -0.205 F 
ENDBRANCH  14  16
ENDBRANCH   7  10
BRANCH   1  23
ATOM     23  C   UNL     1       3.180  12.697   1.731  0.00  0.00    +0.152 C 
BRANCH  23  25
ATOM     24  N   UNL     1       3.150  14.503   0.041  0.00  0.00    -0.285 N 
ATOM     25  C   UNL     1       3.304  13.191   0.313  0.00  0.00    +0.223 C 
ATOM     26  O   UNL     1       3.541  12.410  -0.584  0.00  0.00    -0.275 OA
ATOM     27  H   UNL     1       3.017  15.136   0.764  0.00  0.00    +0.155 HD
BRANCH  24  33
ATOM     28  C   UNL     1       4.634  13.875  -4.604  0.00  0.00    +0.044 C 
ATOM     29  C   UNL     1       3.894  14.666  -3.556  0.00  0.00    -0.049 A 
ATOM     30  C   UNL     1       3.246  15.837  -3.904  0.00  0.00    +0.004 A 
ATOM     31  C   UNL     1       2.567  16.566  -2.946  0.00  0.00    +0.005 A 
ATOM     32  C   UNL     1       2.533  16.126  -1.637  0.00  0.00    -0.029 A 
ATOM     33  C   UNL     1       3.182  14.951  -1.284  0.00  0.00    +0.037 A 
ATOM     34  C   UNL     1       3.868  14.223  -2.248  0.00  0.00    +0.027 A 
ATOM     35  C   UNL     1       1.793  16.922  -0.593  0.00  0.00    +0.045 C 
ENDBRANCH  24  33
ENDBRANCH  23  25
ENDBRANCH   1  23
TORSDOF 5
