REMARK  Name = ZINC06197707
REMARK  13 active torsions:
REMARK  status: ('A' for Active; 'I' for Inactive)
REMARK    1  A    between atoms: C_1  and  C_2
REMARK    2  A    between atoms: C_2  and  C_3
REMARK    3  A    between atoms: C_10  and  C_15
REMARK    4  A    between atoms: C_15  and  N_16
REMARK    5  A    between atoms: N_16  and  C_17
REMARK    6  A    between atoms: N_16  and  C_25
REMARK    7  A    between atoms: C_17  and  C_18
REMARK    8  A    between atoms: C_18  and  C_19
REMARK    9  A    between atoms: C_19  and  N_71
REMARK   10  A    between atoms: C_25  and  N_27
REMARK   11  A    between atoms: N_27  and  C_28
REMARK   12  A    between atoms: C_28  and  C_30
REMARK   13  A    between atoms: C_28  and  C_31
REMARK                            x       y       z     vdW  Elec       q    Type
REMARK                         _______ _______ _______ _____ _____    ______ ____
ROOT
ATOM      1  N   UNL     1       1.072  -2.729   1.351  0.00  0.00    -0.308 N 
ENDROOT
BRANCH   1   2
ATOM      2  C   UNL     1       2.182  -2.978   2.074  0.00  0.00    +0.134 C 
ATOM      3  S   UNL     1       3.727  -2.715   1.386  0.00  0.00    -0.019 S 
BRANCH   2   4
ATOM      4  N   UNL     1       2.075  -3.433   3.338  0.00  0.00    -0.320 N 
ATOM      5  H   UNL     1       1.200  -3.581   3.728  0.00  0.00    +0.148 HD
BRANCH   4   6
ATOM      6  C   UNL     1       3.282  -3.702   4.124  0.00  0.00    +0.099 C 
ATOM      7  C   UNL     1       3.760  -2.408   4.785  0.00  0.00    +0.033 C 
BRANCH   6   8
ATOM      8  C   UNL     1       2.972  -4.725   5.186  0.00  0.00    -0.028 A 
ATOM      9  C   UNL     1       1.773  -4.667   5.872  0.00  0.00    +0.005 A 
ATOM     10  C   UNL     1       1.486  -5.608   6.843  0.00  0.00    +0.000 A 
ATOM     11  C   UNL     1       2.403  -6.601   7.136  0.00  0.00    +0.000 A 
ATOM     12  C   UNL     1       3.604  -6.655   6.454  0.00  0.00    +0.000 A 
ATOM     13  C   UNL     1       3.889  -5.717   5.479  0.00  0.00    +0.005 A 
ENDBRANCH   6   8
ENDBRANCH   4   6
ENDBRANCH   2   4
ENDBRANCH   1   2
BRANCH   1  14
ATOM     14  C   UNL     1       1.187  -2.235  -0.023  0.00  0.00    +0.147 C 
BRANCH  14  22
ATOM     15  C   UNL     1       3.541   3.487  -0.013  0.00  0.00    -0.047 A 
ATOM     16  C   UNL     1       2.325   4.156   0.003  0.00  0.00    +0.005 A 
ATOM     17  C   UNL     1       1.138   3.457   0.011  0.00  0.00    +0.026 A 
ATOM     18  C   UNL     1       1.156   2.065   0.002  0.00  0.00    +0.049 A 
ATOM     19  C   UNL     1       2.392   1.391  -0.013  0.00  0.00    -0.001 A 
ATOM     20  C   UNL     1       3.584   2.122  -0.021  0.00  0.00    +0.013 A 
ATOM     21  C   UNL     1       2.401  -0.073  -0.022  0.00  0.00    +0.020 A 
ATOM     22  C   UNL     1       1.213  -0.728  -0.014  0.00  0.00    +0.035 A 
ATOM     23  C   UNL     1       0.002  -0.004   0.002  0.00  0.00    +0.254 A 
ATOM     24  O   UNL     1      -1.054  -0.613   0.009  0.00  0.00    -0.268 OA
ATOM     25  N   UNL     1      -0.016   1.340   0.009  0.00  0.00    -0.322 N 
ATOM     26  H   UNL     1      -0.893   1.821   0.020  0.00  0.00    +0.169 HD
BRANCH  15  28
ATOM     27  C   UNL     1       5.247   4.549  -1.467  0.00  0.00    +0.009 C 
ATOM     28  C   UNL     1       4.826   4.275  -0.022  0.00  0.00    +0.032 C 
ENDBRANCH  15  28
ENDBRANCH  14  22
ENDBRANCH   1  14
BRANCH   1  29
ATOM     29  C   UNL     1      -0.251  -2.954   1.940  0.00  0.00    +0.105 C 
BRANCH  29  30
ATOM     30  C   UNL     1      -0.698  -4.390   1.658  0.00  0.00    +0.000 C 
BRANCH  30  31
ATOM     31  C   UNL     1      -2.079  -4.625   2.272  0.00  0.00    -0.077 C 
BRANCH  31  37
ATOM     32  C   UNL     1      -2.732  -6.212   0.564  0.00  0.00    -0.050 C 
ATOM     33  C   UNL     1      -3.119  -7.673   0.320  0.00  0.00    +0.141 C 
ATOM     34  O   UNL     1      -4.274  -7.992   1.100  0.00  0.00    -0.383 OA
ATOM     35  C   UNL     1      -4.090  -7.801   2.505  0.00  0.00    +0.141 C 
ATOM     36  C   UNL     1      -3.714  -6.341   2.771  0.00  0.00    -0.050 C 
ATOM     37  N   UNL     1      -2.489  -6.021   2.009  0.00  0.00    +0.383 N 
ATOM     38  H   UNL     1      -1.736  -6.652   2.307  0.00  0.00    -0.082 HD
ENDBRANCH  31  37
ENDBRANCH  30  31
ENDBRANCH  29  30
ENDBRANCH   1  29
TORSDOF 11
