REMARK  Name = ZINC63732066
REMARK  10 active torsions:
REMARK  status: ('A' for Active; 'I' for Inactive)
REMARK    1  A    between atoms: C_1  and  C_2
REMARK    2  A    between atoms: C_5  and  C_8
REMARK    3  A    between atoms: C_8  and  C_10
REMARK    4  A    between atoms: C_10  and  O_11
REMARK    5  A    between atoms: O_11  and  C_12
REMARK    6  A    between atoms: C_12  and  C_14
REMARK    7  A    between atoms: C_14  and  C_16
REMARK    8  A    between atoms: C_14  and  N_26
REMARK    9  A    between atoms: C_16  and  C_17
REMARK   10  A    between atoms: C_27  and  C_29
REMARK                            x       y       z     vdW  Elec       q    Type
REMARK                         _______ _______ _______ _____ _____    ______ ____
ROOT
ATOM      1  C   UNL     1       0.141  -8.853   1.935  0.00  0.00    +0.186 C 
ENDROOT
BRANCH   1   2
ATOM      2  N   UNL     1       0.448  -9.489   3.219  0.00  0.00    -0.298 N 
ATOM      3  C   UNL     1       0.275 -10.817   3.371  0.00  0.00    +0.245 C 
ATOM      4  O   UNL     1      -0.135 -11.487   2.444  0.00  0.00    -0.270 OA
ATOM      5  H   UNL     1       0.775  -8.954   3.959  0.00  0.00    +0.150 HD
BRANCH   3   6
ATOM      6  C   UNL     1       0.585 -11.458   4.666  0.00  0.00    +0.037 A 
ATOM      7  C   UNL     1       1.051 -10.691   5.735  0.00  0.00    +0.014 A 
ATOM      8  C   UNL     1       1.338 -11.295   6.941  0.00  0.00    +0.016 A 
ATOM      9  C   UNL     1       1.165 -12.660   7.093  0.00  0.00    +0.018 A 
ATOM     10  C   UNL     1       0.703 -13.427   6.036  0.00  0.00    +0.016 A 
ATOM     11  C   UNL     1       0.407 -12.834   4.827  0.00  0.00    +0.014 A 
ATOM     12 BR   UNL     1       1.562 -13.481   8.749  0.00  0.00    -0.050 Br
ENDBRANCH   3   6
ENDBRANCH   1   2
BRANCH   1  13
ATOM     13  C   UNL     1      -0.234  -7.412   2.165  0.00  0.00    +0.328 C 
ATOM     14  O   UNL     1      -0.244  -6.962   3.287  0.00  0.00    -0.249 OA
BRANCH  13  15
ATOM     15  O   UNL     1      -0.557  -6.628   1.125  0.00  0.00    -0.455 OA
BRANCH  15  16
ATOM     16  C   UNL     1      -0.902  -5.272   1.416  0.00  0.00    +0.311 C 
BRANCH  16  17
ATOM     17  C   UNL     1      -1.232  -4.551   0.135  0.00  0.00    +0.200 C 
ATOM     18  O   UNL     1      -1.178  -5.140  -0.924  0.00  0.00    -0.288 OA
BRANCH  17  23
ATOM     19  C   UNL     1      -2.754   0.991   0.265  0.00  0.00    +0.044 C 
ATOM     20  C   UNL     1      -2.355  -0.462   0.231  0.00  0.00    -0.050 A 
ATOM     21  C   UNL     1      -2.292  -1.130  -0.979  0.00  0.00    +0.004 A 
ATOM     22  C   UNL     1      -1.929  -2.459  -1.019  0.00  0.00    +0.012 A 
ATOM     23  C   UNL     1      -1.621  -3.132   0.168  0.00  0.00    +0.021 A 
ATOM     24  C   UNL     1      -1.686  -2.449   1.387  0.00  0.00    +0.012 A 
ATOM     25  C   UNL     1      -2.047  -1.119   1.409  0.00  0.00    +0.004 A 
ENDBRANCH  17  23
ENDBRANCH  16  17
ENDBRANCH  15  16
ENDBRANCH  13  15
ENDBRANCH   1  13
BRANCH   1  26
ATOM     26  C   UNL     1       1.369  -8.921   1.025  0.00  0.00    +0.067 C 
BRANCH  26  27
ATOM     27  C   UNL     1       2.534  -8.246   1.702  0.00  0.00    -0.039 C 
ATOM     28  C   UNL     1       3.493  -8.836   2.452  0.00  0.00    -0.001 A 
ATOM     29  C   UNL     1       3.729 -10.230   2.846  0.00  0.00    +0.010 A 
ATOM     30  C   UNL     1       4.799 -10.520   3.622  0.00  0.00    +0.001 A 
ATOM     31  C   UNL     1       5.685  -9.525   4.056  0.00  0.00    +0.002 A 
ATOM     32  C   UNL     1       5.534  -8.222   3.735  0.00  0.00    +0.026 A 
ATOM     33  C   UNL     1       4.444  -7.804   2.924  0.00  0.00    +0.043 A 
ATOM     34  N   UNL     1       4.087  -6.622   2.483  0.00  0.00    -0.380 N 
ATOM     35  C   UNL     1       2.870  -6.771   1.676  0.00  0.00    +0.144 C 
ATOM     36  H   UNL     1       4.551  -5.789   2.658  0.00  0.00    +0.160 HD
ENDBRANCH  26  27
ENDBRANCH   1  26
TORSDOF 9
