REMARK  Name = ZINC34980217
REMARK  9 active torsions:
REMARK  status: ('A' for Active; 'I' for Inactive)
REMARK    1  A    between atoms: C_1  and  C_2
REMARK    2  A    between atoms: C_2  and  C_3
REMARK    3  A    between atoms: C_3  and  C_5
REMARK    4  A    between atoms: C_3  and  C_6
REMARK    5  A    between atoms: C_6  and  C_8
REMARK    6  A    between atoms: C_6  and  N_26
REMARK    7  A    between atoms: C_14  and  C_17
REMARK    8  A    between atoms: C_18  and  C_20
REMARK    9  A    between atoms: N_29  and  C_30
REMARK                            x       y       z     vdW  Elec       q    Type
REMARK                         _______ _______ _______ _____ _____    ______ ____
ROOT
ATOM      1  C   UNL     1      -3.231   0.201  -0.854  0.00  0.00    +0.163 C 
ENDROOT
BRANCH   1   2
ATOM      2  C   UNL     1      -4.541  -0.544  -0.830  0.00  0.00    +0.236 C 
ATOM      3  O   UNL     1      -5.587   0.065  -0.903  0.00  0.00    -0.274 OA
ATOM      4  N   UNL     1      -4.550  -1.888  -0.727  0.00  0.00    -0.297 N 
ATOM      5  C   UNL     1      -3.297  -2.631  -0.525  0.00  0.00    +0.127 C 
ATOM      6  C   UNL     1      -3.168  -3.683  -1.634  0.00  0.00    +0.127 C 
ATOM      7  N   UNL     1      -4.429  -4.432  -1.721  0.00  0.00    -0.295 N 
ATOM      8  C   UNL     1      -5.681  -3.689  -1.923  0.00  0.00    +0.090 C 
ATOM      9  C   UNL     1      -5.812  -2.636  -0.808  0.00  0.00    +0.130 C 
ATOM     10  C   UNL     1      -5.655  -3.000  -3.288  0.00  0.00    +0.029 C 
ATOM     11  C   UNL     1      -4.438  -5.776  -1.618  0.00  0.00    +0.219 C 
ATOM     12  O   UNL     1      -3.413  -6.371  -1.361  0.00  0.00    -0.275 OA
BRANCH  11  13
ATOM     13  C   UNL     1      -5.722  -6.538  -1.821  0.00  0.00    +0.075 C 
ATOM     14  C   UNL     1      -6.078  -6.549  -3.309  0.00  0.00    +0.013 C 
ATOM     15  C   UNL     1      -7.381  -7.324  -3.516  0.00  0.00    +0.001 C 
ATOM     16  C   UNL     1      -7.203  -8.762  -3.024  0.00  0.00    +0.000 C 
ATOM     17  C   UNL     1      -6.847  -8.751  -1.536  0.00  0.00    +0.001 C 
ATOM     18  C   UNL     1      -5.544  -7.976  -1.329  0.00  0.00    +0.013 C 
ENDBRANCH  11  13
ENDBRANCH   1   2
BRANCH   1  19
ATOM     19  N   UNL     1      -3.481   1.619  -1.122  0.00  0.00    -0.288 N 
ATOM     20  C   UNL     1      -2.576   2.345  -1.809  0.00  0.00    +0.305 C 
ATOM     21  O   UNL     1      -1.597   1.803  -2.284  0.00  0.00    -0.252 OA
ATOM     22  N   UNL     1      -2.757   3.671  -1.968  0.00  0.00    -0.267 N 
ATOM     23  H   UNL     1      -4.298   2.036  -0.806  0.00  0.00    +0.151 HD
ATOM     24  H   UNL     1      -3.498   4.116  -1.528  0.00  0.00    +0.156 HD
BRANCH  22  25
ATOM     25  C   UNL     1      -1.874   4.407  -2.771  0.00  0.00    +0.070 A 
ATOM     26  C   UNL     1      -1.116   3.765  -3.740  0.00  0.00    +0.029 A 
ATOM     27  C   UNL     1      -0.247   4.492  -4.530  0.00  0.00    +0.040 A 
ATOM     28  C   UNL     1      -0.130   5.861  -4.356  0.00  0.00    +0.126 A 
ATOM     29  C   UNL     1      -0.884   6.505  -3.389  0.00  0.00    +0.078 A 
ATOM     30  C   UNL     1      -1.760   5.782  -2.600  0.00  0.00    +0.147 A 
ATOM     31  F   UNL     1      -2.500   6.411  -1.661  0.00  0.00    -0.203 F 
ATOM     32  F   UNL     1       0.722   6.569  -5.129  0.00  0.00    -0.205 F 
ENDBRANCH  22  25
ENDBRANCH   1  19
BRANCH   1  33
ATOM     33  C   UNL     1      -2.536   0.054   0.501  0.00  0.00    +0.015 C 
ATOM     34  C   UNL     1      -1.134   0.661   0.424  0.00  0.00    +0.010 C 
BRANCH  33  36
ATOM     35  C   UNL     1      -4.647   0.016   1.837  0.00  0.00    +0.004 C 
ATOM     36  C   UNL     1      -3.349   0.782   1.574  0.00  0.00    +0.002 C 
ENDBRANCH  33  36
ENDBRANCH   1  33
TORSDOF 6
