REMARK  Name = ZINC38850478
REMARK  6 active torsions:
REMARK  status: ('A' for Active; 'I' for Inactive)
REMARK    1  A    between atoms: C_6  and  C_7
REMARK    2  A    between atoms: C_7  and  N_8
REMARK    3  A    between atoms: C_12  and  C_15
REMARK    4  A    between atoms: N_17  and  C_18
REMARK    5  A    between atoms: C_21  and  S_24
REMARK    6  A    between atoms: S_24  and  N_27
REMARK                            x       y       z     vdW  Elec       q    Type
REMARK                         _______ _______ _______ _____ _____    ______ ____
ROOT
ATOM      1  C   UNL     1      -4.558  -3.068  -2.795  0.00  0.00    +0.218 C 
ATOM      2  O   UNL     1      -5.051  -3.410  -1.741  0.00  0.00    -0.275 OA
ATOM      3  N   UNL     1      -5.104  -3.475  -3.958  0.00  0.00    -0.285 N 
ATOM      4  H   UNL     1      -4.751  -3.148  -4.801  0.00  0.00    +0.155 HD
ENDROOT
BRANCH   1   9
ATOM      5  N   UNL     1      -1.733  -1.009  -1.373  0.00  0.00    +0.383 N 
ATOM      6  C   UNL     1      -2.048   0.273  -2.014  0.00  0.00    -0.078 C 
ATOM      7  C   UNL     1      -2.425   0.036  -3.478  0.00  0.00    -0.018 C 
ATOM      8  C   UNL     1      -3.649  -0.882  -3.542  0.00  0.00    +0.009 C 
ATOM      9  C   UNL     1      -3.335  -2.187  -2.804  0.00  0.00    +0.059 C 
ATOM     10  C   UNL     1      -2.924  -1.867  -1.366  0.00  0.00    -0.066 C 
ATOM     11  H   UNL     1      -0.993  -1.466  -1.883  0.00  0.00    -0.081 HD
BRANCH   5  12
ATOM     12  C   UNL     1      -1.296  -0.768   0.009  0.00  0.00    -0.043 C 
BRANCH  12  18
ATOM     13  C   UNL     1      -0.033   1.392   0.013  0.00  0.00    +0.003 A 
ATOM     14  C   UNL     1       1.150   2.107   0.005  0.00  0.00    +0.015 A 
ATOM     15  C   UNL     1       2.361   1.438  -0.017  0.00  0.00    +0.018 A 
ATOM     16  C   UNL     1       2.388   0.056  -0.029  0.00  0.00    +0.015 A 
ATOM     17  C   UNL     1       1.204  -0.658  -0.021  0.00  0.00    +0.003 A 
ATOM     18  C   UNL     1      -0.006   0.010   0.000  0.00  0.00    -0.064 A 
ATOM     19 BR   UNL     1       3.980   2.415  -0.029  0.00  0.00    -0.050 Br
ENDBRANCH  12  18
ENDBRANCH   5  12
ENDBRANCH   1   9
BRANCH   3  20
ATOM     20  C   UNL     1      -6.180  -4.369  -3.951  0.00  0.00    +0.034 A 
ATOM     21  C   UNL     1      -6.294  -5.329  -4.948  0.00  0.00    +0.025 A 
ATOM     22  C   UNL     1      -7.357  -6.210  -4.938  0.00  0.00    +0.030 A 
ATOM     23  C   UNL     1      -8.307  -6.138  -3.936  0.00  0.00    +0.106 A 
ATOM     24  C   UNL     1      -8.197  -5.183  -2.942  0.00  0.00    +0.030 A 
ATOM     25  C   UNL     1      -7.133  -4.303  -2.943  0.00  0.00    +0.025 A 
BRANCH  23  26
ATOM     26  S   UNL     1      -9.662  -7.264  -3.927  0.00  0.00    +0.061 S 
ATOM     27  O   UNL     1     -10.706  -6.639  -3.192  0.00  0.00    -0.153 OA
ATOM     28  O   UNL     1      -9.833  -7.706  -5.267  0.00  0.00    -0.153 OA
BRANCH  26  29
ATOM     29  N   UNL     1      -9.193  -8.588  -3.049  0.00  0.00    -0.172 NA
ATOM     30  C   UNL     1      -8.531  -9.731  -3.697  0.00  0.00    +0.137 C 
ATOM     31  C   UNL     1      -7.256 -10.060  -2.911  0.00  0.00    +0.177 C 
ATOM     32  O   UNL     1      -7.583 -10.217  -1.528  0.00  0.00    -0.377 OA
ATOM     33  C   UNL     1      -8.107  -9.037  -0.914  0.00  0.00    +0.177 C 
ATOM     34  C   UNL     1      -9.420  -8.653  -1.597  0.00  0.00    +0.137 C 
ENDBRANCH  26  29
ENDBRANCH  23  26
ENDBRANCH   3  20
TORSDOF 6
