REMARK  Name = ZINC63296195
REMARK  6 active torsions:
REMARK  status: ('A' for Active; 'I' for Inactive)
REMARK    1  A    between atoms: C_1  and  C_2
REMARK    2  A    between atoms: C_2  and  N_9
REMARK    3  A    between atoms: C_10  and  C_12
REMARK    4  A    between atoms: C_12  and  C_13
REMARK    5  A    between atoms: C_13  and  C_14
REMARK    6  A    between atoms: C_14  and  N_15
REMARK                            x       y       z     vdW  Elec       q    Type
REMARK                         _______ _______ _______ _____ _____    ______ ____
ROOT
ATOM      1  N   UNL     1       0.452  -0.004  -7.336  0.00  0.00    -0.299 N 
ATOM      2  C   UNL     1       0.952  -0.290  -8.554  0.00  0.00    +0.302 C 
ATOM      3  O   UNL     1       2.003  -0.893  -8.654  0.00  0.00    -0.253 OA
ATOM      4  N   UNL     1       0.288   0.093  -9.662  0.00  0.00    -0.283 N 
ATOM      5  C   UNL     1      -0.913   0.925  -9.537  0.00  0.00    +0.114 C 
ATOM      6  C   UNL     1      -0.719   2.229 -10.332  0.00  0.00    +0.052 C 
ATOM      7  C   UNL     1      -0.140   1.839 -11.669  0.00  0.00    -0.036 C 
ATOM      8  C   UNL     1      -0.516   2.131 -12.908  0.00  0.00    -0.001 A 
ATOM      9  C   UNL     1      -1.563   3.026 -13.428  0.00  0.00    +0.010 A 
ATOM     10  C   UNL     1      -1.692   3.073 -14.780  0.00  0.00    +0.001 A 
ATOM     11  C   UNL     1      -0.896   2.329 -15.656  0.00  0.00    +0.002 A 
ATOM     12  C   UNL     1       0.095   1.488 -15.265  0.00  0.00    +0.026 A 
ATOM     13  C   UNL     1       0.333   1.360 -13.866  0.00  0.00    +0.043 A 
ATOM     14  N   UNL     1       1.218   0.656 -13.224  0.00  0.00    -0.376 N 
ATOM     15  C   UNL     1       1.083   0.937 -11.795  0.00  0.00    +0.124 C 
ATOM     16  C   UNL     1       0.779  -0.323 -10.986  0.00  0.00    +0.138 C 
ATOM     17  H   UNL     1      -0.347   0.540  -7.255  0.00  0.00    +0.150 HD
ATOM     18  H   UNL     1       1.858   0.047 -13.625  0.00  0.00    +0.160 HD
ENDROOT
BRANCH   1  19
ATOM     19  C   UNL     1       1.116  -0.514  -6.133  0.00  0.00    +0.106 C 
BRANCH  19  20
ATOM     20  C   UNL     1       0.351  -0.048  -4.893  0.00  0.00    +0.028 C 
BRANCH  20  21
ATOM     21  C   UNL     1       1.044  -0.580  -3.637  0.00  0.00    +0.097 C 
BRANCH  21  23
ATOM     22  N   UNL     1       0.722  -0.473  -1.187  0.00  0.00    -0.308 N 
ATOM     23  C   UNL     1       0.292  -0.121  -2.415  0.00  0.00    +0.214 C 
ATOM     24  O   UNL     1      -0.701   0.564  -2.536  0.00  0.00    -0.276 OA
ATOM     25  H   UNL     1       1.516  -1.021  -1.090  0.00  0.00    +0.149 HD
BRANCH  22  27
ATOM     26  C   UNL     1      -0.037   1.503   0.013  0.00  0.00    +0.033 C 
ATOM     27  C   UNL     1      -0.010  -0.027   0.001  0.00  0.00    +0.052 C 
ATOM     28  C   UNL     1      -1.446  -0.541  -0.091  0.00  0.00    +0.049 C 
ATOM     29  C   UNL     1      -1.562  -1.939   0.579  0.00  0.00    +0.168 C 
ATOM     30  S   UNL     1      -0.462  -1.673   2.038  0.00  0.00    -0.029 S 
ATOM     31  O   UNL     1       0.199  -2.891   2.353  0.00  0.00    -0.174 OA
ATOM     32  O   UNL     1      -1.185  -0.984   3.049  0.00  0.00    -0.174 OA
ATOM     33  C   UNL     1       0.739  -0.517   1.256  0.00  0.00    +0.191 C 
ENDBRANCH  22  27
ENDBRANCH  21  23
ENDBRANCH  20  21
ENDBRANCH  19  20
ENDBRANCH   1  19
TORSDOF 5
