REMARK  Name = ZINC12511722
REMARK  8 active torsions:
REMARK  status: ('A' for Active; 'I' for Inactive)
REMARK    1  A    between atoms: C_1  and  N_66
REMARK    2  A    between atoms: C_2  and  C_3
REMARK    3  A    between atoms: C_2  and  N_66
REMARK    4  A    between atoms: C_6  and  C_11
REMARK    5  A    between atoms: N_13  and  C_14
REMARK    6  A    between atoms: C_14  and  C_15
REMARK    7  A    between atoms: C_25  and  C_26
REMARK    8  A    between atoms: C_25  and  N_66
REMARK                            x       y       z     vdW  Elec       q    Type
REMARK                         _______ _______ _______ _____ _____    ______ ____
ROOT
ATOM      1  C   UNL     1      -1.980   8.280   6.270  0.00  0.00    +0.003 A 
ATOM      2  C   UNL     1      -1.651   9.177   5.306  0.00  0.00    +0.020 A 
ATOM      3  C   UNL     1      -1.001   8.752   4.147  0.00  0.00    +0.020 A 
ATOM      4  C   UNL     1      -0.699   7.400   4.000  0.00  0.00    +0.101 A 
ATOM      5  C   UNL     1      -1.069   6.500   5.033  0.00  0.00    +0.261 A 
ATOM      6  O   UNL     1      -0.820   5.311   4.926  0.00  0.00    -0.267 OA
ATOM      7  N   UNL     1      -1.690   6.964   6.134  0.00  0.00    -0.327 N 
ATOM      8  H   UNL     1      -1.936   6.345   6.839  0.00  0.00    +0.169 HD
ENDROOT
BRANCH   4   9
ATOM      9  C   UNL     1      -0.014   6.913   2.793  0.00  0.00    +0.249 C 
ATOM     10  O   UNL     1       0.389   7.704   1.961  0.00  0.00    -0.270 OA
ATOM     11  N   UNL     1       0.167   5.590   2.608  0.00  0.00    -0.311 N 
ATOM     12  H   UNL     1      -0.089   4.964   3.303  0.00  0.00    +0.149 HD
BRANCH  11  13
ATOM     13  C   UNL     1       0.751   5.099   1.357  0.00  0.00    +0.108 C 
BRANCH  13  14
ATOM     14  C   UNL     1       0.847   3.572   1.405  0.00  0.00    +0.012 C 
ATOM     15  C   UNL     1       1.569   3.068   0.154  0.00  0.00    -0.006 C 
ATOM     16  C   UNL     1       1.664   1.541   0.201  0.00  0.00    +0.007 C 
ATOM     17  C   UNL     1       0.257   0.944   0.253  0.00  0.00    -0.010 C 
ATOM     18  C   UNL     1      -0.523   1.368  -0.993  0.00  0.00    +0.007 C 
ATOM     19  C   UNL     1      -0.619   2.894  -1.040  0.00  0.00    -0.010 C 
ATOM     20  C   UNL     1       0.789   3.491  -1.092  0.00  0.00    +0.007 C 
ATOM     21  C   UNL     1      -1.341   3.399   0.211  0.00  0.00    +0.007 C 
ATOM     22  C   UNL     1      -0.561   2.975   1.457  0.00  0.00    -0.006 C 
ATOM     23  C   UNL     1      -0.466   1.448   1.504  0.00  0.00    +0.007 C 
ENDBRANCH  13  14
ENDBRANCH  11  13
ENDBRANCH   4   9
BRANCH   1  24
ATOM     24  C   UNL     1      -2.682   8.757   7.515  0.00  0.00    -0.025 C 
BRANCH  24  26
ATOM     25  C   UNL     1      -4.598   8.298   8.923  0.00  0.00    -0.096 C 
ATOM     26  N   UNL     1      -4.023   8.138   7.571  0.00  0.00    +0.383 N 
ATOM     27  H   UNL     1      -3.938   7.136   7.361  0.00  0.00    -0.082 HD
BRANCH  26  28
ATOM     28  C   UNL     1      -4.910   8.764   6.568  0.00  0.00    -0.044 C 
BRANCH  28  29
ATOM     29  C   UNL     1      -6.211   7.962   6.491  0.00  0.00    +0.127 C 
ATOM     30  C   UNL     1      -7.131   8.580   5.434  0.00  0.00    +0.189 C 
ATOM     31  O   UNL     1      -8.296   7.761   5.289  0.00  0.00    -0.375 OA
ATOM     32  C   UNL     1      -8.003   6.409   4.924  0.00  0.00    +0.188 C 
ATOM     33  C   UNL     1      -7.083   5.791   5.981  0.00  0.00    +0.188 C 
ATOM     34  O   UNL     1      -5.919   6.610   6.126  0.00  0.00    -0.374 OA
ENDBRANCH  28  29
ENDBRANCH  26  28
ENDBRANCH  24  26
ENDBRANCH   1  24
TORSDOF 7
