REMARK  Name = ZINC12183260
REMARK  12 active torsions:
REMARK  status: ('A' for Active; 'I' for Inactive)
REMARK    1  A    between atoms: C_1  and  C_2
REMARK    2  A    between atoms: C_2  and  C_3
REMARK    3  A    between atoms: C_3  and  C_18
REMARK    4  A    between atoms: N_6  and  C_10
REMARK    5  A    between atoms: C_10  and  C_11
REMARK    6  A    between atoms: C_11  and  C_12
REMARK    7  A    between atoms: C_13  and  C_17
REMARK    8  A    between atoms: C_23  and  C_24
REMARK    9  A    between atoms: C_23  and  N_65
REMARK   10  A    between atoms: C_27  and  O_31
REMARK   11  A    between atoms: C_29  and  O_30
REMARK   12  A    between atoms: O_31  and  C_32
REMARK                            x       y       z     vdW  Elec       q    Type
REMARK                         _______ _______ _______ _____ _____    ______ ____
ROOT
ATOM      1  C   UNL     1      -0.019   1.526   0.010  0.00  0.00    +0.115 C 
ATOM      2  C   UNL     1       1.393   2.078  -0.000  0.00  0.00    +0.247 C 
ATOM      3  O   UNL     1       2.235   1.920  -0.858  0.00  0.00    -0.273 OA
ATOM      4  N   UNL     1       1.517   2.782   1.143  0.00  0.00    -0.224 N 
ATOM      5  C   UNL     1       0.392   2.751   1.866  0.00  0.00    +0.309 C 
ATOM      6  O   UNL     1       0.262   3.312   2.936  0.00  0.00    -0.252 OA
ATOM      7  N   UNL     1      -0.578   2.030   1.277  0.00  0.00    -0.285 N 
ATOM      8  H   UNL     1      -1.472   1.872   1.619  0.00  0.00    +0.151 HD
ENDROOT
BRANCH   1   9
ATOM      9  C   UNL     1       0.002  -0.004   0.002  0.00  0.00    +0.018 C 
ATOM     10  C   UNL     1      -1.433  -0.535   0.038  0.00  0.00    -0.013 C 
ATOM     11  C   UNL     1      -1.405  -2.065   0.091  0.00  0.00    -0.078 C 
ATOM     12  C   UNL     1       0.723  -2.042   1.251  0.00  0.00    -0.078 C 
ATOM     13  C   UNL     1       0.758  -0.512   1.233  0.00  0.00    -0.013 C 
ATOM     14  N   UNL     1      -0.685  -2.489   1.311  0.00  0.00    +0.382 N 
ATOM     15  H   UNL     1      -1.136  -2.062   2.129  0.00  0.00    -0.081 HD
BRANCH  14  16
ATOM     16  C   UNL     1      -0.743  -3.960   1.445  0.00  0.00    -0.039 C 
BRANCH  16  17
ATOM     17  C   UNL     1      -2.162  -4.420   1.232  0.00  0.00    -0.022 A 
ATOM     18  C   UNL     1      -2.968  -4.697   2.320  0.00  0.00    +0.009 A 
ATOM     19  C   UNL     1      -4.271  -5.114   2.128  0.00  0.00    +0.046 A 
ATOM     20  C   UNL     1      -4.770  -5.266   0.842  0.00  0.00    +0.124 A 
ATOM     21  C   UNL     1      -3.962  -4.993  -0.251  0.00  0.00    +0.091 A 
ATOM     22  C   UNL     1      -2.656  -4.570  -0.056  0.00  0.00    +0.122 A 
BRANCH  22  23
ATOM     23  O   UNL     1      -1.861  -4.302  -1.125  0.00  0.00    -0.506 OA
ATOM     24  H   UNL     1      -1.358  -5.065  -1.442  0.00  0.00    +0.292 HD
ENDBRANCH  22  23
BRANCH  20  25
ATOM     25  O   UNL     1      -6.051  -5.681   0.654  0.00  0.00    -0.495 OA
ATOM     26  C   UNL     1      -6.826  -5.944   1.825  0.00  0.00    +0.277 C 
ENDBRANCH  20  25
ENDBRANCH  16  17
ENDBRANCH  14  16
ENDBRANCH   1   9
BRANCH   1  28
ATOM     27  C   UNL     1      -0.819   3.588  -1.151  0.00  0.00    +0.006 C 
ATOM     28  C   UNL     1      -0.814   2.058  -1.183  0.00  0.00    +0.032 C 
ENDBRANCH   1  28
BRANCH   4  29
ATOM     29  C   UNL     1       2.734   3.492   1.543  0.00  0.00    +0.123 C 
BRANCH  29  30
ATOM     30  C   UNL     1       2.690   4.924   1.005  0.00  0.00    +0.064 C 
BRANCH  30  31
ATOM     31  C   UNL     1       3.942   5.654   1.417  0.00  0.00    +0.014 A 
ATOM     32  C   UNL     1       5.137   5.755   0.781  0.00  0.00    +0.049 A 
ATOM     33  N   UNL     1       6.090   6.463   1.348  0.00  0.00    -0.252 NA
ATOM     34  C   UNL     1       5.908   7.054   2.507  0.00  0.00    +0.156 A 
ATOM     35  S   UNL     1       4.268   6.622   2.883  0.00  0.00    -0.080 S 
ATOM     36  C   UNL     1       5.365   5.076  -0.545  0.00  0.00    +0.066 C 
ENDBRANCH  30  31
ENDBRANCH  29  30
ENDBRANCH   4  29
TORSDOF 9
