REMARK  Name = ZINC04765219
REMARK  11 active torsions:
REMARK  status: ('A' for Active; 'I' for Inactive)
REMARK    1  A    between atoms: C_1  and  C_2
REMARK    2  A    between atoms: C_3  and  C_25
REMARK    3  A    between atoms: C_14  and  C_18
REMARK    4  A    between atoms: C_15  and  N_17
REMARK    5  A    between atoms: C_18  and  O_20
REMARK    6  A    between atoms: O_20  and  C_21
REMARK    7  A    between atoms: C_21  and  C_22
REMARK    8  A    between atoms: C_21  and  C_23
REMARK    9  A    between atoms: C_21  and  C_24
REMARK   10  A    between atoms: C_25  and  O_27
REMARK   11  A    between atoms: O_27  and  C_28
REMARK                            x       y       z     vdW  Elec       q    Type
REMARK                         _______ _______ _______ _____ _____    ______ ____
ROOT
ATOM      1  C   UNL     1       0.286  -6.129   2.008  0.00  0.00    +0.087 C 
ATOM      2  C   UNL     1       0.516  -4.711   1.552  0.00  0.00    +0.116 C 
ATOM      3  C   UNL     1      -0.195  -4.240   0.517  0.00  0.00    +0.098 C 
ATOM      4  C   UNL     1      -0.005  -2.834   0.032  0.00  0.00    +0.145 C 
ATOM      5  C   UNL     1       0.745  -2.829  -1.276  0.00  0.00    -0.002 A 
ATOM      6  C   UNL     1       2.001  -3.259  -1.642  0.00  0.00    +0.007 A 
ATOM      7  C   UNL     1       2.425  -3.118  -2.951  0.00  0.00    +0.000 A 
ATOM      8  C   UNL     1       1.586  -2.545  -3.889  0.00  0.00    +0.002 A 
ATOM      9  C   UNL     1       0.327  -2.113  -3.526  0.00  0.00    +0.023 A 
ATOM     10  C   UNL     1      -0.108  -2.251  -2.209  0.00  0.00    +0.038 A 
ATOM     11  N   UNL     1      -1.315  -1.896  -1.605  0.00  0.00    -0.284 N 
ATOM     12  C   UNL     1      -1.337  -2.203  -0.295  0.00  0.00    +0.237 C 
ATOM     13  O   UNL     1      -2.253  -2.009   0.476  0.00  0.00    -0.274 OA
ATOM     14  C   UNL     1       0.724  -2.016   1.059  0.00  0.00    +0.117 C 
ATOM     15  C   UNL     1       1.390  -2.626   2.076  0.00  0.00    +0.195 C 
ATOM     16  O   UNL     1       1.425  -3.963   2.193  0.00  0.00    -0.446 OA
ATOM     17  H   UNL     1      -2.053  -1.478  -2.075  0.00  0.00    +0.155 HD
ENDROOT
BRANCH  15  18
ATOM     18  N   UNL     1       2.039  -1.857   3.004  0.00  0.00    -0.329 N 
ATOM     19  H   UNL     1       1.647  -1.021   3.301  0.00  0.00    +0.145 HD
ATOM     20  H   UNL     1       2.892  -2.148   3.364  0.00  0.00    +0.145 HD
ENDBRANCH  15  18
BRANCH  14  21
ATOM     21  C   UNL     1       0.715  -0.616   0.971  0.00  0.00    +0.342 C 
ATOM     22  O   UNL     1       1.229   0.053   1.849  0.00  0.00    -0.245 OA
BRANCH  21  23
ATOM     23  O   UNL     1       0.135  -0.009  -0.088  0.00  0.00    -0.455 OA
BRANCH  23  24
ATOM     24  C   UNL     1       0.162   1.419  -0.112  0.00  0.00    +0.106 C 
ATOM     25  C   UNL     1       1.614   1.902  -0.106  0.00  0.00    +0.055 C 
ATOM     26  C   UNL     1      -0.536   1.921  -1.377  0.00  0.00    +0.055 C 
ATOM     27  C   UNL     1      -0.562   1.964   1.121  0.00  0.00    +0.055 C 
ENDBRANCH  23  24
ENDBRANCH  21  23
ENDBRANCH  14  21
BRANCH   3  28
ATOM     28  C   UNL     1      -1.140  -5.080  -0.122  0.00  0.00    +0.340 C 
ATOM     29  O   UNL     1      -1.303  -6.220   0.268  0.00  0.00    -0.245 OA
BRANCH  28  30
ATOM     30  O   UNL     1      -1.859  -4.614  -1.164  0.00  0.00    -0.465 OA
ATOM     31  C   UNL     1      -2.794  -5.514  -1.762  0.00  0.00    +0.280 C 
ENDBRANCH  28  30
ENDBRANCH   3  28
TORSDOF 6
