REMARK  Name = ZINC08624717
REMARK  14 active torsions:
REMARK  status: ('A' for Active; 'I' for Inactive)
REMARK    1  A    between atoms: C_1  and  C_2
REMARK    2  A    between atoms: C_2  and  C_3
REMARK    3  A    between atoms: C_3  and  C_4
REMARK    4  A    between atoms: C_3  and  C_5
REMARK    5  A    between atoms: C_3  and  N_6
REMARK    6  A    between atoms: C_7  and  C_9
REMARK    7  A    between atoms: C_9  and  C_11
REMARK    8  A    between atoms: C_9  and  N_18
REMARK    9  A    between atoms: C_14  and  C_17
REMARK   10  A    between atoms: N_18  and  C_19
REMARK   11  A    between atoms: C_19  and  C_20
REMARK   12  A    between atoms: C_26  and  C_28
REMARK   13  A    between atoms: C_28  and  N_29
REMARK   14  A    between atoms: C_30  and  C_32
REMARK                            x       y       z     vdW  Elec       q    Type
REMARK                         _______ _______ _______ _____ _____    ______ ____
ROOT
ATOM      1  N   UNL     1       2.123  -4.299  -3.435  0.00  0.00    -0.282 N 
ATOM      2  C   UNL     1       2.775  -5.388  -3.890  0.00  0.00    +0.234 C 
ATOM      3  O   UNL     1       2.464  -6.491  -3.493  0.00  0.00    -0.274 OA
ENDROOT
BRANCH   1   4
ATOM      4  C   UNL     1       1.039  -4.449  -2.461  0.00  0.00    +0.192 C 
BRANCH   4   5
ATOM      5  C   UNL     1       1.596  -4.982  -1.167  0.00  0.00    -0.018 A 
ATOM      6  C   UNL     1       2.934  -4.806  -0.865  0.00  0.00    +0.006 A 
ATOM      7  C   UNL     1       3.445  -5.295   0.323  0.00  0.00    +0.004 A 
ATOM      8  C   UNL     1       2.618  -5.960   1.209  0.00  0.00    -0.050 A 
ATOM      9  C   UNL     1       1.280  -6.136   0.907  0.00  0.00    +0.004 A 
ATOM     10  C   UNL     1       0.768  -5.643  -0.278  0.00  0.00    +0.006 A 
ATOM     11  C   UNL     1       3.175  -6.495   2.503  0.00  0.00    +0.044 C 
ENDBRANCH   4   5
BRANCH   4  13
ATOM     12  N   UNL     1      -0.943  -2.977  -2.306  0.00  0.00    -0.308 N 
ATOM     13  C   UNL     1       0.396  -3.108  -2.217  0.00  0.00    +0.238 C 
ATOM     14  O   UNL     1       1.082  -2.147  -1.939  0.00  0.00    -0.273 OA
ATOM     15  H   UNL     1      -1.492  -3.745  -2.528  0.00  0.00    +0.149 HD
BRANCH  12  16
ATOM     16  C   UNL     1      -1.568  -1.673  -2.068  0.00  0.00    +0.029 C 
ATOM     17  C   UNL     1      -1.029  -0.657  -3.077  0.00  0.00    +0.031 C 
ATOM     18  C   UNL     1      -1.245  -1.204  -0.649  0.00  0.00    +0.031 C 
BRANCH  16  20
ATOM     19  C   UNL     1      -3.738  -0.437  -1.983  0.00  0.00    +0.006 C 
ATOM     20  C   UNL     1      -3.084  -1.798  -2.231  0.00  0.00    +0.022 C 
ENDBRANCH  16  20
ENDBRANCH  12  16
ENDBRANCH   4  13
ENDBRANCH   1   4
BRANCH   1  21
ATOM     21  C   UNL     1       2.500  -2.967  -3.914  0.00  0.00    +0.140 C 
BRANCH  21  22
ATOM     22  C   UNL     1       3.720  -2.471  -3.135  0.00  0.00    +0.136 C 
ATOM     23  C   UNL     1       4.135  -1.061  -3.627  0.00  0.00    +0.035 C 
ATOM     24  C   UNL     1       4.872  -0.517  -2.373  0.00  0.00    +0.031 C 
ATOM     25  C   UNL     1       4.072  -1.158  -1.219  0.00  0.00    +0.160 C 
ATOM     26  O   UNL     1       3.392  -2.304  -1.747  0.00  0.00    -0.375 OA
ENDBRANCH  21  22
ENDBRANCH   1  21
BRANCH   2  27
ATOM     27  C   UNL     1       3.891  -5.234  -4.891  0.00  0.00    +0.200 C 
BRANCH  27  28
ATOM     28  N   UNL     1       4.433  -6.554  -5.224  0.00  0.00    -0.302 N 
ATOM     29  C   UNL     1       5.446  -6.663  -6.106  0.00  0.00    +0.251 C 
ATOM     30  O   UNL     1       5.910  -5.665  -6.626  0.00  0.00    -0.270 OA
ATOM     31  H   UNL     1       4.063  -7.349  -4.810  0.00  0.00    +0.150 HD
BRANCH  29  32
ATOM     32  C   UNL     1       5.989  -7.983  -6.439  0.00  0.00    +0.074 A 
ATOM     33  C   UNL     1       7.020  -8.311  -7.306  0.00  0.00    +0.021 A 
ATOM     34  C   UNL     1       7.307  -9.651  -7.413  0.00  0.00    +0.008 A 
ATOM     35  C   UNL     1       6.585 -10.540  -6.687  0.00  0.00    +0.046 A 
ATOM     36  S   UNL     1       5.500  -9.586  -5.830  0.00  0.00    -0.092 S 
ENDBRANCH  29  32
ENDBRANCH  27  28
ENDBRANCH   2  27
TORSDOF 10
