REMARK  Name = ZINC55104527
REMARK  4 active torsions:
REMARK  status: ('A' for Active; 'I' for Inactive)
REMARK    1  A    between atoms: C_1  and  N_2
REMARK    2  A    between atoms: N_20  and  C_23
REMARK    3  A    between atoms: C_30  and  N_34
REMARK    4  A    between atoms: C_31  and  C_32
REMARK                            x       y       z     vdW  Elec       q    Type
REMARK                         _______ _______ _______ _____ _____    ______ ____
ROOT
ATOM      1  C   UNL     1       3.420   1.542   0.163  0.00  0.00    +0.138 C 
ATOM      2  N   UNL     1       2.721   0.264   0.005  0.00  0.00    -0.273 N 
ATOM      3  C   UNL     1       1.401   0.148  -0.394  0.00  0.00    +0.041 A 
ATOM      4  C   UNL     1       0.484   1.147  -0.721  0.00  0.00    +0.024 A 
ATOM      5  C   UNL     1      -0.790   0.743  -1.091  0.00  0.00    +0.002 A 
ATOM      6  C   UNL     1      -1.148  -0.589  -1.137  0.00  0.00    +0.000 A 
ATOM      7  C   UNL     1      -0.242  -1.595  -0.815  0.00  0.00    +0.007 A 
ATOM      8  C   UNL     1       1.026  -1.199  -0.448  0.00  0.00    -0.001 A 
ATOM      9  C   UNL     1       2.234  -1.989  -0.049  0.00  0.00    +0.147 C 
ATOM     10  C   UNL     1       3.291  -0.939   0.226  0.00  0.00    +0.240 C 
ATOM     11  O   UNL     1       4.433  -1.141   0.579  0.00  0.00    -0.274 OA
ATOM     12  C   UNL     1       1.966  -2.790   1.194  0.00  0.00    +0.085 A 
ATOM     13  C   UNL     1       1.807  -4.143   1.120  0.00  0.00    +0.149 A 
ATOM     14  C   UNL     1       1.546  -4.888   2.360  0.00  0.00    +0.042 A 
ATOM     15  C   UNL     1       1.369  -6.273   2.346  0.00  0.00    +0.013 A 
ATOM     16  C   UNL     1       1.127  -6.937   3.517  0.00  0.00    +0.001 A 
ATOM     17  C   UNL     1       1.058  -6.245   4.718  0.00  0.00    +0.002 A 
ATOM     18  C   UNL     1       1.229  -4.878   4.754  0.00  0.00    +0.027 A 
ATOM     19  C   UNL     1       1.475  -4.183   3.574  0.00  0.00    +0.061 A 
ATOM     20  N   UNL     1       1.648  -2.813   3.577  0.00  0.00    -0.276 N 
ATOM     21  C   UNL     1       1.882  -2.141   2.438  0.00  0.00    +0.265 A 
ATOM     22  O   UNL     1       2.027  -0.930   2.485  0.00  0.00    -0.267 OA
ATOM     23  O   UNL     1       1.886  -4.797  -0.055  0.00  0.00    -0.440 OA
ATOM     24  C   UNL     1       2.487  -4.221  -1.111  0.00  0.00    +0.199 C 
ATOM     25  C   UNL     1       2.684  -2.881  -1.170  0.00  0.00    +0.110 C 
ENDROOT
BRANCH  20  26
ATOM     26  C   UNL     1       1.578  -2.114   4.787  0.00  0.00    +0.050 A 
ATOM     27  C   UNL     1       2.726  -1.913   5.543  0.00  0.00    +0.026 A 
ATOM     28  C   UNL     1       2.653  -1.222   6.736  0.00  0.00    +0.002 A 
ATOM     29  C   UNL     1       1.439  -0.730   7.179  0.00  0.00    +0.000 A 
ATOM     30  C   UNL     1       0.294  -0.928   6.429  0.00  0.00    +0.002 A 
ATOM     31  C   UNL     1       0.361  -1.613   5.232  0.00  0.00    +0.026 A 
ENDBRANCH  20  26
BRANCH  24  32
ATOM     32  N   UNL     1       2.912  -5.008  -2.153  0.00  0.00    -0.328 N 
ATOM     33  H   UNL     1       2.776  -5.968  -2.122  0.00  0.00    +0.145 HD
ATOM     34  H   UNL     1       3.347  -4.604  -2.920  0.00  0.00    +0.145 HD
ENDBRANCH  24  32
BRANCH  25  35
ATOM     35  C   UNL     1       3.327  -2.309  -2.315  0.00  0.00    +0.102 C 
ATOM     36  N   UNL     1       3.838  -1.856  -3.223  0.00  0.00    -0.191 NA
ENDBRANCH  25  35
TORSDOF 3
