REMARK  Name = ZINC26123901
REMARK  10 active torsions:
REMARK  status: ('A' for Active; 'I' for Inactive)
REMARK    1  A    between atoms: C_1  and  C_2
REMARK    2  A    between atoms: C_2  and  C_3
REMARK    3  A    between atoms: C_3  and  O_4
REMARK    4  A    between atoms: O_4  and  C_5
REMARK    5  A    between atoms: C_10  and  C_11
REMARK    6  A    between atoms: N_12  and  N_13
REMARK    7  A    between atoms: C_14  and  C_16
REMARK    8  A    between atoms: C_19  and  O_22
REMARK    9  A    between atoms: O_22  and  C_23
REMARK   10  A    between atoms: C_23  and  C_24
REMARK                            x       y       z     vdW  Elec       q    Type
REMARK                         _______ _______ _______ _____ _____    ______ ____
ROOT
ATOM      1  N   UNL     1      -0.340  -4.965   0.700  0.00  0.00    -0.203 N 
ATOM      2  C   UNL     1      -0.940  -4.374   1.752  0.00  0.00    +0.263 C 
ATOM      3  O   UNL     1      -0.992  -3.160   1.820  0.00  0.00    -0.268 OA
ATOM      4  H   UNL     1      -0.299  -5.932   0.645  0.00  0.00    +0.178 HD
ENDROOT
BRANCH   2   5
ATOM      5  C   UNL     1      -1.535  -5.198   2.821  0.00  0.00    +0.039 A 
ATOM      6  C   UNL     1      -1.473  -6.593   2.747  0.00  0.00    +0.016 A 
ATOM      7  C   UNL     1      -2.029  -7.359   3.747  0.00  0.00    +0.046 A 
ATOM      8  C   UNL     1      -2.653  -6.747   4.828  0.00  0.00    +0.121 A 
ATOM      9  C   UNL     1      -2.718  -5.361   4.905  0.00  0.00    +0.046 A 
ATOM     10  C   UNL     1      -2.158  -4.587   3.913  0.00  0.00    +0.016 A 
BRANCH   8  11
ATOM     11  O   UNL     1      -3.202  -7.506   5.811  0.00  0.00    -0.492 OA
BRANCH  11  12
ATOM     12  C   UNL     1      -3.827  -6.813   6.893  0.00  0.00    +0.225 C 
ATOM     13  C   UNL     1      -4.383  -7.827   7.895  0.00  0.00    +0.048 C 
ENDBRANCH  11  12
ENDBRANCH   8  11
ENDBRANCH   2   5
BRANCH   1  15
ATOM     14  C   UNL     1       0.803  -4.751  -1.329  0.00  0.00    +0.142 C 
ATOM     15  N   UNL     1       0.225  -4.182  -0.315  0.00  0.00    -0.187 NA
BRANCH  14  21
ATOM     16  C   UNL     1       1.341  -2.529  -2.322  0.00  0.00    +0.129 A 
ATOM     17  C   UNL     1       1.908  -1.764  -3.328  0.00  0.00    +0.046 A 
ATOM     18  C   UNL     1       2.522  -2.378  -4.403  0.00  0.00    +0.004 A 
ATOM     19  C   UNL     1       2.575  -3.759  -4.484  0.00  0.00    +0.001 A 
ATOM     20  C   UNL     1       2.015  -4.536  -3.491  0.00  0.00    +0.013 A 
ATOM     21  C   UNL     1       1.398  -3.927  -2.396  0.00  0.00    +0.036 A 
BRANCH  16  22
ATOM     22  O   UNL     1       0.738  -1.926  -1.265  0.00  0.00    -0.491 OA
BRANCH  22  23
ATOM     23  C   UNL     1       0.718  -0.497  -1.257  0.00  0.00    +0.229 C 
BRANCH  23  25
ATOM     24  C   UNL     1      -0.019   1.526   0.010  0.00  0.00    +0.007 C 
ATOM     25  C   UNL     1       0.002  -0.004   0.002  0.00  0.00    +0.038 C 
ENDBRANCH  23  25
ENDBRANCH  22  23
ENDBRANCH  16  22
ENDBRANCH  14  21
ENDBRANCH   1  15
TORSDOF 8
