REMARK  Name = ZINC06550507
REMARK  12 active torsions:
REMARK  status: ('A' for Active; 'I' for Inactive)
REMARK    1  A    between atoms: C_1  and  C_2
REMARK    2  A    between atoms: C_5  and  N_8
REMARK    3  A    between atoms: C_9  and  C_11
REMARK    4  A    between atoms: C_11  and  S_12
REMARK    5  A    between atoms: S_12  and  C_14
REMARK    6  A    between atoms: C_14  and  C_15
REMARK    7  A    between atoms: N_17  and  C_18
REMARK    8  A    between atoms: N_17  and  C_27
REMARK    9  A    between atoms: C_18  and  C_19
REMARK   10  A    between atoms: N_21  and  C_22
REMARK   11  A    between atoms: C_29  and  C_34
REMARK   12  A    between atoms: C_32  and  C_33
REMARK                            x       y       z     vdW  Elec       q    Type
REMARK                         _______ _______ _______ _____ _____    ______ ____
ROOT
ATOM      1  C   UNL     1       0.382  -9.801   3.991  0.00  0.00    +0.233 C 
ATOM      2  O   UNL     1       0.074  -9.041   4.884  0.00  0.00    -0.274 OA
ATOM      3  N   UNL     1       1.030 -10.948   4.275  0.00  0.00    -0.262 N 
ENDROOT
BRANCH   3   4
ATOM      4  C   UNL     1       1.385 -11.825   3.244  0.00  0.00    +0.040 A 
ATOM      5  C   UNL     1       0.480 -12.781   2.800  0.00  0.00    +0.027 A 
ATOM      6  C   UNL     1       0.835 -13.645   1.783  0.00  0.00    -0.049 A 
ATOM      7  C   UNL     1       2.089 -13.560   1.207  0.00  0.00    +0.004 A 
ATOM      8  C   UNL     1       2.992 -12.610   1.647  0.00  0.00    +0.005 A 
ATOM      9  C   UNL     1       2.642 -11.738   2.659  0.00  0.00    -0.029 A 
ATOM     10  C   UNL     1       3.624 -10.699   3.134  0.00  0.00    +0.045 C 
ATOM     11  C   UNL     1      -0.147 -14.682   1.301  0.00  0.00    +0.044 C 
ENDBRANCH   3   4
BRANCH   1  12
ATOM     12  C   UNL     1       0.040  -9.463   2.562  0.00  0.00    +0.200 C 
BRANCH  12  13
ATOM     13  S   UNL     1      -0.823  -7.869   2.508  0.00  0.00    +0.040 S 
ATOM     14  O   UNL     1       0.043  -6.845   2.980  0.00  0.00    -0.256 OA
BRANCH  13  15
ATOM     15  C   UNL     1      -1.159  -7.611   0.744  0.00  0.00    +0.200 C 
BRANCH  15  17
ATOM     16  N   UNL     1      -2.237  -5.900  -0.680  0.00  0.00    -0.285 N 
ATOM     17  C   UNL     1      -1.882  -6.303   0.556  0.00  0.00    +0.230 C 
ATOM     18  O   UNL     1      -2.146  -5.612   1.518  0.00  0.00    -0.274 OA
ATOM     19  H   UNL     1      -2.093  -6.485  -1.440  0.00  0.00    +0.155 HD
BRANCH  16  24
ATOM     20  C   UNL     1      -4.572  -0.786  -1.438  0.00  0.00    +0.044 C 
ATOM     21  C   UNL     1      -3.952  -2.144  -1.237  0.00  0.00    -0.050 A 
ATOM     22  C   UNL     1      -3.016  -2.334  -0.236  0.00  0.00    +0.005 A 
ATOM     23  C   UNL     1      -2.446  -3.578  -0.049  0.00  0.00    +0.023 A 
ATOM     24  C   UNL     1      -2.813  -4.639  -0.867  0.00  0.00    +0.033 A 
ATOM     25  C   UNL     1      -3.753  -4.445  -1.870  0.00  0.00    +0.023 A 
ATOM     26  C   UNL     1      -4.324  -3.200  -2.049  0.00  0.00    +0.005 A 
ENDBRANCH  16  24
ENDBRANCH  15  17
ENDBRANCH  13  15
ENDBRANCH  12  13
ENDBRANCH   1  12
BRANCH   3  27
ATOM     27  C   UNL     1       1.362 -11.277   5.664  0.00  0.00    +0.209 C 
BRANCH  27  28
ATOM     28  C   UNL     1       0.177 -11.937   6.321  0.00  0.00    +0.231 C 
ATOM     29  O   UNL     1      -0.832 -12.147   5.682  0.00  0.00    -0.274 OA
ATOM     30  N   UNL     1       0.239 -12.293   7.619  0.00  0.00    -0.311 N 
ATOM     31  H   UNL     1       1.046 -12.125   8.131  0.00  0.00    +0.149 HD
BRANCH  30  32
ATOM     32  C   UNL     1      -0.913 -12.934   8.258  0.00  0.00    +0.073 C 
ATOM     33  C   UNL     1      -1.869 -11.862   8.823  0.00  0.00    +0.022 C 
ATOM     34  C   UNL     1      -2.389 -12.477  10.146  0.00  0.00    +0.002 C 
ATOM     35  C   UNL     1      -1.137 -13.196  10.705  0.00  0.00    +0.002 C 
ATOM     36  C   UNL     1      -0.448 -13.782   9.455  0.00  0.00    +0.022 C 
ENDBRANCH  30  32
ENDBRANCH  27  28
ENDBRANCH   3  27
TORSDOF 9
