REMARK  Name = ZINC53363104
REMARK  7 active torsions:
REMARK  status: ('A' for Active; 'I' for Inactive)
REMARK    1  A    between atoms: C_1  and  C_2
REMARK    2  A    between atoms: C_2  and  O_3
REMARK    3  A    between atoms: O_3  and  C_4
REMARK    4  A    between atoms: C_7  and  C_10
REMARK    5  A    between atoms: C_12  and  C_26
REMARK    6  A    between atoms: C_15  and  C_18
REMARK    7  A    between atoms: C_23  and  O_24
REMARK                            x       y       z     vdW  Elec       q    Type
REMARK                         _______ _______ _______ _____ _____    ______ ____
ROOT
ATOM      1  C   UNL     1       1.140  -6.030   1.762  0.00  0.00    +0.047 C 
ATOM      2  N   UNL     1       0.632  -6.784   0.861  0.00  0.00    -0.264 NA
ATOM      3  C   UNL     1       0.668  -8.241   0.898  0.00  0.00    +0.204 C 
ATOM      4  N   UNL     1       1.692  -8.711   1.838  0.00  0.00    -0.284 NA
ATOM      5  C   UNL     1       1.524  -8.051   3.144  0.00  0.00    +0.095 C 
ATOM      6  C   UNL     1       1.856  -6.564   2.972  0.00  0.00    +0.079 C 
ATOM      7  H   UNL     1       1.662  -9.715   1.934  0.00  0.00    +0.125 HD
ENDROOT
BRANCH   5   8
ATOM      8  C   UNL     1       2.463  -8.667   4.150  0.00  0.00    +0.013 A 
ATOM      9  C   UNL     1       3.625  -9.282   3.724  0.00  0.00    +0.028 A 
ATOM     10  C   UNL     1       4.487  -9.848   4.646  0.00  0.00    +0.042 A 
ATOM     11  C   UNL     1       4.188  -9.799   5.997  0.00  0.00    +0.023 A 
ATOM     12  C   UNL     1       3.027  -9.185   6.426  0.00  0.00    +0.047 A 
ATOM     13  C   UNL     1       2.164  -8.612   5.503  0.00  0.00    +0.122 A 
ATOM     14 CL   UNL     1       5.946 -10.620   4.109  0.00  0.00    -0.084 Cl
BRANCH  13  15
ATOM     15  O   UNL     1       1.025  -8.002   5.924  0.00  0.00    -0.506 OA
ATOM     16  H   UNL     1       0.261  -8.592   5.981  0.00  0.00    +0.292 HD
ENDBRANCH  13  15
ENDBRANCH   5   8
BRANCH   3  17
ATOM     17  C   UNL     1       0.982  -8.765  -0.480  0.00  0.00    -0.009 A 
ATOM     18  C   UNL     1       1.657  -9.963  -0.626  0.00  0.00    +0.008 A 
ATOM     19  C   UNL     1       1.945 -10.444  -1.889  0.00  0.00    +0.015 A 
ATOM     20  C   UNL     1       1.557  -9.728  -3.007  0.00  0.00    +0.018 A 
ATOM     21  C   UNL     1       0.881  -8.530  -2.860  0.00  0.00    +0.015 A 
ATOM     22  C   UNL     1       0.590  -8.052  -1.597  0.00  0.00    +0.008 A 
ATOM     23 BR   UNL     1       1.951 -10.386  -4.736  0.00  0.00    -0.050 Br
ENDBRANCH   3  17
BRANCH   1  27
ATOM     24  C   UNL     1       0.802  -1.823   1.306  0.00  0.00    +0.121 A 
ATOM     25  C   UNL     1       0.258  -2.670   0.348  0.00  0.00    +0.046 A 
ATOM     26  C   UNL     1       0.365  -4.035   0.492  0.00  0.00    +0.013 A 
ATOM     27  C   UNL     1       1.023  -4.569   1.603  0.00  0.00    -0.004 A 
ATOM     28  C   UNL     1       1.570  -3.713   2.564  0.00  0.00    +0.013 A 
ATOM     29  C   UNL     1       1.462  -2.349   2.409  0.00  0.00    +0.046 A 
BRANCH  24  30
ATOM     30  O   UNL     1       0.693  -0.477   1.160  0.00  0.00    -0.492 OA
BRANCH  30  32
ATOM     31  C   UNL     1      -0.019   1.526   0.010  0.00  0.00    +0.048 C 
ATOM     32  C   UNL     1       0.002  -0.004   0.002  0.00  0.00    +0.225 C 
ENDBRANCH  30  32
ENDBRANCH  24  30
ENDBRANCH   1  27
TORSDOF 6
