REMARK  Name = ZINC03104277
REMARK  5 active torsions:
REMARK  status: ('A' for Active; 'I' for Inactive)
REMARK    1  A    between atoms: C_3  and  N_22
REMARK    2  A    between atoms: N_9  and  C_12
REMARK    3  A    between atoms: C_15  and  C_17
REMARK    4  A    between atoms: N_22  and  S_23
REMARK    5  A    between atoms: S_23  and  C_26
REMARK                            x       y       z     vdW  Elec       q    Type
REMARK                         _______ _______ _______ _____ _____    ______ ____
ROOT
ATOM      1  C   UNL     1       0.250  -8.749  -0.985  0.00  0.00    +0.019 A 
ATOM      2  C   UNL     1      -0.295  -8.087  -2.078  0.00  0.00    +0.029 A 
ATOM      3  C   UNL     1      -0.194  -6.704  -2.130  0.00  0.00    +0.086 A 
ATOM      4  C   UNL     1       0.448  -6.032  -1.086  0.00  0.00    +0.122 A 
ATOM      5  C   UNL     1       0.869  -8.020   0.009  0.00  0.00    +0.084 A 
ATOM      6  N   UNL     1       0.558  -4.644  -1.122  0.00  0.00    -0.312 N 
ATOM      7  C   UNL     1      -0.172  -4.029  -0.004  0.00  0.00    +0.125 C 
ATOM      8  C   UNL     1      -0.093  -2.505  -0.125  0.00  0.00    +0.125 C 
ATOM      9  N   UNL     1       1.316  -2.088  -0.122  0.00  0.00    -0.313 N 
ATOM     10  C   UNL     1       2.046  -2.704  -1.239  0.00  0.00    +0.125 C 
ATOM     11  C   UNL     1       1.967  -4.228  -1.119  0.00  0.00    +0.125 C 
ATOM     12  N   UNL     1       0.993  -6.665  -0.009  0.00  0.00    -0.348 N 
ATOM     13  H   UNL     1       1.467  -6.151   0.743  0.00  0.00    +0.167 HD
ENDROOT
BRANCH   9  14
ATOM     14  C   UNL     1       1.426  -0.703  -0.158  0.00  0.00    +0.118 A 
ATOM     15  C   UNL     1       2.070  -0.034   0.880  0.00  0.00    +0.079 A 
ATOM     16  C   UNL     1       2.173   1.345   0.831  0.00  0.00    +0.037 A 
ATOM     17  C   UNL     1       1.626   2.011  -0.258  0.00  0.00    +0.072 A 
ATOM     18  C   UNL     1       1.002   1.285  -1.252  0.00  0.00    +0.096 A 
ATOM     19 CL   UNL     1       2.735  -0.919   2.218  0.00  0.00    -0.080 Cl
ATOM     20  N   UNL     1       0.882  -0.070  -1.237  0.00  0.00    -0.348 N 
ATOM     21  H   UNL     1       0.412  -0.584  -1.991  0.00  0.00    +0.167 HD
BRANCH  17  22
ATOM     22  C   UNL     1       1.715   3.513  -0.354  0.00  0.00    +0.419 C 
ATOM     23  F   UNL     1       1.096   3.942  -1.533  0.00  0.00    -0.166 F 
ATOM     24  F   UNL     1       1.071   4.089   0.746  0.00  0.00    -0.166 F 
ATOM     25  F   UNL     1       3.059   3.901  -0.365  0.00  0.00    -0.166 F 
ENDBRANCH  17  22
ENDBRANCH   9  14
BRANCH   3  26
ATOM     26  N   UNL     1      -0.727  -5.992  -3.211  0.00  0.00    -0.210 N 
ATOM     27  H   UNL     1      -0.275  -5.200  -3.541  0.00  0.00    +0.174 HD
BRANCH  26  28
ATOM     28  S   UNL     1      -2.130  -6.504  -3.928  0.00  0.00    +0.141 S 
ATOM     29  O   UNL     1      -2.356  -5.579  -4.983  0.00  0.00    -0.147 OA
ATOM     30  O   UNL     1      -1.914  -7.881  -4.206  0.00  0.00    -0.147 OA
BRANCH  28  31
ATOM     31  C   UNL     1      -3.402  -6.316  -2.649  0.00  0.00    +0.538 C 
ATOM     32  F   UNL     1      -3.479  -4.974  -2.261  0.00  0.00    -0.149 F 
ATOM     33  F   UNL     1      -4.639  -6.726  -3.159  0.00  0.00    -0.149 F 
ATOM     34  F   UNL     1      -3.070  -7.104  -1.542  0.00  0.00    -0.149 F 
ENDBRANCH  28  31
ENDBRANCH  26  28
ENDBRANCH   3  26
TORSDOF 5
