REMARK  Name = ZINC12716020
REMARK  10 active torsions:
REMARK  status: ('A' for Active; 'I' for Inactive)
REMARK    1  A    between atoms: C_3  and  C_6
REMARK    2  A    between atoms: C_6  and  N_7
REMARK    3  A    between atoms: N_7  and  C_8
REMARK    4  A    between atoms: C_8  and  C_10
REMARK    5  A    between atoms: C_8  and  C_17
REMARK    6  A    between atoms: N_19  and  C_20
REMARK    7  A    between atoms: C_20  and  C_21
REMARK    8  A    between atoms: C_27  and  C_29
REMARK    9  A    between atoms: C_30  and  N_37
REMARK   10  A    between atoms: C_31  and  C_34
REMARK                            x       y       z     vdW  Elec       q    Type
REMARK                         _______ _______ _______ _____ _____    ______ ____
ROOT
ATOM      1  N   UNL     1       2.756   4.079  -1.079  0.00  0.00    -0.277 N 
ATOM      2  C   UNL     1       3.248   2.886  -1.468  0.00  0.00    +0.258 C 
ATOM      3  O   UNL     1       2.884   2.392  -2.519  0.00  0.00    -0.269 OA
ENDROOT
BRANCH   2   4
ATOM      4  C   UNL     1       4.220   2.185  -0.627  0.00  0.00    +0.115 A 
ATOM      5  C   UNL     1       4.962   1.036  -0.903  0.00  0.00    +0.076 A 
ATOM      6  C   UNL     1       5.791   0.667   0.157  0.00  0.00    +0.155 A 
ATOM      7  N   UNL     1       5.795   1.394   1.253  0.00  0.00    -0.203 NA
ATOM      8  S   UNL     1       4.777   2.574   1.019  0.00  0.00    +0.019 S 
BRANCH   6   9
ATOM      9  C   UNL     1       6.653  -0.524   0.050  0.00  0.00    +0.262 C 
ATOM     10  O   UNL     1       6.645  -1.191  -0.966  0.00  0.00    -0.269 OA
ATOM     11  N   UNL     1       7.451  -0.873   1.079  0.00  0.00    -0.324 N 
ATOM     12  H   UNL     1       7.458  -0.340   1.890  0.00  0.00    +0.145 HD
ATOM     13  H   UNL     1       8.018  -1.656   1.008  0.00  0.00    +0.145 HD
ENDBRANCH   6   9
BRANCH   5  14
ATOM     14  N   UNL     1       4.885   0.336  -2.100  0.00  0.00    -0.355 N 
ATOM     15  H   UNL     1       4.290   0.641  -2.802  0.00  0.00    +0.142 HD
ATOM     16  H   UNL     1       5.427  -0.457  -2.234  0.00  0.00    +0.142 HD
ENDBRANCH   5  14
ENDBRANCH   2   4
BRANCH   1  17
ATOM     17  C   UNL     1       3.175   4.662   0.199  0.00  0.00    +0.151 C 
BRANCH  17  20
ATOM     18  C   UNL     1       6.098   7.009  -0.482  0.00  0.00    +0.008 A 
ATOM     19  C   UNL     1       4.781   6.596  -0.404  0.00  0.00    +0.013 A 
ATOM     20  C   UNL     1       4.510   5.340   0.028  0.00  0.00    +0.007 A 
ATOM     21  S   UNL     1       6.146   4.696   0.340  0.00  0.00    -0.100 S 
ATOM     22  C   UNL     1       7.080   6.145  -0.126  0.00  0.00    +0.045 A 
ENDBRANCH  17  20
ENDBRANCH   1  17
BRANCH   1  23
ATOM     23  C   UNL     1       1.804   4.793  -1.932  0.00  0.00    +0.193 C 
BRANCH  23  24
ATOM     24  C   UNL     1       0.465   4.104  -1.876  0.00  0.00    -0.018 A 
ATOM     25  C   UNL     1      -0.057   3.707  -0.659  0.00  0.00    +0.009 A 
ATOM     26  C   UNL     1      -1.287   3.079  -0.605  0.00  0.00    +0.038 A 
ATOM     27  C   UNL     1      -1.992   2.838  -1.772  0.00  0.00    +0.123 A 
ATOM     28  C   UNL     1      -1.466   3.231  -2.991  0.00  0.00    +0.038 A 
ATOM     29  C   UNL     1      -0.238   3.864  -3.042  0.00  0.00    +0.009 A 
ATOM     30  F   UNL     1      -3.192   2.220  -1.722  0.00  0.00    -0.205 F 
ENDBRANCH  23  24
BRANCH  23  31
ATOM     31  C   UNL     1       1.659   6.212  -1.446  0.00  0.00    +0.238 C 
ATOM     32  O   UNL     1       2.388   6.631  -0.573  0.00  0.00    -0.273 OA
ATOM     33  N   UNL     1       0.719   7.016  -1.983  0.00  0.00    -0.311 N 
ATOM     34  H   UNL     1       0.136   6.680  -2.682  0.00  0.00    +0.149 HD
BRANCH  33  35
ATOM     35  C   UNL     1       0.579   8.395  -1.511  0.00  0.00    +0.135 C 
BRANCH  35  36
ATOM     36  C   UNL     1      -0.551   9.084  -2.278  0.00  0.00    +0.135 C 
ATOM     37  C   UNL     1      -0.661  10.567  -1.858  0.00  0.00    +0.035 C 
ATOM     38  C   UNL     1      -2.181  10.846  -1.861  0.00  0.00    +0.031 C 
ATOM     39  C   UNL     1      -2.809   9.500  -2.283  0.00  0.00    +0.160 C 
ATOM     40  O   UNL     1      -1.826   8.503  -1.926  0.00  0.00    -0.375 OA
ENDBRANCH  35  36
ENDBRANCH  33  35
ENDBRANCH  23  31
ENDBRANCH   1  23
TORSDOF 10
