REMARK  Name = ZINC34831472
REMARK  6 active torsions:
REMARK  status: ('A' for Active; 'I' for Inactive)
REMARK    1  A    between atoms: C_6  and  N_7
REMARK    2  A    between atoms: C_10  and  C_13
REMARK    3  A    between atoms: N_18  and  C_21
REMARK    4  A    between atoms: C_21  and  C_22
REMARK    5  A    between atoms: N_24  and  C_25
REMARK    6  A    between atoms: C_25  and  C_26
REMARK                            x       y       z     vdW  Elec       q    Type
REMARK                         _______ _______ _______ _____ _____    ______ ____
ROOT
ATOM      1  C   UNL     1      -3.134  -5.178  -0.428  0.00  0.00    +0.266 C 
ATOM      2  O   UNL     1      -2.934  -6.372  -0.549  0.00  0.00    -0.268 OA
ATOM      3  N   UNL     1      -4.386  -4.691  -0.537  0.00  0.00    -0.294 N 
ATOM      4  C   UNL     1      -4.646  -3.246  -0.437  0.00  0.00    +0.123 C 
ATOM      5  C   UNL     1      -5.484  -2.817  -1.646  0.00  0.00    +0.104 C 
ATOM      6  N   UNL     1      -6.684  -3.660  -1.730  0.00  0.00    -0.291 NA
ATOM      7  C   UNL     1      -6.332  -5.068  -1.956  0.00  0.00    +0.104 C 
ATOM      8  C   UNL     1      -5.529  -5.588  -0.766  0.00  0.00    +0.123 C 
ENDROOT
BRANCH   1  12
ATOM      9  N   UNL     1      -1.282  -0.848   0.846  0.00  0.00    -0.294 N 
ATOM     10  C   UNL     1      -1.240  -2.176   0.453  0.00  0.00    +0.163 A 
ATOM     11  N   UNL     1      -2.236  -3.004   0.211  0.00  0.00    -0.220 NA
ATOM     12  C   UNL     1      -2.010  -4.266  -0.162  0.00  0.00    +0.135 A 
ATOM     13  C   UNL     1      -0.715  -4.700  -0.294  0.00  0.00    +0.081 A 
ATOM     14  S   UNL     1       0.180  -3.213   0.135  0.00  0.00    -0.060 S 
ATOM     15  H   UNL     1      -2.131  -0.435   1.070  0.00  0.00    +0.154 HD
BRANCH   9  21
ATOM     16  C   UNL     1       0.964  -0.401   0.078  0.00  0.00    +0.026 A 
ATOM     17  C   UNL     1       2.129   0.337   0.151  0.00  0.00    +0.040 A 
ATOM     18  C   UNL     1       2.236   1.375   1.062  0.00  0.00    +0.124 A 
ATOM     19  C   UNL     1       1.176   1.675   1.901  0.00  0.00    +0.040 A 
ATOM     20  C   UNL     1       0.009   0.939   1.831  0.00  0.00    +0.026 A 
ATOM     21  C   UNL     1      -0.101  -0.102   0.918  0.00  0.00    +0.033 A 
ATOM     22  F   UNL     1       3.377   2.095   1.132  0.00  0.00    -0.205 F 
ENDBRANCH   9  21
ENDBRANCH   1  12
BRANCH   6  23
ATOM     23  C   UNL     1      -7.598  -3.171  -2.771  0.00  0.00    +0.180 C 
BRANCH  23  24
ATOM     24  C   UNL     1      -8.914  -3.898  -2.665  0.00  0.00    +0.227 C 
ATOM     25  O   UNL     1      -9.074  -4.741  -1.807  0.00  0.00    -0.274 OA
ATOM     26  N   UNL     1      -9.913  -3.613  -3.524  0.00  0.00    -0.314 N 
ATOM     27  H   UNL     1      -9.785  -2.940  -4.210  0.00  0.00    +0.149 HD
BRANCH  26  28
ATOM     28  C   UNL     1     -11.192  -4.320  -3.421  0.00  0.00    +0.107 C 
BRANCH  28  29
ATOM     29  C   UNL     1     -12.144  -3.812  -4.505  0.00  0.00    +0.006 C 
ATOM     30  C   UNL     1     -13.420  -3.102  -4.048  0.00  0.00    +0.005 C 
ATOM     31  C   UNL     1     -13.498  -4.511  -4.641  0.00  0.00    +0.005 C 
ENDBRANCH  28  29
ENDBRANCH  26  28
ENDBRANCH  23  24
ENDBRANCH   6  23
TORSDOF 6
