REMARK  Name = ZINC21232516
REMARK  12 active torsions:
REMARK  status: ('A' for Active; 'I' for Inactive)
REMARK    1  A    between atoms: C_1  and  C_2
REMARK    2  A    between atoms: C_2  and  C_3
REMARK    3  A    between atoms: C_2  and  O_4
REMARK    4  A    between atoms: O_4  and  C_5
REMARK    5  A    between atoms: C_8  and  C_11
REMARK    6  A    between atoms: C_16  and  C_26
REMARK    7  A    between atoms: C_30  and  O_36
REMARK    8  A    between atoms: C_31  and  O_32
REMARK    9  A    between atoms: O_32  and  C_33
REMARK   10  A    between atoms: C_33  and  C_34
REMARK   11  A    between atoms: C_33  and  C_35
REMARK   12  A    between atoms: O_36  and  C_37
REMARK                            x       y       z     vdW  Elec       q    Type
REMARK                         _______ _______ _______ _____ _____    ______ ____
ROOT
ATOM      1  C   UNL     1      -3.514   2.617  -1.218  0.00  0.00    +0.032 C 
ATOM      2  C   UNL     1      -2.492   3.387  -2.053  0.00  0.00    +0.059 C 
ATOM      3  C   UNL     1      -1.086   2.933  -1.698  0.00  0.00    +0.017 C 
ATOM      4  C   UNL     1      -0.853   1.662  -1.328  0.00  0.00    +0.037 C 
ATOM      5  C   UNL     1       0.490   1.079  -0.959  0.00  0.00    +0.140 C 
ATOM      6  N   UNL     1       1.621   1.925  -1.275  0.00  0.00    -0.331 N 
ATOM      7  C   UNL     1       1.796   3.154  -0.642  0.00  0.00    +0.049 A 
ATOM      8  C   UNL     1       2.877   3.393   0.192  0.00  0.00    +0.025 A 
ATOM      9  C   UNL     1       2.982   4.614   0.836  0.00  0.00    +0.002 A 
ATOM     10  C   UNL     1       2.017   5.588   0.653  0.00  0.00    +0.002 A 
ATOM     11  C   UNL     1       0.946   5.359  -0.193  0.00  0.00    +0.025 A 
ATOM     12  C   UNL     1       0.851   4.147  -0.855  0.00  0.00    +0.052 A 
ATOM     13  N   UNL     1      -0.133   3.894  -1.804  0.00  0.00    -0.316 N 
ATOM     14  C   UNL     1      -1.921   0.738  -1.244  0.00  0.00    +0.163 C 
ATOM     15  O   UNL     1      -1.679  -0.411  -0.929  0.00  0.00    -0.292 OA
ATOM     16  C   UNL     1      -3.341   1.125  -1.529  0.00  0.00    +0.088 C 
ATOM     17  H   UNL     1       2.358   1.601  -2.024  0.00  0.00    +0.147 HD
ATOM     18  H   UNL     1      -0.102   4.543  -2.691  0.00  0.00    +0.152 HD
ENDROOT
BRANCH   1  22
ATOM     19  C   UNL     1      -7.469   3.864  -2.250  0.00  0.00    +0.121 A 
ATOM     20  C   UNL     1      -7.022   3.981  -0.942  0.00  0.00    +0.046 A 
ATOM     21  C   UNL     1      -5.743   3.578  -0.611  0.00  0.00    +0.007 A 
ATOM     22  C   UNL     1      -4.908   3.057  -1.582  0.00  0.00    -0.043 A 
ATOM     23  C   UNL     1      -5.349   2.944  -2.888  0.00  0.00    +0.007 A 
ATOM     24  C   UNL     1      -6.629   3.341  -3.223  0.00  0.00    +0.046 A 
BRANCH  19  25
ATOM     25  O   UNL     1      -8.726   4.261  -2.578  0.00  0.00    -0.489 OA
BRANCH  25  27
ATOM     26  C   UNL     1      -9.327   6.142  -1.185  0.00  0.00    +0.051 C 
ATOM     27  C   UNL     1      -9.579   4.667  -1.506  0.00  0.00    +0.167 C 
ATOM     28  C   UNL     1     -11.040   4.476  -1.916  0.00  0.00    +0.051 C 
ENDBRANCH  25  27
ENDBRANCH  19  25
ENDBRANCH   1  22
BRANCH   5  29
ATOM     29  C   UNL     1       0.499   0.803   0.522  0.00  0.00    +0.023 A 
ATOM     30  C   UNL     1       0.461   1.852   1.422  0.00  0.00    +0.009 A 
ATOM     31  C   UNL     1       0.470   1.603   2.781  0.00  0.00    +0.004 A 
ATOM     32  C   UNL     1       0.516   0.302   3.248  0.00  0.00    +0.049 A 
ATOM     33  C   UNL     1       0.554  -0.755   2.352  0.00  0.00    +0.162 A 
ATOM     34  C   UNL     1       0.541  -0.503   0.983  0.00  0.00    +0.168 A 
BRANCH  33  35
ATOM     35  O   UNL     1       0.600  -2.034   2.810  0.00  0.00    -0.491 OA
ATOM     36  C   UNL     1       0.606  -2.217   4.227  0.00  0.00    +0.277 C 
ENDBRANCH  33  35
BRANCH  34  37
ATOM     37  O   UNL     1       0.573  -1.537   0.100  0.00  0.00    -0.485 OA
BRANCH  37  38
ATOM     38  C   UNL     1       1.854  -2.098  -0.194  0.00  0.00    +0.168 C 
ATOM     39  C   UNL     1       1.691  -3.575  -0.561  0.00  0.00    +0.051 C 
ATOM     40  C   UNL     1       2.482  -1.347  -1.369  0.00  0.00    +0.051 C 
ENDBRANCH  37  38
ENDBRANCH  34  37
ENDBRANCH   5  29
TORSDOF 7
