REMARK  Name = ZINC06269475
REMARK  5 active torsions:
REMARK  status: ('A' for Active; 'I' for Inactive)
REMARK    1  A    between atoms: C_4  and  N_25
REMARK    2  A    between atoms: C_5  and  N_7
REMARK    3  A    between atoms: C_8  and  C_10
REMARK    4  A    between atoms: C_12  and  N_22
REMARK    5  A    between atoms: C_15  and  N_16
REMARK                            x       y       z     vdW  Elec       q    Type
REMARK                         _______ _______ _______ _____ _____    ______ ____
ROOT
ATOM      1  N   UNL     1      -2.656   0.373   3.878  0.00  0.00    -0.280 N 
ATOM      2  C   UNL     1      -2.020   1.207   3.032  0.00  0.00    +0.250 C 
ATOM      3  O   UNL     1      -1.435   0.761   2.063  0.00  0.00    -0.270 OA
ATOM      4  H   UNL     1      -3.180   0.732   4.611  0.00  0.00    +0.155 HD
ENDROOT
BRANCH   1   9
ATOM      5  C   UNL     1      -2.375  -2.913   2.248  0.00  0.00    +0.002 A 
ATOM      6  C   UNL     1      -2.372  -3.755   3.344  0.00  0.00    +0.002 A 
ATOM      7  C   UNL     1      -2.462  -3.234   4.622  0.00  0.00    +0.025 A 
ATOM      8  C   UNL     1      -2.551  -1.862   4.806  0.00  0.00    +0.051 A 
ATOM      9  C   UNL     1      -2.561  -1.013   3.699  0.00  0.00    +0.055 A 
ATOM     10  C   UNL     1      -2.469  -1.545   2.422  0.00  0.00    +0.025 A 
BRANCH   8  11
ATOM     11  N   UNL     1      -2.638  -1.332   6.098  0.00  0.00    -0.328 N 
ATOM     12  C   UNL     1      -1.413  -1.605   6.861  0.00  0.00    +0.105 C 
ATOM     13  C   UNL     1      -1.483  -0.890   8.212  0.00  0.00    +0.019 C 
ATOM     14  C   UNL     1      -2.709  -1.385   8.984  0.00  0.00    +0.003 C 
ATOM     15  C   UNL     1      -3.966  -1.132   8.146  0.00  0.00    +0.019 C 
ATOM     16  C   UNL     1      -3.824  -1.841   6.797  0.00  0.00    +0.105 C 
ENDBRANCH   8  11
ENDBRANCH   1   9
BRANCH   2  17
ATOM     17  C   UNL     1      -2.034   2.660   3.280  0.00  0.00    +0.060 A 
ATOM     18  C   UNL     1      -2.607   3.168   4.448  0.00  0.00    +0.047 A 
ATOM     19  C   UNL     1      -2.617   4.527   4.674  0.00  0.00    +0.127 A 
ATOM     20  C   UNL     1      -2.061   5.395   3.747  0.00  0.00    +0.034 A 
ATOM     21  C   UNL     1      -1.486   4.909   2.591  0.00  0.00    +0.026 A 
ATOM     22  C   UNL     1      -1.472   3.541   2.343  0.00  0.00    +0.042 A 
BRANCH  22  23
ATOM     23  N   UNL     1      -0.899   3.049   1.177  0.00  0.00    -0.325 N 
ATOM     24  C   UNL     1      -1.561   3.608  -0.011  0.00  0.00    +0.133 C 
ATOM     25  C   UNL     1      -0.939   2.996  -1.269  0.00  0.00    +0.178 C 
ATOM     26  O   UNL     1       0.470   3.241  -1.267  0.00  0.00    -0.377 OA
ATOM     27  C   UNL     1       1.145   2.709  -0.124  0.00  0.00    +0.178 C 
ATOM     28  C   UNL     1       0.545   3.319   1.145  0.00  0.00    +0.133 C 
ENDBRANCH  22  23
BRANCH  19  29
ATOM     29  N   UNL     1      -3.224   5.063   5.913  0.00  0.00    +0.056 N 
ATOM     30  O   UNL     1      -3.712   4.304   6.730  0.00  0.00    -0.126 OA
ATOM     31  O   UNL     1      -3.234   6.264   6.116  0.00  0.00    -0.126 OA
ENDBRANCH  19  29
ENDBRANCH   2  17
TORSDOF 5
