REMARK  Name = ZINC09425658
REMARK  6 active torsions:
REMARK  status: ('A' for Active; 'I' for Inactive)
REMARK    1  A    between atoms: C_10  and  C_11
REMARK    2  A    between atoms: C_12  and  C_13
REMARK    3  A    between atoms: N_15  and  N_16
REMARK    4  A    between atoms: C_17  and  C_19
REMARK    5  A    between atoms: C_22  and  N_25
REMARK    6  A    between atoms: C_26  and  C_28
REMARK                            x       y       z     vdW  Elec       q    Type
REMARK                         _______ _______ _______ _____ _____    ______ ____
ROOT
ATOM      1  N   UNL     1       1.497  -4.851  -0.040  0.00  0.00    -0.230 N 
ATOM      2  C   UNL     1       0.300  -4.242   0.072  0.00  0.00    +0.260 C 
ATOM      3  O   UNL     1      -0.712  -4.907   0.186  0.00  0.00    -0.269 OA
ATOM      4  H   UNL     1       2.304  -4.321  -0.131  0.00  0.00    +0.173 HD
ENDROOT
BRANCH   2   5
ATOM      5  C   UNL     1       0.217  -2.768   0.055  0.00  0.00    +0.038 A 
ATOM      6  C   UNL     1      -1.024  -2.136   0.171  0.00  0.00    +0.015 A 
ATOM      7  C   UNL     1      -1.097  -0.761   0.155  0.00  0.00    +0.024 A 
ATOM      8  C   UNL     1       0.061  -0.002   0.025  0.00  0.00    +0.033 A 
ATOM      9  C   UNL     1       1.298  -0.629  -0.096  0.00  0.00    +0.024 A 
ATOM     10  C   UNL     1       1.379  -2.003  -0.076  0.00  0.00    +0.015 A 
BRANCH   8  11
ATOM     11  N   UNL     1      -0.017   1.390   0.010  0.00  0.00    -0.285 N 
ATOM     12  C   UNL     1       0.961   2.126   0.573  0.00  0.00    +0.220 C 
ATOM     13  O   UNL     1       1.949   1.583   1.020  0.00  0.00    -0.275 OA
ATOM     14  H   UNL     1      -0.773   1.829  -0.410  0.00  0.00    +0.155 HD
BRANCH  12  15
ATOM     15  C   UNL     1       0.828   3.626   0.649  0.00  0.00    +0.075 C 
ATOM     16  C   UNL     1       0.701   4.198  -0.764  0.00  0.00    +0.013 C 
ATOM     17  C   UNL     1       0.566   5.720  -0.687  0.00  0.00    +0.001 C 
ATOM     18  C   UNL     1       1.803   6.309  -0.007  0.00  0.00    +0.000 C 
ATOM     19  C   UNL     1       1.929   5.736   1.406  0.00  0.00    +0.001 C 
ATOM     20  C   UNL     1       2.065   4.214   1.329  0.00  0.00    +0.013 C 
ENDBRANCH  12  15
ENDBRANCH   8  11
ENDBRANCH   2   5
BRANCH   1  23
ATOM     21  C   UNL     1       2.773  -6.858  -0.135  0.00  0.00    +0.253 C 
ATOM     22  O   UNL     1       3.786  -6.193  -0.250  0.00  0.00    -0.269 OA
ATOM     23  N   UNL     1       1.576  -6.250  -0.024  0.00  0.00    -0.231 N 
ATOM     24  H   UNL     1       0.769  -6.780   0.067  0.00  0.00    +0.173 HD
BRANCH  21  26
ATOM     25  C   UNL     1       4.056  -8.929  -0.230  0.00  0.00    +0.013 C 
ATOM     26  C   UNL     1       2.856  -8.319  -0.119  0.00  0.00    +0.069 C 
BRANCH  25  36
ATOM     27  C   UNL     1       7.840 -12.415  -0.574  0.00  0.00    +0.001 A 
ATOM     28  C   UNL     1       7.803 -11.023  -0.595  0.00  0.00    +0.001 A 
ATOM     29  C   UNL     1       6.621 -10.352  -0.480  0.00  0.00    +0.009 A 
ATOM     30  C   UNL     1       5.429 -11.071  -0.340  0.00  0.00    -0.011 A 
ATOM     31  C   UNL     1       5.463 -12.487  -0.312  0.00  0.00    -0.017 A 
ATOM     32  C   UNL     1       6.700 -13.145  -0.427  0.00  0.00    +0.008 A 
ATOM     33  C   UNL     1       4.263 -13.205  -0.178  0.00  0.00    +0.008 A 
ATOM     34  C   UNL     1       3.072 -12.554  -0.068  0.00  0.00    +0.001 A 
ATOM     35  C   UNL     1       2.990 -11.169  -0.084  0.00  0.00    +0.008 A 
ATOM     36  C   UNL     1       4.138 -10.394  -0.214  0.00  0.00    -0.017 A 
ENDBRANCH  25  36
ENDBRANCH  21  26
ENDBRANCH   1  23
TORSDOF 6
