REMARK  Name = ZINC38690113
REMARK  4 active torsions:
REMARK  status: ('A' for Active; 'I' for Inactive)
REMARK    1  A    between atoms: C_1  and  C_2
REMARK    2  A    between atoms: C_4  and  C_8
REMARK    3  A    between atoms: C_15  and  C_18
REMARK    4  A    between atoms: C_21  and  C_24
REMARK                            x       y       z     vdW  Elec       q    Type
REMARK                         _______ _______ _______ _____ _____    ______ ____
ROOT
ATOM      1  C   UNL     1      -0.964  -2.951   1.248  0.00  0.00    +0.230 C 
ATOM      2  N   UNL     1      -0.406  -2.314   2.457  0.00  0.00    -0.242 N 
ATOM      3  N   UNL     1       0.415  -3.276   3.066  0.00  0.00    -0.161 NA
ATOM      4  C   UNL     1       0.423  -4.366   2.404  0.00  0.00    +0.195 C 
ATOM      5  N   UNL     1      -0.391  -4.293   1.256  0.00  0.00    -0.176 N 
ATOM      6  N   UNL     1      -0.546  -5.351   0.366  0.00  0.00    -0.179 NA
ATOM      7  C   UNL     1      -0.326  -6.590   0.660  0.00  0.00    +0.077 C 
ATOM      8  C   UNL     1       0.086  -7.082   2.026  0.00  0.00    +0.134 C 
ATOM      9  S   UNL     1       1.285  -5.884   2.734  0.00  0.00    -0.081 S 
ATOM     10  H   UNL     1      -0.573  -1.410   2.769  0.00  0.00    +0.170 HD
ENDROOT
BRANCH   1  14
ATOM     11  C   UNL     1      -0.018   1.503   0.010  0.00  0.00    +0.067 C 
ATOM     12  C   UNL     1       0.002  -0.004   0.002  0.00  0.00    +0.058 C 
ATOM     13  C   UNL     1      -1.086  -0.777   0.003  0.00  0.00    +0.029 C 
ATOM     14  C   UNL     1      -0.531  -2.190  -0.007  0.00  0.00    +0.194 C 
ATOM     15  N   UNL     1       0.926  -1.973  -0.013  0.00  0.00    -0.176 NA
ATOM     16  N   UNL     1       1.125  -0.756  -0.013  0.00  0.00    -0.159 NA
ENDBRANCH   1  14
BRANCH   7  17
ATOM     17  C   UNL     1      -0.489  -7.589  -0.409  0.00  0.00    -0.001 A 
ATOM     18  C   UNL     1      -0.268  -8.944  -0.141  0.00  0.00    +0.010 A 
ATOM     19  C   UNL     1      -0.421  -9.877  -1.142  0.00  0.00    +0.009 A 
ATOM     20  C   UNL     1      -0.795  -9.471  -2.423  0.00  0.00    -0.018 A 
ATOM     21  C   UNL     1      -1.016  -8.120  -2.693  0.00  0.00    +0.009 A 
ATOM     22  C   UNL     1      -0.869  -7.186  -1.693  0.00  0.00    +0.010 A 
BRANCH  20  23
ATOM     23  C   UNL     1      -0.958 -10.477  -3.500  0.00  0.00    -0.018 A 
ATOM     24  C   UNL     1      -0.744 -11.829  -3.233  0.00  0.00    +0.008 A 
ATOM     25  C   UNL     1      -0.897 -12.761  -4.239  0.00  0.00    +0.001 A 
ATOM     26  C   UNL     1      -1.262 -12.356  -5.511  0.00  0.00    +0.000 A 
ATOM     27  C   UNL     1      -1.476 -11.017  -5.781  0.00  0.00    +0.001 A 
ATOM     28  C   UNL     1      -1.332 -10.076  -4.782  0.00  0.00    +0.008 A 
ENDBRANCH  20  23
ENDBRANCH   7  17
TORSDOF 3
