REMARK  Name = ZINC35829523
REMARK  7 active torsions:
REMARK  status: ('A' for Active; 'I' for Inactive)
REMARK    1  A    between atoms: C_1  and  O_2
REMARK    2  A    between atoms: O_2  and  C_3
REMARK    3  A    between atoms: C_3  and  C_4
REMARK    4  A    between atoms: C_5  and  C_17
REMARK    5  A    between atoms: N_7  and  C_9
REMARK    6  A    between atoms: N_21  and  C_25
REMARK    7  A    between atoms: C_25  and  C_26
REMARK                            x       y       z     vdW  Elec       q    Type
REMARK                         _______ _______ _______ _____ _____    ______ ____
ROOT
ATOM      1  C   UNL     1       2.812  -2.437   0.243  0.00  0.00    +0.044 C 
ATOM      2  C   UNL     1       3.114  -2.883   1.493  0.00  0.00    +0.099 C 
ATOM      3  C   UNL     1       4.249  -2.538   2.273  0.00  0.00    +0.269 C 
ATOM      4  O   UNL     1       5.146  -1.780   1.950  0.00  0.00    -0.268 OA
ATOM      5  N   UNL     1       4.146  -3.207   3.438  0.00  0.00    -0.216 N 
ATOM      6  C   UNL     1       3.023  -3.945   3.437  0.00  0.00    +0.313 C 
ATOM      7  O   UNL     1       2.656  -4.658   4.351  0.00  0.00    -0.252 OA
ATOM      8  N   UNL     1       2.363  -3.774   2.277  0.00  0.00    -0.265 N 
ATOM      9  H   UNL     1       1.523  -4.191   2.027  0.00  0.00    +0.157 HD
ENDROOT
BRANCH   1  11
ATOM     10  C   UNL     1       0.614  -2.074  -1.042  0.00  0.00    +0.100 A 
ATOM     11  C   UNL     1       1.589  -2.892  -0.421  0.00  0.00    +0.068 A 
ATOM     12  C   UNL     1       1.163  -4.210  -0.562  0.00  0.00    +0.281 A 
ATOM     13  N   UNL     1      -0.008  -4.180  -1.234  0.00  0.00    -0.196 N 
ATOM     14  N   UNL     1      -0.325  -2.846  -1.513  0.00  0.00    -0.165 NA
ATOM     15  O   UNL     1       1.803  -5.315  -0.110  0.00  0.00    -0.265 OA
BRANCH  13  16
ATOM     16  C   UNL     1      -0.779  -5.296  -1.588  0.00  0.00    +0.069 A 
ATOM     17  C   UNL     1      -0.157  -6.490  -1.930  0.00  0.00    +0.029 A 
ATOM     18  C   UNL     1      -0.919  -7.588  -2.278  0.00  0.00    +0.022 A 
ATOM     19  C   UNL     1      -2.300  -7.500  -2.287  0.00  0.00    +0.041 A 
ATOM     20  C   UNL     1      -2.921  -6.311  -1.947  0.00  0.00    +0.022 A 
ATOM     21  C   UNL     1      -2.165  -5.212  -1.592  0.00  0.00    +0.029 A 
ATOM     22 CL   UNL     1      -3.254  -8.882  -2.725  0.00  0.00    -0.084 Cl
ENDBRANCH  13  16
BRANCH  10  23
ATOM     23  C   UNL     1       0.652  -0.570  -1.138  0.00  0.00    +0.217 C 
BRANCH  23  25
ATOM     24  C   UNL     1      -0.017   1.425   0.010  0.00  0.00    +0.194 C 
ATOM     25  O   UNL     1       0.002  -0.004   0.002  0.00  0.00    -0.377 OA
ENDBRANCH  23  25
ENDBRANCH  10  23
ENDBRANCH   1  11
BRANCH   5  26
ATOM     26  C   UNL     1       5.111  -3.139   4.538  0.00  0.00    +0.156 C 
BRANCH  26  27
ATOM     27  C   UNL     1       4.725  -2.026   5.478  0.00  0.00    +0.006 A 
ATOM     28  C   UNL     1       5.366  -0.804   5.401  0.00  0.00    +0.011 A 
ATOM     29  C   UNL     1       5.013   0.218   6.261  0.00  0.00    +0.039 A 
ATOM     30  C   UNL     1       4.016   0.019   7.202  0.00  0.00    +0.126 A 
ATOM     31  C   UNL     1       3.374  -1.205   7.280  0.00  0.00    +0.077 A 
ATOM     32  C   UNL     1       3.724  -2.226   6.413  0.00  0.00    +0.131 A 
ATOM     33  F   UNL     1       3.094  -3.419   6.484  0.00  0.00    -0.205 F 
ATOM     34  F   UNL     1       3.672   1.018   8.044  0.00  0.00    -0.205 F 
ENDBRANCH  26  27
ENDBRANCH   5  26
TORSDOF 6
