REMARK  Name = ZINC39953041
REMARK  11 active torsions:
REMARK  status: ('A' for Active; 'I' for Inactive)
REMARK    1  A    between atoms: C_1  and  C_2
REMARK    2  A    between atoms: C_2  and  C_3
REMARK    3  A    between atoms: C_2  and  C_4
REMARK    4  A    between atoms: C_4  and  C_5
REMARK    5  A    between atoms: C_7  and  C_11
REMARK    6  A    between atoms: C_15  and  C_20
REMARK    7  A    between atoms: C_20  and  C_21
REMARK    8  A    between atoms: C_24  and  O_29
REMARK    9  A    between atoms: C_25  and  O_27
REMARK   10  A    between atoms: O_27  and  C_28
REMARK   11  A    between atoms: O_29  and  C_30
REMARK                            x       y       z     vdW  Elec       q    Type
REMARK                         _______ _______ _______ _____ _____    ______ ____
ROOT
ATOM      1  C   UNL     1      -0.180  -5.030   0.698  0.00  0.00    +0.182 C 
ATOM      2  N   UNL     1      -0.114  -6.372   0.060  0.00  0.00    -0.265 N 
ATOM      3  N   UNL     1       0.378  -7.364   0.855  0.00  0.00    -0.224 N 
ATOM      4  C   UNL     1       0.947  -8.614   0.686  0.00  0.00    +0.156 A 
ATOM      5  N   UNL     1       1.174  -9.114   1.864  0.00  0.00    -0.132 NA
ATOM      6  N   UNL     1       0.812  -8.281   2.775  0.00  0.00    -0.121 NA
ATOM      7  C   UNL     1       0.346  -7.208   2.217  0.00  0.00    +0.210 A 
ATOM      8  S   UNL     1      -0.316  -5.571   2.457  0.00  0.00    -0.058 S 
ATOM      9  H   UNL     1      -1.007  -6.631  -0.331  0.00  0.00    +0.168 HD
ENDROOT
BRANCH   1  12
ATOM     10  C   UNL     1      -1.416  -2.035  -0.119  0.00  0.00    +0.062 C 
ATOM     11  C   UNL     1      -1.465  -2.886   0.907  0.00  0.00    +0.029 C 
ATOM     12  C   UNL     1      -1.420  -4.254   0.250  0.00  0.00    +0.185 C 
ATOM     13  N   UNL     1      -1.346  -3.930  -1.185  0.00  0.00    -0.177 NA
ATOM     14  N   UNL     1      -1.355  -2.701  -1.293  0.00  0.00    -0.159 NA
BRANCH  10  15
ATOM     15  C   UNL     1      -1.433  -0.534   0.013  0.00  0.00    +0.060 C 
BRANCH  15  17
ATOM     16  C   UNL     1      -0.019   1.526   0.010  0.00  0.00    +0.007 C 
ATOM     17  C   UNL     1       0.002  -0.004   0.002  0.00  0.00    -0.011 C 
ATOM     18  C   UNL     1       0.742  -0.511   1.242  0.00  0.00    +0.007 C 
ENDBRANCH  15  17
ENDBRANCH  10  15
ENDBRANCH   1  12
BRANCH   4  19
ATOM     19  C   UNL     1       1.249  -9.279  -0.632  0.00  0.00    +0.113 C 
BRANCH  19  20
ATOM     20  C   UNL     1       2.643  -8.912  -1.072  0.00  0.00    -0.036 A 
ATOM     21  C   UNL     1       2.847  -7.787  -1.850  0.00  0.00    +0.008 A 
ATOM     22  C   UNL     1       4.124  -7.447  -2.256  0.00  0.00    +0.049 A 
ATOM     23  C   UNL     1       5.202  -8.233  -1.883  0.00  0.00    +0.161 A 
ATOM     24  C   UNL     1       4.997  -9.365  -1.101  0.00  0.00    +0.162 A 
ATOM     25  C   UNL     1       3.715  -9.698  -0.693  0.00  0.00    +0.053 A 
BRANCH  24  26
ATOM     26  O   UNL     1       6.052 -10.140  -0.733  0.00  0.00    -0.491 OA
ATOM     27  C   UNL     1       5.766 -11.286   0.071  0.00  0.00    +0.277 C 
ENDBRANCH  24  26
BRANCH  23  28
ATOM     28  O   UNL     1       6.459  -7.899  -2.283  0.00  0.00    -0.491 OA
ATOM     29  C   UNL     1       6.594  -6.724  -3.085  0.00  0.00    +0.277 C 
ENDBRANCH  23  28
ENDBRANCH  19  20
ENDBRANCH   4  19
TORSDOF 7
