REMARK  Name = ZINC08589501
REMARK  4 active torsions:
REMARK  status: ('A' for Active; 'I' for Inactive)
REMARK    1  A    between atoms: C_6  and  S_7
REMARK    2  A    between atoms: S_7  and  C_10
REMARK    3  A    between atoms: C_15  and  C_22
REMARK    4  A    between atoms: N_24  and  C_25
REMARK                            x       y       z     vdW  Elec       q    Type
REMARK                         _______ _______ _______ _____ _____    ______ ____
ROOT
ATOM      1  C   UNL     1      -2.034  -1.171  -1.652  0.00  0.00    +0.204 A 
ATOM      2  C   UNL     1      -2.349  -0.071  -2.469  0.00  0.00    +0.218 A 
ATOM      3  C   UNL     1      -2.721  -0.335  -3.873  0.00  0.00    +0.047 A 
ATOM      4  C   UNL     1      -3.046   0.707  -4.742  0.00  0.00    +0.014 A 
ATOM      5  C   UNL     1      -3.385   0.433  -6.036  0.00  0.00    +0.014 A 
ATOM      6  C   UNL     1      -3.408  -0.888  -6.498  0.00  0.00    +0.039 A 
ATOM      7  C   UNL     1      -3.087  -1.937  -5.642  0.00  0.00    +0.039 A 
ATOM      8  C   UNL     1      -2.740  -1.666  -4.323  0.00  0.00    +0.054 A 
ATOM      9  N   UNL     1      -2.415  -2.685  -3.452  0.00  0.00    -0.320 N 
ATOM     10  H   UNL     1      -2.430  -3.602  -3.768  0.00  0.00    +0.169 HD
ATOM     11  C   UNL     1      -2.070  -2.433  -2.162  0.00  0.00    +0.278 A 
ATOM     12  O   UNL     1      -1.757  -3.471  -1.357  0.00  0.00    -0.266 OA
ATOM     13  O   UNL     1      -2.318   1.068  -2.030  0.00  0.00    -0.285 OA
ENDROOT
BRANCH   6  14
ATOM     14  C   UNL     1      -3.777  -1.171  -7.902  0.00  0.00    +0.248 C 
ATOM     15  O   UNL     1      -3.798  -2.317  -8.306  0.00  0.00    -0.270 OA
ATOM     16  N   UNL     1      -4.089  -0.157  -8.734  0.00  0.00    -0.279 N 
ATOM     17  H   UNL     1      -4.136   0.751  -8.396  0.00  0.00    +0.155 HD
BRANCH  16  18
ATOM     18  C   UNL     1      -4.347  -0.415 -10.086  0.00  0.00    +0.069 A 
ATOM     19  C   UNL     1      -4.978  -1.594 -10.461  0.00  0.00    +0.029 A 
ATOM     20  C   UNL     1      -5.232  -1.846 -11.795  0.00  0.00    +0.040 A 
ATOM     21  C   UNL     1      -4.857  -0.926 -12.760  0.00  0.00    +0.126 A 
ATOM     22  C   UNL     1      -4.228   0.251 -12.390  0.00  0.00    +0.078 A 
ATOM     23  C   UNL     1      -3.977   0.511 -11.055  0.00  0.00    +0.147 A 
ATOM     24  F   UNL     1      -3.367   1.661 -10.693  0.00  0.00    -0.203 F 
ATOM     25  F   UNL     1      -5.106  -1.176 -14.064  0.00  0.00    -0.205 F 
ENDBRANCH  16  18
ENDBRANCH   6  14
BRANCH   1  26
ATOM     26  S   UNL     1      -1.583  -0.915   0.032  0.00  0.00    +0.034 S 
ATOM     27  O   UNL     1      -1.294  -2.196   0.574  0.00  0.00    -0.164 OA
ATOM     28  O   UNL     1      -2.568  -0.056   0.590  0.00  0.00    -0.164 OA
BRANCH  26  34
ATOM     29  C   UNL     1      -0.087   1.368   0.044  0.00  0.00    +0.029 A 
ATOM     30  C   UNL     1       1.101   2.075   0.046  0.00  0.00    +0.022 A 
ATOM     31  C   UNL     1       2.308   1.399   0.041  0.00  0.00    +0.041 A 
ATOM     32  C   UNL     1       2.326   0.016   0.032  0.00  0.00    +0.022 A 
ATOM     33  C   UNL     1       1.137  -0.690   0.029  0.00  0.00    +0.029 A 
ATOM     34  C   UNL     1      -0.069  -0.014   0.035  0.00  0.00    +0.094 A 
ATOM     35 CL   UNL     1       3.800   2.287   0.043  0.00  0.00    -0.084 Cl
ENDBRANCH  26  34
ENDBRANCH   1  26
TORSDOF 4
