REMARK  Name = ZINC39652866
REMARK  5 active torsions:
REMARK  status: ('A' for Active; 'I' for Inactive)
REMARK    1  A    between atoms: C_3  and  C_8
REMARK    2  A    between atoms: C_12  and  C_21
REMARK    3  A    between atoms: N_23  and  C_24
REMARK    4  A    between atoms: C_24  and  C_25
REMARK    5  A    between atoms: C_25  and  C_26
REMARK                            x       y       z     vdW  Elec       q    Type
REMARK                         _______ _______ _______ _____ _____    ______ ____
ROOT
ATOM      1  C   UNL     1       3.483   1.989   0.054  0.00  0.00    +0.250 C 
ATOM      2  O   UNL     1       4.489   1.307   0.066  0.00  0.00    -0.270 OA
ATOM      3  N   UNL     1       3.575   3.325  -0.092  0.00  0.00    -0.296 N 
ATOM      4  C   UNL     1       2.483   4.324  -0.025  0.00  0.00    +0.121 C 
ATOM      5  C   UNL     1       3.100   5.527   0.724  0.00  0.00    +0.100 C 
ATOM      6  C   UNL     1       4.615   5.393   0.501  0.00  0.00    -0.004 C 
ATOM      7  C   UNL     1       4.794   4.128  -0.351  0.00  0.00    +0.115 C 
ATOM      8  C   UNL     1       5.334   5.228   1.836  0.00  0.00    -0.010 C 
ATOM      9  C   UNL     1       6.844   5.155   1.592  0.00  0.00    -0.082 C 
ATOM     10  N   UNL     1       7.293   6.380   0.920  0.00  0.00    +0.379 N 
ATOM     11  C   UNL     1       6.667   6.484  -0.404  0.00  0.00    -0.082 C 
ATOM     12  C   UNL     1       5.149   6.613  -0.244  0.00  0.00    -0.010 C 
ATOM     13  H   UNL     1       7.035   7.181   1.476  0.00  0.00    -0.086 HD
ATOM     14  H   UNL     1       8.296   6.356   0.815  0.00  0.00    -0.086 HD
ENDROOT
BRANCH   1  17
ATOM     15  C   UNL     1      -0.173   1.222  -0.312  0.00  0.00    +0.021 A 
ATOM     16  C   UNL     1       1.046   1.856  -0.484  0.00  0.00    +0.017 A 
ATOM     17  C   UNL     1       2.157   1.352   0.201  0.00  0.00    +0.074 A 
ATOM     18  C   UNL     1       1.993   0.235   1.026  0.00  0.00    +0.141 A 
ATOM     19  N   UNL     1       0.810  -0.332   1.156  0.00  0.00    -0.243 NA
ATOM     20  C   UNL     1      -0.254   0.122   0.522  0.00  0.00    +0.112 A 
ATOM     21 CL   UNL     1       3.357  -0.409   1.885  0.00  0.00    -0.061 Cl
ENDBRANCH   1  17
BRANCH   5  22
ATOM     22  C   UNL     1       2.593   6.822   0.144  0.00  0.00    +0.218 C 
ATOM     23  O   UNL     1       2.303   6.888  -1.032  0.00  0.00    -0.275 OA
ATOM     24  N   UNL     1       2.463   7.908   0.932  0.00  0.00    -0.315 N 
ATOM     25  H   UNL     1       2.696   7.856   1.872  0.00  0.00    +0.149 HD
BRANCH  24  26
ATOM     26  C   UNL     1       1.971   9.167   0.368  0.00  0.00    +0.109 C 
BRANCH  26  27
ATOM     27  C   UNL     1       1.919  10.232   1.466  0.00  0.00    +0.054 C 
BRANCH  27  28
ATOM     28  C   UNL     1       1.413  11.527   0.885  0.00  0.00    -0.046 A 
ATOM     29  C   UNL     1       2.304  12.441   0.354  0.00  0.00    +0.005 A 
ATOM     30  C   UNL     1       1.840  13.630  -0.178  0.00  0.00    +0.015 A 
ATOM     31  C   UNL     1       0.484  13.904  -0.180  0.00  0.00    +0.018 A 
ATOM     32  C   UNL     1      -0.407  12.989   0.351  0.00  0.00    +0.015 A 
ATOM     33  C   UNL     1       0.057  11.799   0.879  0.00  0.00    +0.005 A 
ATOM     34 BR   UNL     1      -0.151  15.529  -0.908  0.00  0.00    -0.050 Br
ENDBRANCH  27  28
ENDBRANCH  26  27
ENDBRANCH  24  26
ENDBRANCH   5  22
TORSDOF 5
