REMARK  Name = ZINC66447046
REMARK  3 active torsions:
REMARK  status: ('A' for Active; 'I' for Inactive)
REMARK    1  A    between atoms: C_5  and  C_6
REMARK    2  A    between atoms: N_8  and  C_9
REMARK    3  A    between atoms: C_9  and  C_10
REMARK                            x       y       z     vdW  Elec       q    Type
REMARK                         _______ _______ _______ _____ _____    ______ ____
ROOT
ATOM      1  C   UNL     1      -1.739  -4.535  -0.005  0.00  0.00    +0.233 C 
ATOM      2  O   UNL     1      -0.556  -4.802  -0.013  0.00  0.00    -0.274 OA
ATOM      3  N   UNL     1      -2.654  -5.525  -0.001  0.00  0.00    -0.292 N 
ATOM      4  C   UNL     1      -4.094  -5.239   0.118  0.00  0.00    +0.136 C 
ATOM      5  C   UNL     1      -4.685  -6.120   1.223  0.00  0.00    +0.179 C 
ATOM      6  O   UNL     1      -4.315  -7.486   1.005  0.00  0.00    -0.373 OA
ATOM      7  C   UNL     1      -2.907  -7.707   1.037  0.00  0.00    +0.139 C 
ATOM      8  C   UNL     1      -2.256  -6.934  -0.122  0.00  0.00    +0.105 C 
ATOM      9  C   UNL     1      -0.738  -7.081  -0.027  0.00  0.00    +0.025 C 
ATOM     10  C   UNL     1      -0.376  -8.564  -0.159  0.00  0.00    +0.002 C 
ATOM     11  C   UNL     1      -1.049  -9.367   0.954  0.00  0.00    +0.003 C 
ATOM     12  C   UNL     1      -2.571  -9.188   0.878  0.00  0.00    +0.033 C 
ENDROOT
BRANCH   1  13
ATOM     13  C   UNL     1      -2.187  -3.096   0.000  0.00  0.00    +0.200 C 
BRANCH  13  16
ATOM     14  C   UNL     1      -1.172  -0.881  -0.002  0.00  0.00    +0.280 C 
ATOM     15  O   UNL     1      -2.291  -0.401   0.006  0.00  0.00    -0.267 OA
ATOM     16  N   UNL     1      -1.014  -2.220  -0.005  0.00  0.00    -0.300 N 
ATOM     17  H   UNL     1      -0.122  -2.602  -0.011  0.00  0.00    +0.150 HD
BRANCH  14  22
ATOM     18  C   UNL     1      -0.017   1.362  -0.005  0.00  0.00    +0.056 A 
ATOM     19  C   UNL     1       1.321   1.784  -0.012  0.00  0.00    +0.058 A 
ATOM     20  C   UNL     1       2.090   0.670  -0.018  0.00  0.00    +0.171 A 
ATOM     21  O   UNL     1       1.291  -0.405  -0.015  0.00  0.00    -0.444 OA
ATOM     22  C   UNL     1       0.002  -0.004  -0.007  0.00  0.00    +0.191 A 
ATOM     23 BR   UNL     1       3.981   0.637  -0.029  0.00  0.00    -0.008 Br
ENDBRANCH  14  22
ENDBRANCH  13  16
ENDBRANCH   1  13
TORSDOF 3
