REMARK  Name = ZINC25762257
REMARK  6 active torsions:
REMARK  status: ('A' for Active; 'I' for Inactive)
REMARK    1  A    between atoms: C_4  and  N_7
REMARK    2  A    between atoms: N_7  and  N_8
REMARK    3  A    between atoms: C_11  and  C_18
REMARK    4  A    between atoms: C_13  and  C_16
REMARK    5  A    between atoms: C_14  and  N_15
REMARK    6  A    between atoms: C_21  and  N_24
REMARK                            x       y       z     vdW  Elec       q    Type
REMARK                         _______ _______ _______ _____ _____    ______ ____
ROOT
ATOM      1  N   UNL     1      -1.292   5.923   0.047  0.00  0.00    -0.211 N 
ATOM      2  C   UNL     1      -1.722   6.516   1.202  0.00  0.00    +0.039 C 
ATOM      3  C   UNL     1      -2.665   7.482   1.171  0.00  0.00    +0.026 C 
ATOM      4  C   UNL     1      -3.251   7.949  -0.138  0.00  0.00    +0.097 C 
ATOM      5  C   UNL     1      -3.003   6.949  -1.229  0.00  0.00    +0.078 C 
ATOM      6  C   UNL     1      -2.045   5.997  -1.101  0.00  0.00    +0.119 C 
ATOM      7  C   UNL     1      -3.125   8.085   2.354  0.00  0.00    +0.162 C 
ATOM      8  O   UNL     1      -3.969   8.957   2.290  0.00  0.00    -0.292 OA
ATOM      9  C   UNL     1      -2.595   7.669   3.699  0.00  0.00    +0.080 C 
ATOM     10  C   UNL     1      -2.148   6.205   3.629  0.00  0.00    +0.014 C 
ATOM     11  C   UNL     1      -1.116   6.066   2.509  0.00  0.00    +0.053 C 
ENDROOT
BRANCH   4  12
ATOM     12  C   UNL     1      -2.622   9.264  -0.521  0.00  0.00    -0.035 A 
ATOM     13  C   UNL     1      -1.254   9.346  -0.708  0.00  0.00    +0.007 A 
ATOM     14  C   UNL     1      -0.677  10.551  -1.064  0.00  0.00    +0.033 A 
ATOM     15  C   UNL     1      -1.466  11.675  -1.223  0.00  0.00    +0.126 A 
ATOM     16  C   UNL     1      -2.833  11.594  -1.030  0.00  0.00    +0.033 A 
ATOM     17  C   UNL     1      -3.410  10.388  -0.679  0.00  0.00    +0.007 A 
BRANCH  15  18
ATOM     18  N   UNL     1      -0.847  12.966  -1.598  0.00  0.00    +0.056 N 
ATOM     19  O   UNL     1      -1.542  13.957  -1.737  0.00  0.00    -0.126 OA
ATOM     20  O   UNL     1       0.357  13.038  -1.768  0.00  0.00    -0.126 OA
ENDBRANCH  15  18
ENDBRANCH   4  12
BRANCH   6  21
ATOM     21  N   UNL     1      -1.831   5.101  -2.120  0.00  0.00    -0.344 N 
ATOM     22  H   UNL     1      -2.433   5.160  -3.039  0.00  0.00    +0.144 HD
ATOM     23  H   UNL     1      -1.058   4.326  -2.018  0.00  0.00    +0.144 HD
ENDBRANCH   6  21
BRANCH   1  24
ATOM     24  N   UNL     1      -0.069   5.239   0.031  0.00  0.00    -0.259 N 
ATOM     25  H   UNL     1       0.876   5.802   0.026  0.00  0.00    +0.171 HD
BRANCH  24  29
ATOM     26  C   UNL     1      -0.013   1.076   0.008  0.00  0.00    +0.000 A 
ATOM     27  C   UNL     1      -1.220   1.749   0.017  0.00  0.00    +0.002 A 
ATOM     28  C   UNL     1      -1.243   3.130   0.031  0.00  0.00    +0.024 A 
ATOM     29  C   UNL     1      -0.050   3.842   0.023  0.00  0.00    +0.045 A 
ATOM     30  C   UNL     1       1.161   3.163   0.008  0.00  0.00    +0.024 A 
ATOM     31  C   UNL     1       1.176   1.782   0.000  0.00  0.00    +0.002 A 
ENDBRANCH  24  29
ENDBRANCH   1  24
BRANCH   5  32
ATOM     32  C   UNL     1      -3.788   7.004  -2.426  0.00  0.00    +0.099 C 
ATOM     33  N   UNL     1      -4.410   7.048  -3.375  0.00  0.00    -0.191 NA
ENDBRANCH   5  32
TORSDOF 6
