REMARK  Name = ZINC20113947
REMARK  8 active torsions:
REMARK  status: ('A' for Active; 'I' for Inactive)
REMARK    1  A    between atoms: C_1  and  N_2
REMARK    2  A    between atoms: C_9  and  O_24
REMARK    3  A    between atoms: C_11  and  C_13
REMARK    4  A    between atoms: C_13  and  C_14
REMARK    5  A    between atoms: C_14  and  C_17
REMARK    6  A    between atoms: N_15  and  O_16
REMARK    7  A    between atoms: C_22  and  O_23
REMARK    8  A    between atoms: O_24  and  C_25
REMARK                            x       y       z     vdW  Elec       q    Type
REMARK                         _______ _______ _______ _____ _____    ______ ____
ROOT
ATOM      1  C   UNL     1      -0.323   1.287  -0.160  0.00  0.00    +0.105 C 
ATOM      2  N   UNL     1      -0.110  -0.162  -0.043  0.00  0.00    -0.298 NA
ATOM      3  C   UNL     1       0.443  -0.715  -1.290  0.00  0.00    +0.089 C 
ATOM      4  C   UNL     1       0.301  -2.237  -1.250  0.00  0.00    +0.051 C 
ATOM      5  C   UNL     1       0.850  -2.772   0.048  0.00  0.00    -0.034 A 
ATOM      6  C   UNL     1       1.140  -4.125   0.134  0.00  0.00    +0.053 A 
ATOM      7  C   UNL     1       1.643  -4.664   1.306  0.00  0.00    +0.170 A 
ATOM      8  C   UNL     1       1.856  -3.840   2.407  0.00  0.00    +0.208 A 
ATOM      9  C   UNL     1       1.565  -2.487   2.318  0.00  0.00    +0.170 A 
ATOM     10  C   UNL     1       1.063  -1.951   1.135  0.00  0.00    +0.019 A 
ATOM     11  C   UNL     1       0.773  -0.474   1.085  0.00  0.00    +0.096 C 
ATOM     12  O   UNL     1       2.348  -4.598   3.431  0.00  0.00    -0.449 OA
ATOM     13  C   UNL     1       2.051  -5.962   3.076  0.00  0.00    +0.467 C 
ATOM     14  O   UNL     1       2.002  -5.938   1.638  0.00  0.00    -0.452 OA
ENDROOT
BRANCH   9  15
ATOM     15  O   UNL     1       1.772  -1.679   3.392  0.00  0.00    -0.491 OA
ATOM     16  C   UNL     1       3.057  -1.064   3.503  0.00  0.00    +0.277 C 
ENDBRANCH   9  15
BRANCH  11  17
ATOM     17  C   UNL     1       0.095  -0.048   2.389  0.00  0.00    +0.083 C 
BRANCH  17  18
ATOM     18  C   UNL     1      -1.131  -0.895   2.618  0.00  0.00    +0.092 C 
ATOM     19  N   UNL     1      -1.407  -1.865   1.807  0.00  0.00    -0.091 NA
BRANCH  18  20
ATOM     20  C   UNL     1      -2.014  -0.619   3.766  0.00  0.00    +0.041 A 
ATOM     21  C   UNL     1      -2.143  -1.556   4.794  0.00  0.00    +0.013 A 
ATOM     22  C   UNL     1      -2.971  -1.291   5.865  0.00  0.00    +0.001 A 
ATOM     23  C   UNL     1      -3.675  -0.101   5.925  0.00  0.00    +0.004 A 
ATOM     24  C   UNL     1      -3.556   0.834   4.915  0.00  0.00    +0.046 A 
ATOM     25  C   UNL     1      -2.724   0.587   3.834  0.00  0.00    +0.126 A 
BRANCH  25  26
ATOM     26  O   UNL     1      -2.602   1.507   2.844  0.00  0.00    -0.506 OA
ATOM     27  H   UNL     1      -3.288   1.448   2.165  0.00  0.00    +0.292 HD
ENDBRANCH  25  26
ENDBRANCH  18  20
BRANCH  19  28
ATOM     28  O   UNL     1      -2.498  -2.726   2.079  0.00  0.00    -0.409 OA
ATOM     29  H   UNL     1      -2.627  -3.420   1.418  0.00  0.00    +0.328 HD
ENDBRANCH  19  28
ENDBRANCH  17  18
ENDBRANCH  11  17
TORSDOF 6
