REMARK  Name = ZINC03376081
REMARK  12 active torsions:
REMARK  status: ('A' for Active; 'I' for Inactive)
REMARK    1  A    between atoms: C_1  and  C_2
REMARK    2  A    between atoms: C_2  and  C_3
REMARK    3  A    between atoms: C_2  and  N_4
REMARK    4  A    between atoms: C_8  and  C_10
REMARK    5  A    between atoms: C_10  and  S_11
REMARK    6  A    between atoms: S_11  and  C_12
REMARK    7  A    between atoms: C_15  and  C_24
REMARK    8  A    between atoms: N_16  and  C_17
REMARK    9  A    between atoms: C_24  and  C_26
REMARK   10  A    between atoms: C_24  and  N_53
REMARK   11  A    between atoms: C_27  and  N_53
REMARK   12  A    between atoms: C_28  and  N_53
REMARK                            x       y       z     vdW  Elec       q    Type
REMARK                         _______ _______ _______ _____ _____    ______ ____
ROOT
ATOM      1  C   UNL     1      -1.996   4.519   4.346  0.00  0.00    +0.197 A 
ATOM      2  N   UNL     1      -2.891   3.601   4.063  0.00  0.00    -0.122 NA
ATOM      3  N   UNL     1      -2.567   2.993   2.978  0.00  0.00    -0.135 NA
ATOM      4  C   UNL     1      -1.451   3.475   2.510  0.00  0.00    +0.125 A 
ATOM      5  N   UNL     1      -1.047   4.468   3.362  0.00  0.00    -0.275 N 
ENDROOT
BRANCH   5   6
ATOM      6  C   UNL     1       0.102   5.267   3.250  0.00  0.00    +0.050 A 
ATOM      7  C   UNL     1       1.361   4.692   3.354  0.00  0.00    +0.028 A 
ATOM      8  C   UNL     1       2.490   5.479   3.237  0.00  0.00    +0.022 A 
ATOM      9  C   UNL     1       2.366   6.841   3.029  0.00  0.00    +0.041 A 
ATOM     10  C   UNL     1       1.112   7.417   2.930  0.00  0.00    +0.022 A 
ATOM     11  C   UNL     1      -0.020   6.633   3.040  0.00  0.00    +0.028 A 
ATOM     12 CL   UNL     1       3.787   7.829   2.890  0.00  0.00    -0.084 Cl
ENDBRANCH   5   6
BRANCH   4  13
ATOM     13  C   UNL     1      -0.740   3.027   1.259  0.00  0.00    -0.003 C 
ATOM     14  C   UNL     1      -1.486   3.553   0.032  0.00  0.00    -0.005 C 
BRANCH  13  17
ATOM     15  C   UNL     1      -0.013   1.086   0.008  0.00  0.00    -0.096 C 
ATOM     16  C   UNL     1      -0.072   1.015   2.428  0.00  0.00    -0.096 C 
ATOM     17  N   UNL     1      -0.727   1.550   1.216  0.00  0.00    +0.382 N 
ATOM     18  H   UNL     1      -1.695   1.209   1.182  0.00  0.00    -0.082 HD
ENDBRANCH  13  17
ENDBRANCH   4  13
BRANCH   1  19
ATOM     19  S   UNL     1      -2.014   5.610   5.729  0.00  0.00    -0.076 S 
BRANCH  19  20
ATOM     20  C   UNL     1      -3.543   5.071   6.534  0.00  0.00    +0.173 C 
BRANCH  20  25
ATOM     21  N   UNL     1      -6.144   6.166  10.426  0.00  0.00    -0.297 N 
ATOM     22  C   UNL     1      -5.059   6.393   9.660  0.00  0.00    +0.306 C 
ATOM     23  O   UNL     1      -4.264   7.258   9.973  0.00  0.00    -0.252 OA
ATOM     24  N   UNL     1      -4.856   5.662   8.546  0.00  0.00    -0.239 N 
ATOM     25  C   UNL     1      -3.770   5.889   7.780  0.00  0.00    +0.231 C 
ATOM     26  O   UNL     1      -2.977   6.751   8.092  0.00  0.00    -0.274 OA
ATOM     27  H   UNL     1      -6.779   5.477  10.176  0.00  0.00    +0.151 HD
ATOM     28  H   UNL     1      -5.490   4.972   8.296  0.00  0.00    +0.159 HD
BRANCH  21  30
ATOM     29  C   UNL     1      -7.859   6.982  11.967  0.00  0.00    +0.027 C 
ATOM     30  C   UNL     1      -6.365   6.961  11.636  0.00  0.00    +0.068 C 
ATOM     31  C   UNL     1      -5.593   6.341  12.803  0.00  0.00    +0.027 C 
ENDBRANCH  21  30
ENDBRANCH  20  25
ENDBRANCH  19  20
ENDBRANCH   1  19
TORSDOF 7
