REMARK  Name = ZINC36073612
REMARK  10 active torsions:
REMARK  status: ('A' for Active; 'I' for Inactive)
REMARK    1  A    between atoms: C_1  and  C_2
REMARK    2  A    between atoms: C_6  and  C_7
REMARK    3  A    between atoms: C_7  and  N_8
REMARK    4  A    between atoms: N_8  and  C_9
REMARK    5  A    between atoms: N_8  and  C_21
REMARK    6  A    between atoms: C_9  and  C_10
REMARK    7  A    between atoms: C_10  and  C_11
REMARK    8  A    between atoms: C_21  and  C_22
REMARK    9  A    between atoms: C_24  and  C_27
REMARK   10  A    between atoms: C_35  and  C_37
REMARK                            x       y       z     vdW  Elec       q    Type
REMARK                         _______ _______ _______ _____ _____    ______ ____
ROOT
ATOM      1  N   UNL     1      -1.807   0.250   1.894  0.00  0.00    +0.389 N 
ATOM      2  H   UNL     1      -2.078   0.875   1.150  0.00  0.00    -0.081 HD
ENDROOT
BRANCH   1   3
ATOM      3  C   UNL     1      -0.541  -0.407   1.544  0.00  0.00    -0.035 C 
BRANCH   3   9
ATOM      4  C   UNL     1      -0.831  -3.440   1.935  0.00  0.00    +0.044 C 
ATOM      5  C   UNL     1      -0.153  -2.547   2.942  0.00  0.00    -0.042 A 
ATOM      6  C   UNL     1       0.381  -3.075   4.102  0.00  0.00    +0.011 A 
ATOM      7  C   UNL     1       0.985  -2.244   4.986  0.00  0.00    +0.045 A 
ATOM      8  S   UNL     1       0.809  -0.660   4.182  0.00  0.00    -0.103 S 
ATOM      9  C   UNL     1      -0.052  -1.213   2.720  0.00  0.00    -0.024 A 
ENDBRANCH   3   9
ENDBRANCH   1   3
BRANCH   1  10
ATOM     10  C   UNL     1      -2.850  -0.766   2.084  0.00  0.00    -0.073 C 
BRANCH  10  11
ATOM     11  C   UNL     1      -3.183  -1.413   0.738  0.00  0.00    +0.019 C 
BRANCH  11  12
ATOM     12  C   UNL     1      -4.232  -2.477   0.937  0.00  0.00    -0.024 A 
ATOM     13  C   UNL     1      -4.022  -3.801   1.014  0.00  0.00    +0.087 A 
ATOM     14  N   UNL     1      -5.211  -4.452   1.198  0.00  0.00    -0.360 N 
ATOM     15  H   UNL     1      -5.313  -5.413   1.282  0.00  0.00    +0.165 HD
ATOM     16  C   UNL     1      -6.242  -3.540   1.245  0.00  0.00    +0.047 A 
ATOM     17  C   UNL     1      -5.673  -2.262   1.091  0.00  0.00    +0.003 A 
ATOM     18  C   UNL     1      -6.489  -1.130   1.104  0.00  0.00    +0.010 A 
ATOM     19  C   UNL     1      -7.838  -1.268   1.272  0.00  0.00    +0.001 A 
ATOM     20  C   UNL     1      -8.404  -2.526   1.429  0.00  0.00    +0.002 A 
ATOM     21  C   UNL     1      -7.618  -3.657   1.409  0.00  0.00    +0.026 A 
ENDBRANCH  11  12
ENDBRANCH  10  11
ENDBRANCH   1  10
BRANCH   1  22
ATOM     22  C   UNL     1      -1.635   1.014   3.137  0.00  0.00    +0.019 C 
BRANCH  22  23
ATOM     23  C   UNL     1      -0.655   2.134   2.907  0.00  0.00    +0.179 A 
ATOM     24  N   UNL     1      -0.962   3.334   2.514  0.00  0.00    -0.210 NA
ATOM     25  C   UNL     1       0.183   4.064   2.420  0.00  0.00    +0.164 A 
ATOM     26  C   UNL     1       1.210   3.245   2.776  0.00  0.00    +0.230 A 
ATOM     27  O   UNL     1       0.672   2.053   3.080  0.00  0.00    -0.449 OA
BRANCH  25  28
ATOM     28  C   UNL     1       0.290   5.475   2.009  0.00  0.00    +0.268 C 
ATOM     29  O   UNL     1       1.385   5.975   1.830  0.00  0.00    -0.268 OA
ATOM     30  N   UNL     1      -0.824   6.212   1.831  0.00  0.00    -0.293 N 
ATOM     31  C   UNL     1      -2.144   5.668   2.178  0.00  0.00    +0.127 C 
ATOM     32  C   UNL     1      -2.829   6.629   3.158  0.00  0.00    +0.126 C 
ATOM     33  N   UNL     1      -2.745   7.992   2.614  0.00  0.00    -0.299 N 
ATOM     34  C   UNL     1      -1.425   8.536   2.267  0.00  0.00    +0.126 C 
ATOM     35  C   UNL     1      -0.740   7.577   1.292  0.00  0.00    +0.127 C 
ATOM     36  C   UNL     1      -3.860   8.729   2.436  0.00  0.00    +0.213 C 
ATOM     37  O   UNL     1      -4.933   8.304   2.807  0.00  0.00    -0.276 OA
ATOM     38  C   UNL     1      -3.772  10.081   1.777  0.00  0.00    +0.109 C 
ENDBRANCH  25  28
ENDBRANCH  22  23
ENDBRANCH   1  22
TORSDOF 8
