REMARK  Name = ZINC48857780
REMARK  5 active torsions:
REMARK  status: ('A' for Active; 'I' for Inactive)
REMARK    1  A    between atoms: C_3  and  N_12
REMARK    2  A    between atoms: C_6  and  C_7
REMARK    3  A    between atoms: N_8  and  O_9
REMARK    4  A    between atoms: C_17  and  C_19
REMARK    5  A    between atoms: C_19  and  O_20
REMARK                            x       y       z     vdW  Elec       q    Type
REMARK                         _______ _______ _______ _____ _____    ______ ____
ROOT
ATOM      1  C   UNL     1      -0.037   1.400   0.116  0.00  0.00    +0.013 A 
ATOM      2  C   UNL     1       1.141   2.116   0.137  0.00  0.00    +0.027 A 
ATOM      3  C   UNL     1       2.361   1.452   0.074  0.00  0.00    +0.066 A 
ATOM      4  C   UNL     1       2.396   0.062  -0.010  0.00  0.00    +0.145 A 
ATOM      5  C   UNL     1       1.221  -0.658  -0.031  0.00  0.00    +0.051 A 
ATOM      6  C   UNL     1      -0.005   0.007   0.033  0.00  0.00    +0.021 A 
ATOM      7  F   UNL     1       3.583  -0.580  -0.072  0.00  0.00    -0.204 F 
ENDROOT
BRANCH   3   8
ATOM      8  N   UNL     1       3.551   2.179   0.095  0.00  0.00    -0.322 N 
ATOM      9  C   UNL     1       4.162   2.651  -1.155  0.00  0.00    +0.105 C 
ATOM     10  C   UNL     1       5.617   2.174  -1.203  0.00  0.00    +0.019 C 
ATOM     11  C   UNL     1       6.343   2.634   0.064  0.00  0.00    +0.003 C 
ATOM     12  C   UNL     1       5.671   2.014   1.292  0.00  0.00    +0.025 C 
ATOM     13  C   UNL     1       4.214   2.494   1.368  0.00  0.00    +0.099 C 
BRANCH  13  14
ATOM     14  C   UNL     1       3.495   1.777   2.512  0.00  0.00    +0.178 C 
BRANCH  14  15
ATOM     15  O   UNL     1       3.637   0.364   2.352  0.00  0.00    -0.393 OA
ATOM     16  H   UNL     1       3.205  -0.156   3.044  0.00  0.00    +0.209 HD
ENDBRANCH  14  15
ENDBRANCH  13  14
ENDBRANCH   3   8
BRANCH   6  17
ATOM     17  C   UNL     1      -1.268  -0.762   0.011  0.00  0.00    +0.162 C 
ATOM     18  N   UNL     1      -2.355  -0.216  -0.452  0.00  0.00    -0.072 NA
ATOM     19  N   UNL     1      -1.294  -2.064   0.482  0.00  0.00    -0.340 N 
ATOM     20  H   UNL     1      -0.483  -2.471   0.827  0.00  0.00    +0.144 HD
ATOM     21  H   UNL     1      -2.122  -2.569   0.468  0.00  0.00    +0.144 HD
BRANCH  18  22
ATOM     22  O   UNL     1      -2.302   1.062  -1.060  0.00  0.00    -0.408 OA
ATOM     23  H   UNL     1      -3.158   1.385  -1.372  0.00  0.00    +0.328 HD
ENDBRANCH  18  22
ENDBRANCH   6  17
TORSDOF 5
