REMARK  Name = ZINC12768887
REMARK  6 active torsions:
REMARK  status: ('A' for Active; 'I' for Inactive)
REMARK    1  A    between atoms: C_1  and  C_2
REMARK    2  A    between atoms: C_5  and  C_11
REMARK    3  A    between atoms: C_7  and  N_8
REMARK    4  A    between atoms: N_16  and  S_19
REMARK    5  A    between atoms: S_19  and  C_22
REMARK    6  A    between atoms: C_25  and  C_27
REMARK                            x       y       z     vdW  Elec       q    Type
REMARK                         _______ _______ _______ _____ _____    ______ ____
ROOT
ATOM      1  C   UNL     1      -0.073   1.074   0.069  0.00  0.00    +0.247 C 
ATOM      2  O   UNL     1       0.142  -0.104  -0.140  0.00  0.00    -0.270 OA
ATOM      3  N   UNL     1       0.923   1.875   0.497  0.00  0.00    -0.295 N 
ATOM      4  C   UNL     1       0.674   3.299   0.766  0.00  0.00    +0.125 C 
ATOM      5  C   UNL     1       1.113   3.604   2.208  0.00  0.00    +0.128 C 
ATOM      6  N   UNL     1       2.468   3.071   2.408  0.00  0.00    -0.173 NA
ATOM      7  C   UNL     1       2.717   1.649   2.134  0.00  0.00    +0.128 C 
ATOM      8  C   UNL     1       2.278   1.342   0.697  0.00  0.00    +0.125 C 
ENDROOT
BRANCH   1  13
ATOM      9  C   UNL     1      -5.337   3.235  -0.788  0.00  0.00    +0.046 C 
ATOM     10  C   UNL     1      -3.959   2.670  -0.564  0.00  0.00    -0.020 A 
ATOM     11  C   UNL     1      -2.846   3.466  -0.766  0.00  0.00    +0.006 A 
ATOM     12  C   UNL     1      -1.581   2.956  -0.557  0.00  0.00    +0.013 A 
ATOM     13  C   UNL     1      -1.426   1.629  -0.151  0.00  0.00    +0.039 A 
ATOM     14  C   UNL     1      -2.553   0.831   0.052  0.00  0.00    +0.046 A 
ATOM     15  C   UNL     1      -3.812   1.356  -0.155  0.00  0.00    +0.130 A 
BRANCH  15  16
ATOM     16  N   UNL     1      -5.008   0.511   0.059  0.00  0.00    +0.057 N 
ATOM     17  O   UNL     1      -4.885  -0.621   0.492  0.00  0.00    -0.126 OA
ATOM     18  O   UNL     1      -6.116   0.948  -0.197  0.00  0.00    -0.126 OA
ENDBRANCH  15  16
ENDBRANCH   1  13
BRANCH   6  19
ATOM     19  S   UNL     1       3.692   4.056   2.933  0.00  0.00    +0.067 S 
ATOM     20  O   UNL     1       3.077   5.137   3.620  0.00  0.00    -0.152 OA
ATOM     21  O   UNL     1       4.657   3.212   3.547  0.00  0.00    -0.152 OA
BRANCH  19  22
ATOM     22  C   UNL     1       4.459   4.740   1.502  0.00  0.00    +0.143 A 
ATOM     23  C   UNL     1       4.163   5.885   0.840  0.00  0.00    +0.036 A 
ATOM     24  C   UNL     1       4.909   6.229  -0.272  0.00  0.00    +0.013 A 
ATOM     25  C   UNL     1       5.915   5.410  -0.667  0.00  0.00    -0.011 A 
ATOM     26  S   UNL     1       5.834   4.109   0.553  0.00  0.00    -0.074 S 
ATOM     27  C   UNL     1       6.859   5.561  -1.832  0.00  0.00    +0.051 C 
ENDBRANCH  19  22
ENDBRANCH   6  19
TORSDOF 4
