REMARK  Name = ZINC01691903
REMARK  8 active torsions:
REMARK  status: ('A' for Active; 'I' for Inactive)
REMARK    1  A    between atoms: C_5  and  C_7
REMARK    2  A    between atoms: N_8  and  N_9
REMARK    3  A    between atoms: C_10  and  C_12
REMARK    4  A    between atoms: C_12  and  C_13
REMARK    5  A    between atoms: C_13  and  C_14
REMARK    6  A    between atoms: C_14  and  C_15
REMARK    7  A    between atoms: N_17  and  N_18
REMARK    8  A    between atoms: C_19  and  C_20
REMARK                            x       y       z     vdW  Elec       q    Type
REMARK                         _______ _______ _______ _____ _____    ______ ____
ROOT
ATOM      1  C   UNL     1      -2.394  -6.967  -0.014  0.00  0.00    +0.018 C 
ENDROOT
BRANCH   1   2
ATOM      2  C   UNL     1      -0.961  -6.430  -0.026  0.00  0.00    +0.098 C 
BRANCH   2   4
ATOM      3  N   UNL     1       0.165  -4.228  -0.024  0.00  0.00    -0.207 N 
ATOM      4  C   UNL     1      -0.989  -4.923  -0.017  0.00  0.00    +0.232 C 
ATOM      5  O   UNL     1      -2.051  -4.337  -0.002  0.00  0.00    -0.274 OA
ATOM      6  H   UNL     1       1.014  -4.697  -0.036  0.00  0.00    +0.177 HD
BRANCH   3   8
ATOM      7  C   UNL     1       1.250  -2.158  -0.023  0.00  0.00    +0.138 C 
ATOM      8  N   UNL     1       0.139  -2.827  -0.015  0.00  0.00    -0.188 NA
BRANCH   7  13
ATOM      9  C   UNL     1      -0.017   1.375   0.010  0.00  0.00    +0.002 A 
ATOM     10  C   UNL     1       1.170   2.087   0.002  0.00  0.00    +0.015 A 
ATOM     11  C   UNL     1       2.384   1.421  -0.014  0.00  0.00    +0.018 A 
ATOM     12  C   UNL     1       2.417   0.041  -0.022  0.00  0.00    +0.024 A 
ATOM     13  C   UNL     1       1.223  -0.683  -0.014  0.00  0.00    -0.004 A 
ATOM     14  C   UNL     1       0.002  -0.004   0.002  0.00  0.00    +0.009 A 
ATOM     15 BR   UNL     1       3.999   2.404  -0.024  0.00  0.00    -0.050 Br
ENDBRANCH   7  13
ENDBRANCH   3   8
ENDBRANCH   2   4
ENDBRANCH   1   2
BRANCH   1  16
ATOM     16  C   UNL     1      -2.366  -8.497  -0.024  0.00  0.00    +0.098 C 
BRANCH  16  17
ATOM     17  C   UNL     1      -3.777  -9.025  -0.012  0.00  0.00    +0.232 C 
ATOM     18  O   UNL     1      -4.713  -8.255   0.002  0.00  0.00    -0.274 OA
ATOM     19  N   UNL     1      -3.998 -10.355  -0.018  0.00  0.00    -0.207 N 
ATOM     20  H   UNL     1      -3.249 -10.971  -0.030  0.00  0.00    +0.177 HD
BRANCH  19  21
ATOM     21  N   UNL     1      -5.310 -10.847  -0.008  0.00  0.00    -0.188 NA
ATOM     22  C   UNL     1      -5.523 -12.126  -0.013  0.00  0.00    +0.138 C 
BRANCH  22  23
ATOM     23  C   UNL     1      -6.904 -12.644  -0.002  0.00  0.00    -0.004 A 
ATOM     24  C   UNL     1      -7.985 -11.759   0.009  0.00  0.00    +0.024 A 
ATOM     25  C   UNL     1      -9.275 -12.251   0.019  0.00  0.00    +0.018 A 
ATOM     26  C   UNL     1      -9.498 -13.617   0.020  0.00  0.00    +0.015 A 
ATOM     27  C   UNL     1      -8.432 -14.499   0.009  0.00  0.00    +0.002 A 
ATOM     28  C   UNL     1      -7.138 -14.021  -0.008  0.00  0.00    +0.009 A 
ATOM     29 BR   UNL     1     -10.740 -11.055   0.034  0.00  0.00    -0.050 Br
ENDBRANCH  22  23
ENDBRANCH  19  21
ENDBRANCH  16  17
ENDBRANCH   1  16
TORSDOF 8
