REMARK  Name = ZINC22077493
REMARK  6 active torsions:
REMARK  status: ('A' for Active; 'I' for Inactive)
REMARK    1  A    between atoms: C_4  and  C_7
REMARK    2  A    between atoms: C_7  and  C_8
REMARK    3  A    between atoms: C_8  and  N_9
REMARK    4  A    between atoms: N_17  and  N_18
REMARK    5  A    between atoms: C_19  and  C_21
REMARK    6  A    between atoms: C_23  and  C_29
REMARK                            x       y       z     vdW  Elec       q    Type
REMARK                         _______ _______ _______ _____ _____    ______ ____
ROOT
ATOM      1  N   UNL     1       1.717   8.757   1.739  0.00  0.00    -0.265 N 
ATOM      2  C   UNL     1       0.500   8.403   2.311  0.00  0.00    +0.046 A 
ATOM      3  C   UNL     1      -0.279   9.022   3.283  0.00  0.00    +0.024 A 
ATOM      4  C   UNL     1      -1.470   8.451   3.683  0.00  0.00    +0.002 A 
ATOM      5  C   UNL     1      -1.904   7.260   3.125  0.00  0.00    +0.001 A 
ATOM      6  C   UNL     1      -1.144   6.631   2.159  0.00  0.00    +0.012 A 
ATOM      7  C   UNL     1       0.058   7.198   1.749  0.00  0.00    +0.028 A 
ATOM      8  C   UNL     1       1.086   6.794   0.762  0.00  0.00    +0.153 C 
ATOM      9  N   UNL     1       1.085   5.728  -0.001  0.00  0.00    -0.175 NA
ATOM     10  C   UNL     1       2.115   7.852   0.829  0.00  0.00    +0.271 C 
ATOM     11  O   UNL     1       3.140   7.896   0.175  0.00  0.00    -0.268 OA
ENDROOT
BRANCH   9  12
ATOM     12  N   UNL     1       0.105   4.742   0.176  0.00  0.00    -0.206 N 
ATOM     13  C   UNL     1       0.036   3.701  -0.678  0.00  0.00    +0.245 C 
ATOM     14  O   UNL     1       0.821   3.619  -1.598  0.00  0.00    -0.273 OA
ATOM     15  H   UNL     1      -0.607   4.817   1.011  0.00  0.00    +0.177 HD
BRANCH  13  16
ATOM     16  C   UNL     1      -1.017   2.640  -0.488  0.00  0.00    +0.171 C 
ATOM     17  C   UNL     1      -2.333   3.053  -1.187  0.00  0.00    +0.057 C 
ATOM     18  C   UNL     1      -2.189   2.366  -2.563  0.00  0.00    +0.113 C 
ATOM     19  N   UNL     1      -1.288   1.229  -2.342  0.00  0.00    -0.314 N 
ATOM     20  C   UNL     1      -0.614   1.359  -1.185  0.00  0.00    +0.226 C 
ATOM     21  O   UNL     1       0.201   0.566  -0.763  0.00  0.00    -0.275 OA
ATOM     22  H   UNL     1      -1.235   0.418  -3.083  0.00  0.00    +0.149 HD
BRANCH  17  23
ATOM     23  C   UNL     1      -2.417   4.550  -1.337  0.00  0.00    -0.042 A 
ATOM     24  C   UNL     1      -3.327   5.270  -0.586  0.00  0.00    +0.004 A 
ATOM     25  C   UNL     1      -3.401   6.644  -0.720  0.00  0.00    +0.000 A 
ATOM     26  C   UNL     1      -2.571   7.297  -1.613  0.00  0.00    +0.000 A 
ATOM     27  C   UNL     1      -1.665   6.576  -2.368  0.00  0.00    +0.000 A 
ATOM     28  C   UNL     1      -1.588   5.203  -2.230  0.00  0.00    +0.004 A 
ENDBRANCH  17  23
ENDBRANCH  13  16
ENDBRANCH   9  12
BRANCH   1  29
ATOM     29  C   UNL     1       2.474   9.962   2.089  0.00  0.00    +0.118 C 
BRANCH  29  30
ATOM     30  C   UNL     1       3.434   9.646   3.237  0.00  0.00    +0.054 C 
BRANCH  30  34
ATOM     31  C   UNL     1       5.640  13.159   4.258  0.00  0.00    +0.000 A 
ATOM     32  C   UNL     1       4.436  12.892   4.884  0.00  0.00    +0.000 A 
ATOM     33  C   UNL     1       3.722  11.755   4.553  0.00  0.00    +0.004 A 
ATOM     34  C   UNL     1       4.212  10.885   3.597  0.00  0.00    -0.046 A 
ATOM     35  C   UNL     1       5.418  11.149   2.975  0.00  0.00    +0.004 A 
ATOM     36  C   UNL     1       6.129  12.289   3.302  0.00  0.00    +0.000 A 
ENDBRANCH  30  34
ENDBRANCH  29  30
ENDBRANCH   1  29
TORSDOF 6
