REMARK  Name = ZINC49421142
REMARK  7 active torsions:
REMARK  status: ('A' for Active; 'I' for Inactive)
REMARK    1  A    between atoms: C_1  and  C_2
REMARK    2  A    between atoms: C_2  and  C_3
REMARK    3  A    between atoms: C_2  and  C_4
REMARK    4  A    between atoms: C_7  and  C_10
REMARK    5  A    between atoms: C_10  and  N_11
REMARK    6  A    between atoms: C_12  and  C_14
REMARK    7  A    between atoms: C_29  and  C_32
REMARK                            x       y       z     vdW  Elec       q    Type
REMARK                         _______ _______ _______ _____ _____    ______ ____
ROOT
ATOM      1  C   UNL     1      -8.449  -0.052  -1.591  0.00  0.00    +0.092 C 
ATOM      2  C   UNL     1      -8.549   1.200  -0.717  0.00  0.00    +0.016 C 
ATOM      3  C   UNL     1      -9.606   2.144  -1.295  0.00  0.00    +0.020 C 
ATOM      4  C   UNL     1     -10.968   1.443  -1.293  0.00  0.00    +0.108 C 
ATOM      5  N   UNL     1     -10.843   0.166  -2.009  0.00  0.00    -0.300 N 
ATOM      6  C   UNL     1      -9.797  -0.779  -1.593  0.00  0.00    +0.120 C 
ATOM      7  C   UNL     1     -11.688  -0.140  -3.048  0.00  0.00    +0.199 A 
ATOM      8  N   UNL     1     -11.618  -1.384  -3.604  0.00  0.00    -0.294 N 
ATOM      9  H   UNL     1     -10.982  -2.034  -3.268  0.00  0.00    +0.172 HD
ATOM     10  C   UNL     1     -12.443  -1.703  -4.630  0.00  0.00    +0.267 A 
ATOM     11  O   UNL     1     -12.403  -2.808  -5.146  0.00  0.00    -0.267 OA
ATOM     12  C   UNL     1     -13.340  -0.734  -5.078  0.00  0.00    +0.103 A 
ATOM     13  C   UNL     1     -13.390   0.537  -4.487  0.00  0.00    +0.094 A 
ATOM     14  N   UNL     1     -12.530   0.772  -3.459  0.00  0.00    -0.215 NA
ATOM     15  C   UNL     1     -14.388   1.403  -5.093  0.00  0.00    +0.015 A 
ATOM     16  C   UNL     1     -15.128   0.909  -6.117  0.00  0.00    +0.056 A 
ATOM     17  S   UNL     1     -14.580  -0.662  -6.339  0.00  0.00    -0.089 S 
ENDROOT
BRANCH  15  18
ATOM     18  C   UNL     1     -14.591   2.788  -4.604  0.00  0.00    -0.015 A 
ATOM     19  C   UNL     1     -14.756   3.032  -3.241  0.00  0.00    +0.008 A 
ATOM     20  C   UNL     1     -14.945   4.323  -2.792  0.00  0.00    +0.001 A 
ATOM     21  C   UNL     1     -14.972   5.374  -3.692  0.00  0.00    +0.000 A 
ATOM     22  C   UNL     1     -14.809   5.138  -5.045  0.00  0.00    +0.001 A 
ATOM     23  C   UNL     1     -14.614   3.851  -5.505  0.00  0.00    +0.008 A 
ENDBRANCH  15  18
BRANCH   1  25
ATOM     24  N   UNL     1      -6.112  -0.536  -0.941  0.00  0.00    -0.311 N 
ATOM     25  C   UNL     1      -7.385  -0.966  -1.039  0.00  0.00    +0.218 C 
ATOM     26  O   UNL     1      -7.675  -2.089  -0.683  0.00  0.00    -0.275 OA
ATOM     27  H   UNL     1      -5.880   0.362  -1.226  0.00  0.00    +0.149 HD
BRANCH  24  28
ATOM     28  C   UNL     1      -5.078  -1.425  -0.405  0.00  0.00    +0.139 C 
BRANCH  28  32
ATOM     29  C   UNL     1      -1.318   0.603  -0.395  0.00  0.00    -0.045 A 
ATOM     30  C   UNL     1      -2.150   0.683   0.707  0.00  0.00    +0.004 A 
ATOM     31  C   UNL     1      -3.366   0.027   0.703  0.00  0.00    +0.005 A 
ATOM     32  C   UNL     1      -3.752  -0.709  -0.402  0.00  0.00    -0.030 A 
ATOM     33  C   UNL     1      -2.921  -0.788  -1.504  0.00  0.00    +0.005 A 
ATOM     34  C   UNL     1      -1.706  -0.128  -1.502  0.00  0.00    +0.004 A 
BRANCH  29  36
ATOM     35  C   UNL     1      -0.223   2.820  -0.204  0.00  0.00    +0.012 C 
ATOM     36  C   UNL     1       0.008   1.319  -0.392  0.00  0.00    +0.013 C 
ATOM     37  C   UNL     1       0.871   0.788   0.755  0.00  0.00    +0.012 C 
ENDBRANCH  29  36
ENDBRANCH  28  32
ENDBRANCH  24  28
ENDBRANCH   1  25
TORSDOF 5
