REMARK  Name = ZINC00270129
REMARK  10 active torsions:
REMARK  status: ('A' for Active; 'I' for Inactive)
REMARK    1  A    between atoms: C_1  and  C_2
REMARK    2  A    between atoms: C_2  and  C_3
REMARK    3  A    between atoms: C_2  and  C_4
REMARK    4  A    between atoms: C_4  and  C_5
REMARK    5  A    between atoms: C_8  and  S_11
REMARK    6  A    between atoms: S_11  and  N_14
REMARK    7  A    between atoms: N_14  and  C_15
REMARK    8  A    between atoms: C_18  and  C_21
REMARK    9  A    between atoms: C_21  and  O_23
REMARK   10  A    between atoms: O_23  and  C_24
REMARK                            x       y       z     vdW  Elec       q    Type
REMARK                         _______ _______ _______ _____ _____    ______ ____
ROOT
ATOM      1  S   UNL     1      -6.664   0.337   1.019  0.00  0.00    +0.072 S 
ATOM      2  O   UNL     1      -7.498   0.984   0.069  0.00  0.00    -0.150 OA
ATOM      3  O   UNL     1      -6.499  -1.075   1.052  0.00  0.00    -0.150 OA
ENDROOT
BRANCH   1   7
ATOM      4  C   UNL     1      -2.527   2.109   0.529  0.00  0.00    -0.047 A 
ATOM      5  C   UNL     1      -3.630   2.781   0.036  0.00  0.00    +0.005 A 
ATOM      6  C   UNL     1      -4.893   2.238   0.182  0.00  0.00    +0.029 A 
ATOM      7  C   UNL     1      -5.054   1.027   0.829  0.00  0.00    +0.109 A 
ATOM      8  C   UNL     1      -3.951   0.357   1.326  0.00  0.00    +0.029 A 
ATOM      9  C   UNL     1      -2.688   0.898   1.176  0.00  0.00    +0.005 A 
BRANCH   4  10
ATOM     10  C   UNL     1      -1.150   2.699   0.365  0.00  0.00    +0.038 C 
BRANCH  10  12
ATOM     11  C   UNL     1      -0.323   0.693  -0.874  0.00  0.00    +0.007 C 
ATOM     12  C   UNL     1      -0.537   2.206  -0.947  0.00  0.00    -0.013 C 
ATOM     13  C   UNL     1       0.807   2.901  -1.174  0.00  0.00    +0.007 C 
ENDBRANCH  10  12
ENDBRANCH   4  10
ENDBRANCH   1   7
BRANCH   1  14
ATOM     14  N   UNL     1      -7.214   0.784   2.515  0.00  0.00    -0.216 N 
ATOM     15  H   UNL     1      -7.395   0.109   3.188  0.00  0.00    +0.174 HD
BRANCH  14  16
ATOM     16  C   UNL     1      -7.417   2.128   2.808  0.00  0.00    +0.048 A 
ATOM     17  C   UNL     1      -6.526   2.800   3.641  0.00  0.00    +0.025 A 
ATOM     18  C   UNL     1      -6.720   4.126   3.927  0.00  0.00    +0.017 A 
ATOM     19  C   UNL     1      -7.821   4.802   3.391  0.00  0.00    +0.059 A 
ATOM     20  C   UNL     1      -8.717   4.123   2.560  0.00  0.00    +0.017 A 
ATOM     21  C   UNL     1      -8.514   2.798   2.273  0.00  0.00    +0.025 A 
BRANCH  19  22
ATOM     22  C   UNL     1      -8.036   6.227   3.701  0.00  0.00    +0.339 C 
ATOM     23  O   UNL     1      -8.993   6.812   3.235  0.00  0.00    -0.245 OA
BRANCH  22  24
ATOM     24  O   UNL     1      -7.172   6.880   4.503  0.00  0.00    -0.464 OA
ATOM     25  C   UNL     1      -7.446   8.281   4.765  0.00  0.00    +0.280 C 
ENDBRANCH  22  24
ENDBRANCH  19  22
ENDBRANCH  14  16
ENDBRANCH   1  14
TORSDOF 7
