REMARK  Name = ZINC31740836
REMARK  3 active torsions:
REMARK  status: ('A' for Active; 'I' for Inactive)
REMARK    1  A    between atoms: C_6  and  N_7
REMARK    2  A    between atoms: C_10  and  C_15
REMARK    3  A    between atoms: C_15  and  N_16
REMARK                            x       y       z     vdW  Elec       q    Type
REMARK                         _______ _______ _______ _____ _____    ______ ____
ROOT
ATOM      1  N   UNL     1      -0.011   0.966   0.007  0.00  0.00    -0.284 N 
ATOM      2  C   UNL     1       1.084   1.787  -0.177  0.00  0.00    +0.224 A 
ATOM      3  N   UNL     1       2.315   1.289  -0.081  0.00  0.00    -0.197 NA
ATOM      4  C   UNL     1       3.363   2.072  -0.263  0.00  0.00    +0.156 A 
ATOM      5  N   UNL     1       3.194   3.356  -0.529  0.00  0.00    -0.198 NA
ATOM      6  C   UNL     1       1.967   3.863  -0.621  0.00  0.00    +0.217 A 
ATOM      7  N   UNL     1       0.910   3.077  -0.444  0.00  0.00    -0.181 NA
ATOM      8  N   UNL     1       1.792   5.203  -0.899  0.00  0.00    -0.327 N 
ATOM      9  H   UNL     1       0.130  -0.117   0.139  0.00  0.00    +0.155 HD
ATOM     10  H   UNL     1       0.777   5.622  -0.974  0.00  0.00    +0.145 HD
ATOM     11  H   UNL     1       2.667   5.854  -1.044  0.00  0.00    +0.145 HD
ENDROOT
BRANCH   1  17
ATOM     12  C   UNL     1      -1.510   2.782   0.546  0.00  0.00    +0.026 A 
ATOM     13  C   UNL     1      -2.781   3.320   0.560  0.00  0.00    +0.040 A 
ATOM     14  C   UNL     1      -3.849   2.590   0.064  0.00  0.00    +0.124 A 
ATOM     15  C   UNL     1      -3.643   1.321  -0.450  0.00  0.00    +0.040 A 
ATOM     16  C   UNL     1      -2.372   0.781  -0.470  0.00  0.00    +0.026 A 
ATOM     17  C   UNL     1      -1.300   1.511   0.026  0.00  0.00    +0.034 A 
ATOM     18  F   UNL     1      -5.093   3.117   0.083  0.00  0.00    -0.205 F 
ENDBRANCH   1  17
BRANCH   4  19
ATOM     19  C   UNL     1       4.754   1.503  -0.160  0.00  0.00    +0.202 C 
BRANCH  19  20
ATOM     20  N   UNL     1       5.220   1.601   1.226  0.00  0.00    -0.291 N 
ATOM     21  C   UNL     1       5.892   2.709   1.633  0.00  0.00    +0.203 A 
ATOM     22  N   UNL     1       6.332   2.873   2.844  0.00  0.00    -0.237 NA
ATOM     23  C   UNL     1       6.156   1.925   3.799  0.00  0.00    +0.078 A 
ATOM     24  C   UNL     1       6.635   2.098   5.099  0.00  0.00    +0.030 A 
ATOM     25  C   UNL     1       6.435   1.110   6.036  0.00  0.00    +0.022 A 
ATOM     26  C   UNL     1       5.762  -0.060   5.705  0.00  0.00    +0.042 A 
ATOM     27  C   UNL     1       5.280  -0.253   4.428  0.00  0.00    +0.035 A 
ATOM     28  C   UNL     1       5.472   0.735   3.465  0.00  0.00    +0.066 A 
ATOM     29  C   UNL     1       4.982   0.584   2.087  0.00  0.00    +0.262 A 
ATOM     30  O   UNL     1       4.385  -0.417   1.734  0.00  0.00    -0.267 OA
ATOM     31 CL   UNL     1       5.525  -1.288   6.910  0.00  0.00    -0.084 Cl
ENDBRANCH  19  20
ENDBRANCH   4  19
TORSDOF 3
