REMARK  Name = ZINC58604639
REMARK  7 active torsions:
REMARK  status: ('A' for Active; 'I' for Inactive)
REMARK    1  A    between atoms: C_4  and  S_24
REMARK    2  A    between atoms: C_5  and  N_7
REMARK    3  A    between atoms: C_8  and  C_10
REMARK    4  A    between atoms: C_10  and  N_11
REMARK    5  A    between atoms: C_13  and  N_21
REMARK    6  A    between atoms: C_15  and  C_18
REMARK    7  A    between atoms: S_24  and  C_25
REMARK                            x       y       z     vdW  Elec       q    Type
REMARK                         _______ _______ _______ _____ _____    ______ ____
ROOT
ATOM      1  N   UNL     1       1.222  -2.136  -0.007  0.00  0.00    -0.283 N 
ATOM      2  C   UNL     1       0.060  -2.813  -0.101  0.00  0.00    +0.237 C 
ATOM      3  O   UNL     1      -0.980  -2.212  -0.272  0.00  0.00    -0.274 OA
ATOM      4  H   UNL     1       2.061  -2.620   0.047  0.00  0.00    +0.155 HD
ENDROOT
BRANCH   1   9
ATOM      5  C   UNL     1       0.172   1.331   0.636  0.00  0.00    +0.002 A 
ATOM      6  C   UNL     1       1.208   2.036   0.051  0.00  0.00    +0.001 A 
ATOM      7  C   UNL     1       2.252   1.363  -0.555  0.00  0.00    +0.017 A 
ATOM      8  C   UNL     1       2.263  -0.024  -0.578  0.00  0.00    +0.034 A 
ATOM      9  C   UNL     1       1.218  -0.735   0.012  0.00  0.00    +0.047 A 
ATOM     10  C   UNL     1       0.174  -0.051   0.618  0.00  0.00    +0.024 A 
BRANCH   8  11
ATOM     11  S   UNL     1       3.592  -0.885  -1.350  0.00  0.00    -0.088 S 
BRANCH  11  12
ATOM     12  C   UNL     1       4.568   0.394  -2.069  0.00  0.00    +0.013 A 
ATOM     13  C   UNL     1       5.662   0.904  -1.382  0.00  0.00    +0.016 A 
ATOM     14  C   UNL     1       6.425   1.907  -1.948  0.00  0.00    +0.021 A 
ATOM     15  C   UNL     1       6.100   2.403  -3.199  0.00  0.00    +0.041 A 
ATOM     16  C   UNL     1       5.011   1.896  -3.885  0.00  0.00    +0.021 A 
ATOM     17  C   UNL     1       4.247   0.890  -3.327  0.00  0.00    +0.016 A 
ATOM     18 CL   UNL     1       7.061   3.663  -3.907  0.00  0.00    -0.084 Cl
ENDBRANCH  11  12
ENDBRANCH   8  11
ENDBRANCH   1   9
BRANCH   2  19
ATOM     19  C   UNL     1       0.052  -4.316   0.008  0.00  0.00    +0.220 C 
BRANCH  19  20
ATOM     20  N   UNL     1      -1.321  -4.808  -0.126  0.00  0.00    -0.304 N 
ATOM     21  C   UNL     1      -2.092  -4.941   0.980  0.00  0.00    +0.122 A 
ATOM     22  C   UNL     1      -3.369  -5.394   0.898  0.00  0.00    +0.143 A 
ATOM     23  C   UNL     1      -3.913  -5.732  -0.341  0.00  0.00    +0.052 A 
ATOM     24  C   UNL     1      -3.127  -5.597  -1.483  0.00  0.00    +0.103 A 
ATOM     25  C   UNL     1      -1.800  -5.115  -1.347  0.00  0.00    +0.264 A 
ATOM     26  O   UNL     1      -1.093  -4.982  -2.331  0.00  0.00    -0.267 OA
BRANCH  24  27
ATOM     27  C   UNL     1      -3.665  -5.943  -2.807  0.00  0.00    +0.247 C 
ATOM     28  O   UNL     1      -4.768  -6.447  -2.903  0.00  0.00    -0.270 OA
ATOM     29  N   UNL     1      -2.936  -5.702  -3.915  0.00  0.00    -0.325 N 
ATOM     30  H   UNL     1      -2.029  -5.369  -3.835  0.00  0.00    +0.145 HD
ATOM     31  H   UNL     1      -3.319  -5.862  -4.792  0.00  0.00    +0.145 HD
ENDBRANCH  24  27
BRANCH  22  32
ATOM     32  N   UNL     1      -4.185  -5.530   2.126  0.00  0.00    +0.058 N 
ATOM     33  O   UNL     1      -3.714  -5.238   3.200  0.00  0.00    -0.126 OA
ATOM     34  O   UNL     1      -5.322  -5.933   2.054  0.00  0.00    -0.126 OA
ENDBRANCH  22  32
ENDBRANCH  19  20
ENDBRANCH   2  19
TORSDOF 7
