REMARK  Name = ZINC09347886
REMARK  2 active torsions:
REMARK  status: ('A' for Active; 'I' for Inactive)
REMARK    1  A    between atoms: C_1  and  C_2
REMARK    2  A    between atoms: C_7  and  C_21
REMARK                            x       y       z     vdW  Elec       q    Type
REMARK                         _______ _______ _______ _____ _____    ______ ____
ROOT
ATOM      1  C   UNL     1       0.002   1.180  -2.493  0.00  0.00    +0.008 C 
ATOM      2  C   UNL     1      -0.757   1.595  -1.231  0.00  0.00    -0.001 C 
ATOM      3  C   UNL     1      -0.842   3.122  -1.155  0.00  0.00    +0.055 C 
ATOM      4  C   UNL     1      -1.540   3.526   0.117  0.00  0.00    +0.019 C 
ATOM      5  C   UNL     1      -1.454   2.771   1.233  0.00  0.00    +0.039 C 
ATOM      6  C   UNL     1      -2.151   3.203   2.498  0.00  0.00    +0.147 C 
ATOM      7  C   UNL     1      -3.213   4.881   1.125  0.00  0.00    +0.164 C 
ATOM      8  N   UNL     1      -2.278   4.681   0.133  0.00  0.00    -0.292 N 
ATOM      9  N   UNL     1      -4.206   5.818   0.940  0.00  0.00    -0.268 N 
ATOM     10  C   UNL     1      -5.151   6.028   1.929  0.00  0.00    +0.165 A 
ATOM     11  N   UNL     1      -6.162   6.867   1.937  0.00  0.00    -0.225 NA
ATOM     12  C   UNL     1      -7.013   6.967   2.981  0.00  0.00    +0.080 A 
ATOM     13  C   UNL     1      -8.132   7.822   3.116  0.00  0.00    +0.029 A 
ATOM     14  C   UNL     1      -8.899   7.796   4.252  0.00  0.00    +0.002 A 
ATOM     15  C   UNL     1      -8.609   6.939   5.303  0.00  0.00    +0.001 A 
ATOM     16  C   UNL     1      -7.522   6.090   5.205  0.00  0.00    +0.017 A 
ATOM     17  C   UNL     1      -6.749   6.108   4.071  0.00  0.00    +0.041 A 
ATOM     18  S   UNL     1      -5.312   5.222   3.516  0.00  0.00    -0.052 S 
ATOM     19  C   UNL     1      -0.720   1.573   1.244  0.00  0.00    +0.163 C 
ATOM     20  O   UNL     1      -0.657   0.918   2.265  0.00  0.00    -0.292 OA
ATOM     21  C   UNL     1      -0.013   1.086   0.008  0.00  0.00    +0.083 C 
ATOM     22  H   UNL     1      -2.142   5.355  -0.551  0.00  0.00    +0.154 HD
ATOM     23  H   UNL     1      -4.243   6.330   0.117  0.00  0.00    +0.157 HD
ATOM     24  N   UNL     1      -3.237   4.221   2.287  0.00  0.00    -0.350 N 
ATOM     25  H   UNL     1      -3.958   4.399   2.996  0.00  0.00    +0.163 HD
ENDROOT
BRANCH   6  26
ATOM     26  C   UNL     1      -1.133   3.783   3.446  0.00  0.00    -0.015 A 
ATOM     27  C   UNL     1      -0.719   5.093   3.298  0.00  0.00    +0.044 A 
ATOM     28  C   UNL     1       0.212   5.628   4.172  0.00  0.00    +0.126 A 
ATOM     29  C   UNL     1       0.737   4.847   5.187  0.00  0.00    +0.076 A 
ATOM     30  C   UNL     1       0.326   3.534   5.331  0.00  0.00    +0.126 A 
ATOM     31  C   UNL     1      -0.610   3.002   4.460  0.00  0.00    +0.044 A 
ATOM     32  F   UNL     1       0.837   2.770   6.321  0.00  0.00    -0.205 F 
ATOM     33  F   UNL     1       0.612   6.911   4.030  0.00  0.00    -0.205 F 
ENDBRANCH   6  26
TORSDOF 1
