REMARK  Name = ZINC39710400
REMARK  11 active torsions:
REMARK  status: ('A' for Active; 'I' for Inactive)
REMARK    1  A    between atoms: C_1  and  C_2
REMARK    2  A    between atoms: C_2  and  C_3
REMARK    3  A    between atoms: C_10  and  C_15
REMARK    4  A    between atoms: C_15  and  C_17
REMARK    5  A    between atoms: C_15  and  N_27
REMARK    6  A    between atoms: N_22  and  C_23
REMARK    7  A    between atoms: C_23  and  C_24
REMARK    8  A    between atoms: C_23  and  C_25
REMARK    9  A    between atoms: C_23  and  C_26
REMARK   10  A    between atoms: N_30  and  C_33
REMARK   11  A    between atoms: C_36  and  N_39
REMARK                            x       y       z     vdW  Elec       q    Type
REMARK                         _______ _______ _______ _____ _____    ______ ____
ROOT
ATOM      1  C   UNL     1      -5.476  -3.249  -3.471  0.00  0.00    -0.009 C 
ENDROOT
BRANCH   1   9
ATOM      2  C   UNL     1      -8.335  -4.541   1.449  0.00  0.00    -0.047 A 
ATOM      3  C   UNL     1      -9.296  -3.559   1.205  0.00  0.00    +0.005 A 
ATOM      4  C   UNL     1      -9.145  -2.607   0.247  0.00  0.00    +0.024 A 
ATOM      5  C   UNL     1      -7.987  -2.575  -0.551  0.00  0.00    +0.040 A 
ATOM      6  N   UNL     1      -7.849  -1.637  -1.488  0.00  0.00    -0.285 N 
ATOM      7  C   UNL     1      -6.788  -1.550  -2.272  0.00  0.00    +0.223 C 
ATOM      8  O   UNL     1      -6.719  -0.670  -3.110  0.00  0.00    -0.275 OA
ATOM      9  C   UNL     1      -5.662  -2.547  -2.124  0.00  0.00    +0.088 C 
ATOM     10  C   UNL     1      -5.814  -3.617  -1.060  0.00  0.00    -0.006 C 
ATOM     11  C   UNL     1      -6.955  -3.600  -0.315  0.00  0.00    -0.007 A 
ATOM     12  C   UNL     1      -7.181  -4.593   0.736  0.00  0.00    +0.013 A 
ATOM     13  H   UNL     1      -8.561  -0.987  -1.599  0.00  0.00    +0.155 HD
BRANCH   2  15
ATOM     14  C   UNL     1      -8.030  -5.037   3.859  0.00  0.00    +0.009 C 
ATOM     15  C   UNL     1      -8.581  -5.560   2.531  0.00  0.00    +0.032 C 
ENDBRANCH   2  15
ENDBRANCH   1   9
BRANCH   1  16
ATOM     16  N   UNL     1      -6.783  -3.688  -3.979  0.00  0.00    +0.387 N 
ATOM     17  C   UNL     1      -6.593  -4.805  -4.912  0.00  0.00    -0.059 C 
ATOM     18  C   UNL     1      -7.960  -5.338  -5.354  0.00  0.00    +0.086 C 
ATOM     19  N   UNL     1      -8.743  -4.218  -5.899  0.00  0.00    -0.333 N 
ATOM     20  C   UNL     1      -8.849  -2.991  -5.095  0.00  0.00    +0.086 C 
ATOM     21  C   UNL     1      -7.440  -2.568  -4.666  0.00  0.00    -0.059 C 
ATOM     22  H   UNL     1      -7.357  -3.991  -3.207  0.00  0.00    -0.081 HD
BRANCH  19  23
ATOM     23  C   UNL     1      -9.369  -4.318  -7.144  0.00  0.00    +0.030 A 
ATOM     24  C   UNL     1      -9.351  -5.522  -7.837  0.00  0.00    +0.025 A 
ATOM     25  C   UNL     1      -9.971  -5.617  -9.067  0.00  0.00    +0.034 A 
ATOM     26  C   UNL     1     -10.609  -4.516  -9.609  0.00  0.00    +0.126 A 
ATOM     27  C   UNL     1     -10.629  -3.317  -8.921  0.00  0.00    +0.034 A 
ATOM     28  C   UNL     1     -10.015  -3.216  -7.688  0.00  0.00    +0.025 A 
BRANCH  26  29
ATOM     29  N   UNL     1     -11.272  -4.622 -10.928  0.00  0.00    +0.056 N 
ATOM     30  O   UNL     1     -11.256  -5.670 -11.531  0.00  0.00    -0.126 OA
ATOM     31  O   UNL     1     -11.830  -3.660 -11.403  0.00  0.00    -0.126 OA
ENDBRANCH  26  29
ENDBRANCH  19  23
ENDBRANCH   1  16
BRANCH   1  32
ATOM     32  C   UNL     1      -4.564  -4.464  -3.291  0.00  0.00    +0.205 C 
ATOM     33  N   UNL     1      -5.095  -5.354  -2.250  0.00  0.00    -0.152 NA
ATOM     34  N   UNL     1      -4.270  -5.438  -1.338  0.00  0.00    -0.070 NA
ATOM     35  N   UNL     1      -3.122  -4.682  -1.574  0.00  0.00    -0.179 N 
ATOM     36  N   UNL     1      -3.240  -4.046  -2.785  0.00  0.00    -0.183 NA
ATOM     37  H   UNL     1      -2.361  -4.616  -0.977  0.00  0.00    +0.191 HD
BRANCH  36  38
ATOM     38  C   UNL     1      -3.176  -2.587  -2.623  0.00  0.00    +0.035 C 
ATOM     39  C   UNL     1      -3.688  -2.205  -1.233  0.00  0.00    +0.029 C 
ATOM     40  C   UNL     1      -1.727  -2.120  -2.778  0.00  0.00    +0.029 C 
ATOM     41  C   UNL     1      -4.045  -1.917  -3.689  0.00  0.00    +0.029 C 
ENDBRANCH  36  38
ENDBRANCH   1  32
TORSDOF 7
