REMARK  Name = ZINC38556437
REMARK  6 active torsions:
REMARK  status: ('A' for Active; 'I' for Inactive)
REMARK    1  A    between atoms: C_6  and  C_7
REMARK    2  A    between atoms: C_7  and  C_9
REMARK    3  A    between atoms: C_9  and  S_10
REMARK    4  A    between atoms: S_10  and  C_11
REMARK    5  A    between atoms: C_14  and  C_18
REMARK    6  A    between atoms: N_16  and  N_17
REMARK                            x       y       z     vdW  Elec       q    Type
REMARK                         _______ _______ _______ _____ _____    ______ ____
ROOT
ATOM      1  C   UNL     1      -2.739  -4.650   0.004  0.00  0.00    +0.189 C 
ATOM      2  N   UNL     1      -1.596  -5.249  -0.005  0.00  0.00    -0.161 NA
ATOM      3  N   UNL     1      -1.747  -6.641  -0.012  0.00  0.00    -0.243 N 
ATOM      4  C   UNL     1      -3.198  -6.897  -0.006  0.00  0.00    +0.222 C 
ATOM      5  N   UNL     1      -3.794  -5.551   0.010  0.00  0.00    -0.223 N 
ATOM      6  H   UNL     1      -1.039  -7.304  -0.019  0.00  0.00    +0.170 HD
ENDROOT
BRANCH   4   7
ATOM      7  C   UNL     1      -3.613  -7.662  -1.264  0.00  0.00    +0.197 C 
ATOM      8  C   UNL     1      -2.971  -9.034  -1.295  0.00  0.00    -0.017 C 
ATOM      9  C   UNL     1      -3.994  -9.887  -1.279  0.00  0.00    +0.065 C 
ATOM     10  C   UNL     1      -3.475 -11.313  -1.306  0.00  0.00    +0.057 C 
ATOM     11  C   UNL     1      -2.007 -11.198  -1.773  0.00  0.00    +0.011 C 
ATOM     12  C   UNL     1      -1.652  -9.759  -1.337  0.00  0.00    +0.035 C 
ATOM     13  N   UNL     1      -5.169  -9.201  -1.244  0.00  0.00    -0.158 NA
ATOM     14  N   UNL     1      -5.053  -7.971  -1.236  0.00  0.00    -0.176 NA
ENDBRANCH   4   7
BRANCH   5  15
ATOM     15  N   UNL     1      -5.126  -5.247   0.025  0.00  0.00    -0.250 NA
ATOM     16  H   UNL     1      -5.269  -4.249   0.031  0.00  0.00    +0.141 HD
ATOM     17  H   UNL     1      -5.603  -5.676  -0.754  0.00  0.00    +0.141 HD
ENDBRANCH   5  15
BRANCH   1  18
ATOM     18  S   UNL     1      -2.935  -2.899   0.016  0.00  0.00    -0.080 S 
BRANCH  18  19
ATOM     19  C   UNL     1      -1.235  -2.267   0.002  0.00  0.00    +0.156 C 
BRANCH  19  20
ATOM     20  C   UNL     1      -1.260  -0.760   0.011  0.00  0.00    +0.173 C 
ATOM     21  O   UNL     1      -2.319  -0.171   0.024  0.00  0.00    -0.291 OA
BRANCH  20  27
ATOM     22  C   UNL     1      -0.017   1.395   0.010  0.00  0.00    +0.013 A 
ATOM     23  C   UNL     1       1.169   2.097   0.002  0.00  0.00    +0.022 A 
ATOM     24  C   UNL     1       2.378   1.422  -0.013  0.00  0.00    +0.059 A 
ATOM     25  C   UNL     1       2.405   0.035  -0.021  0.00  0.00    +0.060 A 
ATOM     26  C   UNL     1       1.227  -0.681  -0.013  0.00  0.00    +0.032 A 
ATOM     27  C   UNL     1       0.002  -0.004   0.002  0.00  0.00    +0.020 A 
ATOM     28 CL   UNL     1       3.926  -0.801  -0.040  0.00  0.00    -0.082 Cl
ATOM     29 CL   UNL     1       3.867   2.315  -0.023  0.00  0.00    -0.082 Cl
ENDBRANCH  20  27
ENDBRANCH  19  20
ENDBRANCH  18  19
ENDBRANCH   1  18
TORSDOF 6
