REMARK  Name = ZINC39326723
REMARK  11 active torsions:
REMARK  status: ('A' for Active; 'I' for Inactive)
REMARK    1  A    between atoms: C_1  and  C_2
REMARK    2  A    between atoms: C_2  and  O_3
REMARK    3  A    between atoms: O_3  and  C_4
REMARK    4  A    between atoms: C_9  and  C_10
REMARK    5  A    between atoms: C_13  and  S_16
REMARK    6  A    between atoms: S_16  and  C_17
REMARK    7  A    between atoms: C_21  and  C_29
REMARK    8  A    between atoms: C_23  and  C_27
REMARK    9  A    between atoms: C_24  and  N_26
REMARK   10  A    between atoms: C_32  and  S_35
REMARK   11  A    between atoms: S_35  and  C_36
REMARK                            x       y       z     vdW  Elec       q    Type
REMARK                         _______ _______ _______ _____ _____    ______ ____
ROOT
ATOM      1  C   UNL     1       1.175  -1.687  -0.790  0.00  0.00    +0.403 C 
ATOM      2  O   UNL     1       0.828  -2.422   0.113  0.00  0.00    -0.226 OA
ATOM      3  N   UNL     1       1.601  -2.209  -1.958  0.00  0.00    -0.259 N 
ATOM      4  C   UNL     1       2.034  -1.340  -3.069  0.00  0.00    +0.150 C 
ATOM      5  C   UNL     1       3.451  -1.756  -3.401  0.00  0.00    +0.013 C 
ATOM      6  C   UNL     1       4.377  -0.840  -3.741  0.00  0.00    +0.016 C 
ATOM      7  C   UNL     1       3.794  -3.191  -3.343  0.00  0.00    +0.136 C 
ATOM      8  C   UNL     1       2.972  -4.069  -2.769  0.00  0.00    +0.003 C 
ATOM      9  C   UNL     1       1.657  -3.657  -2.165  0.00  0.00    +0.147 C 
ATOM     10  C   UNL     1       3.346  -5.533  -2.702  0.00  0.00    +0.095 C 
ATOM     11  C   UNL     1       4.411  -5.849  -3.712  0.00  0.00    +0.098 C 
ATOM     12  C   UNL     1       5.164  -4.858  -4.252  0.00  0.00    +0.199 C 
ATOM     13  O   UNL     1       4.974  -3.578  -3.893  0.00  0.00    -0.441 OA
ENDROOT
BRANCH   6  14
ATOM     14  C   UNL     1       3.981   0.561  -3.955  0.00  0.00    -0.025 A 
ATOM     15  C   UNL     1       4.868   1.596  -3.642  0.00  0.00    +0.009 A 
ATOM     16  C   UNL     1       4.495   2.906  -3.845  0.00  0.00    +0.015 A 
ATOM     17  C   UNL     1       3.236   3.201  -4.359  0.00  0.00    +0.008 A 
ATOM     18  C   UNL     1       2.350   2.174  -4.672  0.00  0.00    +0.015 A 
ATOM     19  C   UNL     1       2.719   0.862  -4.478  0.00  0.00    +0.009 A 
BRANCH  17  20
ATOM     20  S   UNL     1       2.762   4.878  -4.616  0.00  0.00    -0.129 S 
ATOM     21  C   UNL     1       1.080   4.762  -5.284  0.00  0.00    +0.090 C 
ENDBRANCH  17  20
ENDBRANCH   6  14
BRANCH  10  22
ATOM     22  C   UNL     1       3.862  -5.853  -1.323  0.00  0.00    -0.035 A 
ATOM     23  C   UNL     1       4.974  -5.193  -0.832  0.00  0.00    +0.005 A 
ATOM     24  C   UNL     1       5.451  -5.483   0.431  0.00  0.00    +0.015 A 
ATOM     25  C   UNL     1       4.811  -6.440   1.210  0.00  0.00    +0.008 A 
ATOM     26  C   UNL     1       3.693  -7.101   0.714  0.00  0.00    +0.015 A 
ATOM     27  C   UNL     1       3.220  -6.801  -0.548  0.00  0.00    +0.005 A 
BRANCH  25  28
ATOM     28  S   UNL     1       5.415  -6.815   2.821  0.00  0.00    -0.129 S 
ATOM     29  C   UNL     1       4.280  -8.092   3.430  0.00  0.00    +0.090 C 
ENDBRANCH  25  28
ENDBRANCH  10  22
BRANCH  12  30
ATOM     30  N   UNL     1       6.131  -5.168  -5.176  0.00  0.00    -0.328 N 
ATOM     31  H   UNL     1       6.273  -6.090  -5.439  0.00  0.00    +0.145 HD
ATOM     32  H   UNL     1       6.673  -4.463  -5.565  0.00  0.00    +0.145 HD
ENDBRANCH  12  30
BRANCH  11  33
ATOM     33  C   UNL     1       4.633  -7.207  -4.109  0.00  0.00    +0.101 C 
ATOM     34  N   UNL     1       4.810  -8.284  -4.423  0.00  0.00    -0.191 NA
ENDBRANCH  11  33
BRANCH   1  35
ATOM     35  O   UNL     1       1.134  -0.352  -0.625  0.00  0.00    -0.451 OA
BRANCH  35  37
ATOM     36  C   UNL     1       0.695   1.662   0.638  0.00  0.00    +0.048 C 
ATOM     37  C   UNL     1       0.672   0.132   0.638  0.00  0.00    +0.230 C 
ENDBRANCH  35  37
ENDBRANCH   1  35
TORSDOF 8
