REMARK  Name = ZINC13411721
REMARK  7 active torsions:
REMARK  status: ('A' for Active; 'I' for Inactive)
REMARK    1  A    between atoms: C_1  and  C_2
REMARK    2  A    between atoms: C_6  and  N_9
REMARK    3  A    between atoms: C_7  and  C_8
REMARK    4  A    between atoms: C_13  and  S_15
REMARK    5  A    between atoms: S_15  and  C_16
REMARK    6  A    between atoms: C_16  and  C_17
REMARK    7  A    between atoms: C_23  and  C_26
REMARK                            x       y       z     vdW  Elec       q    Type
REMARK                         _______ _______ _______ _____ _____    ______ ____
ROOT
ATOM      1  N   UNL     1      -2.432   1.469   0.021  0.00  0.00    -0.292 N 
ATOM      2  C   UNL     1      -3.642   2.146   0.135  0.00  0.00    +0.187 A 
ATOM      3  N   UNL     1      -3.874   3.444   0.162  0.00  0.00    -0.125 NA
ATOM      4  N   UNL     1      -5.164   3.907   0.282  0.00  0.00    -0.133 NA
ATOM      5  C   UNL     1      -6.163   3.049   0.370  0.00  0.00    +0.160 A 
ATOM      6  S   UNL     1      -5.297   1.490   0.277  0.00  0.00    -0.024 S 
ATOM      7  H   UNL     1      -2.408   0.503   0.101  0.00  0.00    +0.154 HD
ENDROOT
BRANCH   1  13
ATOM      8  C   UNL     1       2.473   1.544  -0.286  0.00  0.00    +0.044 C 
ATOM      9  C   UNL     1       1.140   2.243  -0.365  0.00  0.00    -0.046 A 
ATOM     10  C   UNL     1       1.084   3.590  -0.672  0.00  0.00    +0.004 A 
ATOM     11  C   UNL     1      -0.137   4.235  -0.746  0.00  0.00    +0.002 A 
ATOM     12  C   UNL     1      -1.305   3.536  -0.513  0.00  0.00    +0.023 A 
ATOM     13  C   UNL     1      -1.253   2.181  -0.210  0.00  0.00    +0.036 A 
ATOM     14  C   UNL     1      -0.024   1.537  -0.131  0.00  0.00    -0.026 A 
ATOM     15  C   UNL     1       0.038   0.069   0.204  0.00  0.00    +0.046 C 
ENDBRANCH   1  13
BRANCH   5  16
ATOM     16  S   UNL     1      -7.890   3.360   0.529  0.00  0.00    -0.088 S 
BRANCH  16  17
ATOM     17  C   UNL     1      -8.011   5.170   0.548  0.00  0.00    +0.172 C 
BRANCH  17  18
ATOM     18  C   UNL     1      -9.456   5.576   0.681  0.00  0.00    +0.226 C 
ATOM     19  O   UNL     1     -10.319   4.727   0.756  0.00  0.00    -0.275 OA
ATOM     20  N   UNL     1      -9.788   6.881   0.717  0.00  0.00    -0.300 N 
ATOM     21  C   UNL     1      -8.753   7.920   0.633  0.00  0.00    +0.108 C 
ATOM     22  C   UNL     1      -8.906   8.872   1.819  0.00  0.00    +0.020 C 
ATOM     23  C   UNL     1     -10.338   9.412   1.854  0.00  0.00    +0.018 C 
ATOM     24  C   UNL     1     -11.318   8.251   2.035  0.00  0.00    +0.119 C 
ATOM     25  C   UNL     1     -11.193   7.292   0.847  0.00  0.00    +0.122 C 
BRANCH  24  26
ATOM     26  C   UNL     1     -12.725   8.787   2.103  0.00  0.00    +0.361 C 
ATOM     27  O   UNL     1     -12.924   9.976   2.018  0.00  0.00    -0.246 OA
ATOM     28  O   UNL     1     -13.758   7.944   2.256  0.00  0.00    -0.246 OA
ENDBRANCH  24  26
ENDBRANCH  17  18
ENDBRANCH  16  17
ENDBRANCH   5  16
TORSDOF 5
