REMARK  Name = ZINC06368737
REMARK  9 active torsions:
REMARK  status: ('A' for Active; 'I' for Inactive)
REMARK    1  A    between atoms: C_1  and  C_2
REMARK    2  A    between atoms: C_5  and  C_7
REMARK    3  A    between atoms: C_8  and  C_9
REMARK    4  A    between atoms: N_11  and  C_12
REMARK    5  A    between atoms: C_15  and  S_18
REMARK    6  A    between atoms: S_18  and  N_21
REMARK    7  A    between atoms: N_21  and  C_22
REMARK    8  A    between atoms: C_25  and  O_28
REMARK    9  A    between atoms: O_28  and  C_29
REMARK                            x       y       z     vdW  Elec       q    Type
REMARK                         _______ _______ _______ _____ _____    ______ ____
ROOT
ATOM      1  C   UNL     1       3.918   3.966  -0.130  0.00  0.00    +0.034 A 
ATOM      2  C   UNL     1       3.282   3.525  -1.284  0.00  0.00    +0.025 A 
ATOM      3  C   UNL     1       2.087   2.838  -1.192  0.00  0.00    +0.030 A 
ATOM      4  C   UNL     1       1.525   2.588   0.046  0.00  0.00    +0.109 A 
ATOM      5  C   UNL     1       2.152   3.031   1.196  0.00  0.00    +0.030 A 
ATOM      6  C   UNL     1       3.350   3.714   1.112  0.00  0.00    +0.025 A 
ENDROOT
BRANCH   1   9
ATOM      7  C   UNL     1       6.061   4.517   0.741  0.00  0.00    +0.241 C 
ATOM      8  O   UNL     1       5.892   3.709   1.637  0.00  0.00    -0.270 OA
ATOM      9  N   UNL     1       5.127   4.662  -0.220  0.00  0.00    -0.282 N 
ATOM     10  H   UNL     1       5.294   5.250  -0.973  0.00  0.00    +0.155 HD
BRANCH   7  12
ATOM     11  C   UNL     1       8.176   5.158   1.677  0.00  0.00    +0.051 C 
ATOM     12  C   UNL     1       7.237   5.304   0.710  0.00  0.00    +0.071 C 
BRANCH  11  17
ATOM     13  C   UNL     1      11.547   8.489   0.210  0.00  0.00    +0.086 C 
ATOM     14  C   UNL     1      10.854   7.415   1.009  0.00  0.00    +0.103 A 
ATOM     15  C   UNL     1      11.334   6.844   2.137  0.00  0.00    +0.045 A 
ATOM     16  C   UNL     1      10.383   5.904   2.563  0.00  0.00    +0.049 A 
ATOM     17  C   UNL     1       9.353   5.945   1.646  0.00  0.00    +0.128 A 
ATOM     18  O   UNL     1       9.664   6.872   0.717  0.00  0.00    -0.461 OA
ENDBRANCH  11  17
ENDBRANCH   7  12
ENDBRANCH   1   9
BRANCH   4  19
ATOM     19  S   UNL     1       0.000   1.712   0.158  0.00  0.00    +0.072 S 
ATOM     20  O   UNL     1      -0.614   1.800  -1.120  0.00  0.00    -0.150 OA
ATOM     21  O   UNL     1      -0.641   2.162   1.344  0.00  0.00    -0.150 OA
BRANCH  19  22
ATOM     22  N   UNL     1       0.370   0.115   0.397  0.00  0.00    -0.216 N 
ATOM     23  H   UNL     1       0.145  -0.541  -0.280  0.00  0.00    +0.174 HD
BRANCH  22  24
ATOM     24  C   UNL     1       1.007  -0.286   1.576  0.00  0.00    +0.048 A 
ATOM     25  C   UNL     1       2.353  -0.630   1.556  0.00  0.00    +0.028 A 
ATOM     26  C   UNL     1       2.982  -1.021   2.722  0.00  0.00    +0.047 A 
ATOM     27  C   UNL     1       2.268  -1.082   3.909  0.00  0.00    +0.120 A 
ATOM     28  C   UNL     1       0.923  -0.744   3.929  0.00  0.00    +0.047 A 
ATOM     29  C   UNL     1       0.294  -0.347   2.766  0.00  0.00    +0.028 A 
BRANCH  27  30
ATOM     30  O   UNL     1       2.888  -1.473   5.056  0.00  0.00    -0.495 OA
ATOM     31  C   UNL     1       4.274  -1.806   4.962  0.00  0.00    +0.277 C 
ENDBRANCH  27  30
ENDBRANCH  22  24
ENDBRANCH  19  22
ENDBRANCH   4  19
TORSDOF 7
