REMARK  Name = ZINC34977468
REMARK  7 active torsions:
REMARK  status: ('A' for Active; 'I' for Inactive)
REMARK    1  A    between atoms: C_1  and  C_2
REMARK    2  A    between atoms: C_2  and  N_3
REMARK    3  A    between atoms: C_9  and  C_11
REMARK    4  A    between atoms: C_11  and  C_13
REMARK    5  A    between atoms: C_11  and  N_24
REMARK    6  A    between atoms: C_13  and  C_14
REMARK    7  A    between atoms: N_27  and  C_28
REMARK                            x       y       z     vdW  Elec       q    Type
REMARK                         _______ _______ _______ _____ _____    ______ ____
ROOT
ATOM      1  C   UNL     1       3.319  -4.115  -3.140  0.00  0.00    +0.165 C 
ENDROOT
BRANCH   1   8
ATOM      2  N   UNL     1       1.856  -0.374  -0.231  0.00  0.00    -0.300 NA
ATOM      3  C   UNL     1       3.226  -0.073  -0.668  0.00  0.00    +0.103 C 
ATOM      4  C   UNL     1       3.369  -0.404  -2.157  0.00  0.00    +0.123 C 
ATOM      5  N   UNL     1       2.939  -1.795  -2.370  0.00  0.00    -0.298 N 
ATOM      6  C   UNL     1       1.632  -2.209  -1.837  0.00  0.00    +0.123 C 
ATOM      7  C   UNL     1       1.558  -1.807  -0.361  0.00  0.00    +0.103 C 
ATOM      8  C   UNL     1       3.723  -2.667  -3.035  0.00  0.00    +0.236 C 
ATOM      9  O   UNL     1       4.753  -2.286  -3.549  0.00  0.00    -0.274 OA
BRANCH   2  11
ATOM     10  C   UNL     1       1.705   1.616   1.188  0.00  0.00    +0.020 C 
ATOM     11  C   UNL     1       1.629   0.089   1.144  0.00  0.00    +0.081 C 
ENDBRANCH   2  11
ENDBRANCH   1   8
BRANCH   1  12
ATOM     12  N   UNL     1       4.492  -4.926  -3.475  0.00  0.00    -0.288 N 
ATOM     13  C   UNL     1       4.526  -6.232  -3.142  0.00  0.00    +0.305 C 
ATOM     14  O   UNL     1       3.584  -6.736  -2.562  0.00  0.00    -0.252 OA
ATOM     15  N   UNL     1       5.605  -6.978  -3.450  0.00  0.00    -0.268 N 
ATOM     16  H   UNL     1       5.244  -4.524  -3.937  0.00  0.00    +0.151 HD
ATOM     17  H   UNL     1       6.320  -6.599  -3.986  0.00  0.00    +0.156 HD
BRANCH  15  18
ATOM     18  C   UNL     1       5.695  -8.300  -2.998  0.00  0.00    +0.053 A 
ATOM     19  C   UNL     1       4.921  -8.722  -1.925  0.00  0.00    +0.026 A 
ATOM     20  C   UNL     1       5.011 -10.027  -1.480  0.00  0.00    +0.022 A 
ATOM     21  C   UNL     1       5.872 -10.914  -2.103  0.00  0.00    +0.042 A 
ATOM     22  C   UNL     1       6.644 -10.497  -3.172  0.00  0.00    +0.041 A 
ATOM     23  C   UNL     1       6.554  -9.194  -3.626  0.00  0.00    +0.064 A 
ATOM     24 CL   UNL     1       7.517  -8.673  -4.972  0.00  0.00    -0.082 Cl
ATOM     25 CL   UNL     1       5.982 -12.553  -1.542  0.00  0.00    -0.083 Cl
ENDBRANCH  15  18
ENDBRANCH   1  12
BRANCH   1  26
ATOM     26  C   UNL     1       2.261  -4.271  -4.234  0.00  0.00    +0.069 C 
BRANCH  26  27
ATOM     27  C   UNL     1       1.740  -5.685  -4.230  0.00  0.00    -0.020 A 
ATOM     28  C   UNL     1       2.175  -6.699  -4.995  0.00  0.00    +0.087 A 
ATOM     29  N   UNL     1       1.464  -7.834  -4.715  0.00  0.00    -0.360 N 
ATOM     30  H   UNL     1       1.599  -8.695  -5.141  0.00  0.00    +0.165 HD
ATOM     31  C   UNL     1       0.530  -7.572  -3.738  0.00  0.00    +0.047 A 
ATOM     32  C   UNL     1       0.666  -6.216  -3.387  0.00  0.00    +0.003 A 
ATOM     33  C   UNL     1      -0.158  -5.665  -2.404  0.00  0.00    +0.010 A 
ATOM     34  C   UNL     1      -1.091  -6.448  -1.784  0.00  0.00    +0.001 A 
ATOM     35  C   UNL     1      -1.226  -7.787  -2.123  0.00  0.00    +0.002 A 
ATOM     36  C   UNL     1      -0.429  -8.349  -3.098  0.00  0.00    +0.026 A 
ENDBRANCH  26  27
ENDBRANCH   1  26
TORSDOF 6
