REMARK  Name = ZINC05226597
REMARK  13 active torsions:
REMARK  status: ('A' for Active; 'I' for Inactive)
REMARK    1  A    between atoms: C_1  and  C_2
REMARK    2  A    between atoms: C_5  and  C_9
REMARK    3  A    between atoms: C_6  and  O_8
REMARK    4  A    between atoms: C_9  and  O_11
REMARK    5  A    between atoms: O_11  and  C_12
REMARK    6  A    between atoms: C_12  and  C_14
REMARK    7  A    between atoms: C_12  and  C_15
REMARK    8  A    between atoms: N_17  and  C_18
REMARK    9  A    between atoms: C_21  and  S_24
REMARK   10  A    between atoms: S_24  and  N_27
REMARK   11  A    between atoms: N_27  and  C_28
REMARK   12  A    between atoms: C_28  and  C_29
REMARK   13  A    between atoms: C_28  and  C_30
REMARK                            x       y       z     vdW  Elec       q    Type
REMARK                         _______ _______ _______ _____ _____    ______ ____
ROOT
ATOM      1  C   UNL     1      -2.804   4.215   5.427  0.00  0.00    +0.258 C 
ATOM      2  O   UNL     1      -1.999   4.979   4.938  0.00  0.00    -0.271 OA
ATOM      3  N   UNL     1      -3.076   3.043   4.821  0.00  0.00    -0.282 N 
ATOM      4  H   UNL     1      -3.774   2.466   5.169  0.00  0.00    +0.155 HD
ENDROOT
BRANCH   3   5
ATOM      5  C   UNL     1      -2.350   2.656   3.688  0.00  0.00    +0.034 A 
ATOM      6  C   UNL     1      -1.014   3.011   3.564  0.00  0.00    +0.025 A 
ATOM      7  C   UNL     1      -0.300   2.629   2.445  0.00  0.00    +0.030 A 
ATOM      8  C   UNL     1      -0.916   1.893   1.449  0.00  0.00    +0.105 A 
ATOM      9  C   UNL     1      -2.248   1.543   1.567  0.00  0.00    +0.030 A 
ATOM     10  C   UNL     1      -2.966   1.917   2.686  0.00  0.00    +0.025 A 
BRANCH   8  11
ATOM     11  S   UNL     1      -0.003   1.408   0.022  0.00  0.00    +0.059 S 
ATOM     12  O   UNL     1       1.072   2.329  -0.105  0.00  0.00    -0.153 OA
ATOM     13  O   UNL     1      -0.951   1.195  -1.014  0.00  0.00    -0.153 OA
BRANCH  11  14
ATOM     14  N   UNL     1       0.675  -0.066   0.353  0.00  0.00    -0.187 NA
ATOM     15  H   UNL     1       1.640  -0.156   0.405  0.00  0.00    +0.148 HD
BRANCH  14  16
ATOM     16  C   UNL     1      -0.182  -1.235   0.567  0.00  0.00    +0.070 C 
ATOM     17  C   UNL     1      -0.330  -2.006  -0.746  0.00  0.00    +0.025 C 
ATOM     18  C   UNL     1       0.450  -2.143   1.624  0.00  0.00    +0.025 C 
ENDBRANCH  14  16
ENDBRANCH  11  14
ENDBRANCH   8  11
ENDBRANCH   3   5
BRANCH   1  19
ATOM     19  C   UNL     1      -3.502   4.577   6.713  0.00  0.00    +0.259 C 
ATOM     20  C   UNL     1      -3.085   3.598   7.813  0.00  0.00    +0.062 C 
BRANCH  19  21
ATOM     21  O   UNL     1      -3.131   5.926   7.101  0.00  0.00    -0.449 OA
BRANCH  21  22
ATOM     22  C   UNL     1      -4.044   6.636   7.795  0.00  0.00    +0.343 C 
ATOM     23  O   UNL     1      -5.119   6.140   8.068  0.00  0.00    -0.245 OA
BRANCH  22  28
ATOM     24  C   UNL     1      -2.841  12.011   9.460  0.00  0.00    +0.044 C 
ATOM     25  C   UNL     1      -3.159  10.604   9.026  0.00  0.00    -0.047 A 
ATOM     26  C   UNL     1      -2.221   9.874   8.313  0.00  0.00    +0.004 A 
ATOM     27  C   UNL     1      -2.502   8.587   7.910  0.00  0.00    +0.019 A 
ATOM     28  C   UNL     1      -3.737   8.012   8.222  0.00  0.00    +0.100 A 
ATOM     29  C   UNL     1      -4.685   8.756   8.939  0.00  0.00    +0.131 A 
ATOM     30  C   UNL     1      -4.383  10.049   9.341  0.00  0.00    +0.049 A 
BRANCH  29  31
ATOM     31  O   UNL     1      -5.890   8.212   9.243  0.00  0.00    -0.506 OA
ATOM     32  H   UNL     1      -5.908   7.745  10.089  0.00  0.00    +0.292 HD
ENDBRANCH  29  31
ENDBRANCH  22  28
ENDBRANCH  21  22
ENDBRANCH  19  21
ENDBRANCH   1  19
TORSDOF 9
