REMARK  Name = ZINC64006689
REMARK  9 active torsions:
REMARK  status: ('A' for Active; 'I' for Inactive)
REMARK    1  A    between atoms: C_1  and  C_2
REMARK    2  A    between atoms: C_2  and  N_3
REMARK    3  A    between atoms: C_7  and  C_11
REMARK    4  A    between atoms: C_12  and  C_14
REMARK    5  A    between atoms: C_14  and  C_15
REMARK    6  A    between atoms: C_15  and  C_16
REMARK    7  A    between atoms: C_20  and  C_23
REMARK    8  A    between atoms: C_23  and  C_24
REMARK    9  A    between atoms: C_24  and  C_25
REMARK                            x       y       z     vdW  Elec       q    Type
REMARK                         _______ _______ _______ _____ _____    ______ ____
ROOT
ATOM      1  C   UNL     1       5.792  -4.608   4.220  0.00  0.00    +0.202 C 
ATOM      2  N   UNL     1       6.179  -5.789   5.035  0.00  0.00    -0.227 NA
ATOM      3  N   UNL     1       7.301  -6.349   4.263  0.00  0.00    -0.227 NA
ATOM      4  C   UNL     1       6.908  -6.115   2.855  0.00  0.00    +0.202 C 
ATOM      5  O   UNL     1       5.963  -5.032   2.856  0.00  0.00    -0.342 OA
ATOM      6  H   UNL     1       5.419  -6.450   5.099  0.00  0.00    +0.143 HD
ATOM      7  H   UNL     1       7.412  -7.335   4.449  0.00  0.00    +0.143 HD
ENDROOT
BRANCH   1   8
ATOM      8  C   UNL     1       4.332  -4.234   4.483  0.00  0.00    +0.058 C 
BRANCH   8   9
ATOM      9  C   UNL     1       3.980  -2.968   3.699  0.00  0.00    +0.100 C 
BRANCH   9  18
ATOM     10  N   UNL     1       0.711  -0.489   1.189  0.00  0.00    -0.299 N 
ATOM     11  C   UNL     1       2.150  -0.690   1.084  0.00  0.00    +0.126 C 
ATOM     12  C   UNL     1       2.804  -0.662   2.467  0.00  0.00    +0.127 C 
ATOM     13  N   UNL     1       2.008  -1.512   3.369  0.00  0.00    -0.289 N 
ATOM     14  C   UNL     1       0.609  -1.125   3.600  0.00  0.00    +0.159 C 
ATOM     15  C   UNL     1      -0.006  -0.712   2.291  0.00  0.00    +0.236 C 
ATOM     16  O   UNL     1      -1.211  -0.580   2.235  0.00  0.00    -0.274 OA
ATOM     17  C   UNL     1       0.557   0.048   4.581  0.00  0.00    +0.038 C 
ATOM     18  C   UNL     1       2.542  -2.600   3.958  0.00  0.00    +0.216 C 
ATOM     19  O   UNL     1       1.865  -3.283   4.696  0.00  0.00    -0.276 OA
BRANCH  10  21
ATOM     20  C   UNL     1      -0.019   1.526   0.010  0.00  0.00    +0.024 C 
ATOM     21  C   UNL     1       0.002  -0.004   0.002  0.00  0.00    +0.104 C 
ENDBRANCH  10  21
ENDBRANCH   9  18
ENDBRANCH   8   9
ENDBRANCH   1   8
BRANCH   4  22
ATOM     22  C   UNL     1       8.137  -5.737   2.026  0.00  0.00    +0.053 C 
BRANCH  22  23
ATOM     23  C   UNL     1       7.742  -5.620   0.552  0.00  0.00    +0.037 C 
BRANCH  23  24
ATOM     24  C   UNL     1       8.953  -5.248  -0.264  0.00  0.00    -0.041 C 
ATOM     25  C   UNL     1       9.775  -6.091  -0.930  0.00  0.00    -0.001 A 
ATOM     26  C   UNL     1       9.788  -7.550  -1.087  0.00  0.00    +0.010 A 
ATOM     27  C   UNL     1      10.762  -8.121  -1.832  0.00  0.00    +0.001 A 
ATOM     28  C   UNL     1      11.757  -7.356  -2.456  0.00  0.00    +0.002 A 
ATOM     29  C   UNL     1      11.811  -6.010  -2.358  0.00  0.00    +0.026 A 
ATOM     30  C   UNL     1      10.836  -5.305  -1.600  0.00  0.00    +0.043 A 
ATOM     31  N   UNL     1      10.677  -4.027  -1.357  0.00  0.00    -0.380 N 
ATOM     32  C   UNL     1       9.491  -3.856  -0.510  0.00  0.00    +0.144 C 
ATOM     33  H   UNL     1      11.245  -3.313  -1.686  0.00  0.00    +0.160 HD
ENDBRANCH  23  24
ENDBRANCH  22  23
ENDBRANCH   4  22
TORSDOF 7
