REMARK  Name = ZINC13129560
REMARK  11 active torsions:
REMARK  status: ('A' for Active; 'I' for Inactive)
REMARK    1  A    between atoms: C_1  and  C_2
REMARK    2  A    between atoms: C_2  and  C_4
REMARK    3  A    between atoms: C_2  and  O_16
REMARK    4  A    between atoms: N_6  and  C_7
REMARK    5  A    between atoms: C_11  and  N_13
REMARK    6  A    between atoms: O_16  and  C_17
REMARK    7  A    between atoms: C_17  and  C_19
REMARK    8  A    between atoms: C_30  and  C_34
REMARK    9  A    between atoms: C_34  and  C_35
REMARK   10  A    between atoms: C_34  and  C_36
REMARK   11  A    between atoms: C_34  and  C_37
REMARK                            x       y       z     vdW  Elec       q    Type
REMARK                         _______ _______ _______ _____ _____    ______ ____
ROOT
ATOM      1  C   UNL     1       2.593   9.178  -0.301  0.00  0.00    +0.341 C 
ATOM      2  O   UNL     1       1.638   9.807  -0.711  0.00  0.00    -0.245 OA
ENDROOT
BRANCH   1   3
ATOM      3  C   UNL     1       3.948   9.764  -0.367  0.00  0.00    +0.073 A 
ATOM      4  C   UNL     1       4.458  10.535   0.705  0.00  0.00    +0.015 A 
ATOM      5  C   UNL     1       3.705  10.776   1.861  0.00  0.00    +0.011 A 
ATOM      6  C   UNL     1       4.237  11.523   2.869  0.00  0.00    +0.001 A 
ATOM      7  C   UNL     1       5.522  12.052   2.763  0.00  0.00    +0.002 A 
ATOM      8  C   UNL     1       6.281  11.837   1.654  0.00  0.00    +0.028 A 
ATOM      9  C   UNL     1       5.765  11.072   0.593  0.00  0.00    +0.072 A 
ATOM     10  N   UNL     1       6.480  10.848  -0.508  0.00  0.00    -0.251 NA
ATOM     11  C   UNL     1       6.025  10.138  -1.522  0.00  0.00    +0.046 A 
ATOM     12  C   UNL     1       4.759   9.568  -1.484  0.00  0.00    -0.011 A 
ATOM     13  C   UNL     1       4.208   8.732  -2.609  0.00  0.00    +0.042 C 
ATOM     14  C   UNL     1       5.002   8.969  -3.892  0.00  0.00    -0.001 C 
ATOM     15  C   UNL     1       6.492   8.797  -3.577  0.00  0.00    +0.010 C 
ATOM     16  C   UNL     1       6.937   9.980  -2.714  0.00  0.00    +0.056 C 
BRANCH  14  17
ATOM     17  C   UNL     1       4.579   7.952  -4.955  0.00  0.00    -0.035 C 
ATOM     18  C   UNL     1       3.086   8.109  -5.246  0.00  0.00    +0.011 C 
ATOM     19  C   UNL     1       5.377   8.194  -6.237  0.00  0.00    +0.011 C 
ATOM     20  C   UNL     1       4.853   6.536  -4.443  0.00  0.00    +0.011 C 
ENDBRANCH  14  17
ENDBRANCH   1   3
BRANCH   1  21
ATOM     21  O   UNL     1       2.417   7.945   0.213  0.00  0.00    -0.449 OA
BRANCH  21  23
ATOM     22  C   UNL     1       0.397   7.826   1.568  0.00  0.00    +0.062 C 
ATOM     23  C   UNL     1       1.059   7.433   0.246  0.00  0.00    +0.259 C 
BRANCH  23  24
ATOM     24  C   UNL     1       1.085   5.931   0.124  0.00  0.00    +0.258 C 
ATOM     25  O   UNL     1       2.146   5.342   0.112  0.00  0.00    -0.271 OA
ATOM     26  N   UNL     1      -0.069   5.242   0.030  0.00  0.00    -0.282 N 
ATOM     27  H   UNL     1      -0.913   5.715  -0.037  0.00  0.00    +0.155 HD
BRANCH  26  28
ATOM     28  C   UNL     1      -0.051   3.842   0.029  0.00  0.00    +0.036 A 
ATOM     29  C   UNL     1       0.907   3.158   0.766  0.00  0.00    +0.023 A 
ATOM     30  C   UNL     1       0.923   1.778   0.762  0.00  0.00    +0.004 A 
ATOM     31  C   UNL     1      -0.014   1.076   0.025  0.00  0.00    +0.033 A 
ATOM     32  C   UNL     1      -0.965   1.754  -0.714  0.00  0.00    +0.128 A 
ATOM     33  C   UNL     1      -0.989   3.135  -0.710  0.00  0.00    +0.056 A 
BRANCH  32  34
ATOM     34  N   UNL     1      -1.962   0.999  -1.506  0.00  0.00    +0.056 N 
ATOM     35  O   UNL     1      -1.944  -0.219  -1.506  0.00  0.00    -0.126 OA
ATOM     36  O   UNL     1      -2.800   1.595  -2.157  0.00  0.00    -0.126 OA
ENDBRANCH  32  34
ENDBRANCH  26  28
ENDBRANCH  23  24
ENDBRANCH  21  23
ENDBRANCH   1  21
TORSDOF 7
