REMARK  Name = ZINC66753611
REMARK  12 active torsions:
REMARK  status: ('A' for Active; 'I' for Inactive)
REMARK    1  A    between atoms: C_1  and  C_2
REMARK    2  A    between atoms: C_2  and  C_4
REMARK    3  A    between atoms: C_2  and  N_16
REMARK    4  A    between atoms: C_8  and  S_10
REMARK    5  A    between atoms: S_10  and  N_13
REMARK    6  A    between atoms: N_13  and  C_14
REMARK    7  A    between atoms: N_13  and  C_15
REMARK    8  A    between atoms: C_17  and  C_19
REMARK    9  A    between atoms: C_19  and  C_21
REMARK   10  A    between atoms: C_19  and  O_22
REMARK   11  A    between atoms: O_22  and  C_23
REMARK   12  A    between atoms: C_23  and  C_24
REMARK                            x       y       z     vdW  Elec       q    Type
REMARK                         _______ _______ _______ _____ _____    ______ ____
ROOT
ATOM      1  C   UNL     1      -0.019   1.526   0.010  0.00  0.00    +0.033 C 
ATOM      2  C   UNL     1       0.002  -0.004   0.002  0.00  0.00    +0.100 C 
ENDROOT
BRANCH   2   3
ATOM      3  C   UNL     1      -1.412  -0.526   0.013  0.00  0.00    -0.026 A 
ATOM      4  C   UNL     1      -2.142  -0.569  -1.161  0.00  0.00    +0.005 A 
ATOM      5  C   UNL     1      -3.438  -1.047  -1.151  0.00  0.00    +0.002 A 
ATOM      6  C   UNL     1      -4.005  -1.483   0.032  0.00  0.00    +0.028 A 
ATOM      7  C   UNL     1      -3.275  -1.441   1.205  0.00  0.00    +0.106 A 
ATOM      8  C   UNL     1      -1.977  -0.966   1.195  0.00  0.00    +0.034 A 
BRANCH   7   9
ATOM      9  S   UNL     1      -3.998  -1.996   2.713  0.00  0.00    +0.060 S 
ATOM     10  O   UNL     1      -3.297  -1.344   3.764  0.00  0.00    -0.153 OA
ATOM     11  O   UNL     1      -5.406  -1.885   2.554  0.00  0.00    -0.153 OA
BRANCH   9  12
ATOM     12  N   UNL     1      -3.663  -3.611   2.851  0.00  0.00    -0.183 NA
ATOM     13  C   UNL     1      -2.441  -4.051   3.529  0.00  0.00    +0.131 C 
ATOM     14  C   UNL     1      -4.589  -4.602   2.296  0.00  0.00    +0.131 C 
ENDBRANCH   9  12
ENDBRANCH   7   9
ENDBRANCH   2   3
BRANCH   2  15
ATOM     15  N   UNL     1       0.688  -0.476  -1.203  0.00  0.00    -0.307 N 
ATOM     16  C   UNL     1       2.031  -0.587  -1.215  0.00  0.00    +0.242 C 
ATOM     17  O   UNL     1       2.672  -0.295  -0.228  0.00  0.00    -0.273 OA
ATOM     18  H   UNL     1       0.175  -0.710  -1.993  0.00  0.00    +0.149 HD
BRANCH  16  19
ATOM     19  C   UNL     1       2.736  -1.073  -2.455  0.00  0.00    +0.201 C 
ATOM     20  C   UNL     1       2.341  -2.525  -2.731  0.00  0.00    +0.048 C 
BRANCH  19  21
ATOM     21  O   UNL     1       4.150  -0.993  -2.261  0.00  0.00    -0.365 OA
BRANCH  21  22
ATOM     22  C   UNL     1       4.889  -0.762  -3.462  0.00  0.00    +0.192 C 
BRANCH  22  23
ATOM     23  C   UNL     1       6.383  -0.695  -3.136  0.00  0.00    +0.144 C 
ATOM     24  C   UNL     1       7.164  -0.325  -4.400  0.00  0.00    +0.034 C 
ATOM     25  C   UNL     1       8.662  -0.319  -4.080  0.00  0.00    +0.005 C 
ATOM     26  C   UNL     1       9.062  -1.692  -3.531  0.00  0.00    +0.028 C 
ATOM     27  C   UNL     1       8.207  -2.009  -2.301  0.00  0.00    +0.160 C 
ATOM     28  O   UNL     1       6.824  -1.968  -2.660  0.00  0.00    -0.374 OA
ENDBRANCH  22  23
ENDBRANCH  21  22
ENDBRANCH  19  21
ENDBRANCH  16  19
ENDBRANCH   2  15
TORSDOF 8
