REMARK  Name = ZINC57291911
REMARK  13 active torsions:
REMARK  status: ('A' for Active; 'I' for Inactive)
REMARK    1  A    between atoms: C_1  and  C_2
REMARK    2  A    between atoms: C_2  and  C_3
REMARK    3  A    between atoms: C_3  and  O_4
REMARK    4  A    between atoms: O_4  and  C_5
REMARK    5  A    between atoms: C_7  and  O_39
REMARK    6  A    between atoms: C_13  and  C_16
REMARK    7  A    between atoms: C_19  and  O_22
REMARK    8  A    between atoms: O_22  and  C_23
REMARK    9  A    between atoms: C_25  and  O_38
REMARK   10  A    between atoms: C_27  and  O_37
REMARK   11  A    between atoms: C_29  and  O_36
REMARK   12  A    between atoms: C_31  and  C_34
REMARK   13  A    between atoms: C_34  and  O_35
REMARK                            x       y       z     vdW  Elec       q    Type
REMARK                         _______ _______ _______ _____ _____    ______ ____
ROOT
ATOM      1  C   UNL     1      -7.502  -6.822  -0.600  0.00  0.00    -0.011 A 
ATOM      2  C   UNL     1      -8.226  -6.546  -1.759  0.00  0.00    +0.012 A 
ATOM      3  C   UNL     1      -9.364  -7.270  -2.048  0.00  0.00    +0.046 A 
ATOM      4  C   UNL     1      -9.788  -8.273  -1.187  0.00  0.00    +0.124 A 
ATOM      5  C   UNL     1      -9.069  -8.550  -0.032  0.00  0.00    +0.046 A 
ATOM      6  C   UNL     1      -7.927  -7.833   0.260  0.00  0.00    +0.012 A 
ENDROOT
BRANCH   1  15
ATOM      7  C   UNL     1      -2.615  -2.595   0.013  0.00  0.00    +0.127 A 
ATOM      8  C   UNL     1      -3.787  -1.846   0.022  0.00  0.00    +0.092 A 
ATOM      9  C   UNL     1      -5.015  -2.480   0.027  0.00  0.00    +0.135 A 
ATOM     10  C   UNL     1      -5.067  -3.880   0.020  0.00  0.00    +0.106 A 
ATOM     11  C   UNL     1      -3.882  -4.637   0.018  0.00  0.00    +0.145 A 
ATOM     12  C   UNL     1      -2.659  -3.980   0.006  0.00  0.00    +0.092 A 
ATOM     13  O   UNL     1      -3.936  -5.984   0.029  0.00  0.00    -0.462 OA
ATOM     14  C   UNL     1      -5.059  -6.644  -0.263  0.00  0.00    +0.208 A 
ATOM     15  C   UNL     1      -6.278  -6.046  -0.286  0.00  0.00    +0.064 A 
ATOM     16  C   UNL     1      -6.350  -4.601   0.009  0.00  0.00    +0.204 A 
ATOM     17  O   UNL     1      -7.410  -4.039   0.231  0.00  0.00    -0.286 OA
BRANCH   9  18
ATOM     18  O   UNL     1      -6.161  -1.753   0.040  0.00  0.00    -0.506 OA
ATOM     19  H   UNL     1      -6.499  -1.537  -0.840  0.00  0.00    +0.292 HD
ENDBRANCH   9  18
BRANCH   7  20
ATOM     20  O   UNL     1      -1.414  -1.962   0.005  0.00  0.00    -0.492 OA
BRANCH  20  21
ATOM     21  C   UNL     1      -1.433  -0.534   0.013  0.00  0.00    +0.229 C 
BRANCH  21  23
ATOM     22  C   UNL     1      -0.019   1.526   0.010  0.00  0.00    +0.007 C 
ATOM     23  C   UNL     1       0.002  -0.004   0.002  0.00  0.00    +0.038 C 
ENDBRANCH  21  23
ENDBRANCH  20  21
ENDBRANCH   7  20
ENDBRANCH   1  15
BRANCH   4  24
ATOM     24  O   UNL     1     -10.909  -8.984  -1.475  0.00  0.00    -0.461 OA
BRANCH  24  25
ATOM     25  C   UNL     1     -11.289 -10.002  -0.546  0.00  0.00    +0.339 C 
ATOM     26  C   UNL     1     -12.630 -10.605  -0.969  0.00  0.00    +0.214 C 
ATOM     27  C   UNL     1     -13.000 -11.735  -0.003  0.00  0.00    +0.180 C 
ATOM     28  C   UNL     1     -11.873 -12.773   0.007  0.00  0.00    +0.177 C 
ATOM     29  C   UNL     1     -10.561 -12.085   0.393  0.00  0.00    +0.179 C 
ATOM     30  O   UNL     1     -10.292 -11.025  -0.527  0.00  0.00    -0.331 OA
BRANCH  28  31
ATOM     31  O   UNL     1     -12.175 -13.796   0.958  0.00  0.00    -0.386 OA
ATOM     32  H   UNL     1     -12.998 -14.271   0.777  0.00  0.00    +0.210 HD
ENDBRANCH  28  31
BRANCH  27  33
ATOM     33  O   UNL     1     -14.216 -12.352  -0.431  0.00  0.00    -0.386 OA
ATOM     34  H   UNL     1     -14.971 -11.749  -0.467  0.00  0.00    +0.210 HD
ENDBRANCH  27  33
BRANCH  26  35
ATOM     35  O   UNL     1     -13.641  -9.595  -0.933  0.00  0.00    -0.383 OA
ATOM     36  H   UNL     1     -13.468  -8.846  -1.519  0.00  0.00    +0.210 HD
ENDBRANCH  26  35
BRANCH  29  37
ATOM     37  C   UNL     1      -9.419 -13.103   0.347  0.00  0.00    +0.190 C 
BRANCH  37  38
ATOM     38  O   UNL     1      -8.217 -12.492   0.818  0.00  0.00    -0.392 OA
ATOM     39  H   UNL     1      -7.450 -13.080   0.817  0.00  0.00    +0.210 HD
ENDBRANCH  37  38
ENDBRANCH  29  37
ENDBRANCH  24  25
ENDBRANCH   4  24
TORSDOF 12
