REMARK  Name = ZINC28066427
REMARK  5 active torsions:
REMARK  status: ('A' for Active; 'I' for Inactive)
REMARK    1  A    between atoms: C_1  and  C_2
REMARK    2  A    between atoms: C_9  and  S_12
REMARK    3  A    between atoms: S_12  and  C_13
REMARK    4  A    between atoms: C_13  and  C_14
REMARK    5  A    between atoms: N_19  and  C_20
REMARK                            x       y       z     vdW  Elec       q    Type
REMARK                         _______ _______ _______ _____ _____    ______ ____
ROOT
ATOM      1  C   UNL     1      -0.001  -0.004  -0.000  0.00  0.00    +0.231 C 
ATOM      2  O   UNL     1      -0.502  -0.622   0.915  0.00  0.00    -0.274 OA
ATOM      3  N   UNL     1       0.580  -0.664  -1.021  0.00  0.00    -0.239 N 
ATOM      4  C   UNL     1       0.605  -2.012  -1.025  0.00  0.00    +0.310 C 
ATOM      5  O   UNL     1       0.103  -2.631  -0.107  0.00  0.00    -0.252 OA
ATOM      6  N   UNL     1       1.186  -2.673  -2.045  0.00  0.00    -0.269 N 
ATOM      7  H   UNL     1       1.034  -0.104  -1.851  0.00  0.00    +0.159 HD
ATOM      8  H   UNL     1       1.573  -2.116  -2.912  0.00  0.00    +0.156 HD
ENDROOT
BRANCH   6   9
ATOM      9  C   UNL     1       1.298  -4.069  -2.003  0.00  0.00    +0.038 A 
ATOM     10  C   UNL     1       2.410  -4.692  -2.553  0.00  0.00    +0.027 A 
ATOM     11  C   UNL     1       2.527  -6.069  -2.509  0.00  0.00    +0.051 A 
ATOM     12  C   UNL     1       1.527  -6.826  -1.923  0.00  0.00    +0.162 A 
ATOM     13  C   UNL     1       0.412  -6.206  -1.377  0.00  0.00    +0.164 A 
ATOM     14  C   UNL     1       0.294  -4.828  -1.416  0.00  0.00    +0.072 A 
ATOM     15  O   UNL     1      -0.567  -6.964  -0.802  0.00  0.00    -0.488 OA
ATOM     16  C   UNL     1      -1.328  -7.783  -1.692  0.00  0.00    +0.232 C 
ATOM     17  C   UNL     1      -0.617  -9.101  -1.953  0.00  0.00    +0.082 C 
ATOM     18  C   UNL     1       0.702  -8.912  -2.686  0.00  0.00    +0.232 C 
ATOM     19  O   UNL     1       1.631  -8.187  -1.878  0.00  0.00    -0.488 OA
ENDBRANCH   6   9
BRANCH   1  20
ATOM     20  C   UNL     1      -0.029   1.503   0.004  0.00  0.00    +0.173 C 
BRANCH  20  21
ATOM     21  S   UNL     1      -0.872   2.087   1.495  0.00  0.00    -0.079 S 
BRANCH  21  30
ATOM     22  C   UNL     1       0.341   9.273  -0.896  0.00  0.00    +0.044 C 
ATOM     23  C   UNL     1      -0.117   8.119  -0.042  0.00  0.00    -0.048 A 
ATOM     24  C   UNL     1      -0.785   8.366   1.148  0.00  0.00    +0.005 A 
ATOM     25  C   UNL     1      -1.210   7.320   1.941  0.00  0.00    +0.028 A 
ATOM     26  C   UNL     1      -0.968   6.013   1.547  0.00  0.00    +0.067 A 
ATOM     27  C   UNL     1      -0.291   5.757   0.343  0.00  0.00    +0.090 A 
ATOM     28  C   UNL     1       0.133   6.827  -0.448  0.00  0.00    +0.033 A 
ATOM     29  N   UNL     1      -0.193   4.407   0.219  0.00  0.00    -0.222 NA
ATOM     30  C   UNL     1      -0.763   3.828   1.246  0.00  0.00    +0.168 A 
ATOM     31  N   UNL     1      -1.255   4.775   2.099  0.00  0.00    -0.333 N 
ATOM     32  H   UNL     1      -1.790   4.711   3.058  0.00  0.00    +0.168 HD
ENDBRANCH  21  30
ENDBRANCH  20  21
ENDBRANCH   1  20
TORSDOF 4
