REMARK  Name = ZINC09324754
REMARK  5 active torsions:
REMARK  status: ('A' for Active; 'I' for Inactive)
REMARK    1  A    between atoms: C_6  and  N_7
REMARK    2  A    between atoms: C_14  and  S_16
REMARK    3  A    between atoms: S_16  and  C_17
REMARK    4  A    between atoms: C_17  and  C_18
REMARK    5  A    between atoms: C_18  and  C_19
REMARK                            x       y       z     vdW  Elec       q    Type
REMARK                         _______ _______ _______ _____ _____    ______ ____
ROOT
ATOM      1  N   UNL     1      12.921   1.634   2.883  0.00  0.00    -0.269 N 
ATOM      2  C   UNL     1      11.605   1.419   2.689  0.00  0.00    +0.310 C 
ATOM      3  O   UNL     1      11.059   1.854   1.693  0.00  0.00    -0.252 OA
ATOM      4  N   UNL     1      10.894   0.722   3.597  0.00  0.00    -0.247 N 
ATOM      5  C   UNL     1       9.534   0.501   3.396  0.00  0.00    +0.190 A 
ATOM      6  N   UNL     1       8.764   0.883   2.397  0.00  0.00    -0.125 NA
ATOM      7  N   UNL     1       7.428   0.553   2.395  0.00  0.00    -0.133 NA
ATOM      8  C   UNL     1       6.924  -0.146   3.395  0.00  0.00    +0.160 A 
ATOM      9  S   UNL     1       8.365  -0.372   4.427  0.00  0.00    -0.024 S 
ATOM     10  H   UNL     1      13.343   1.346   3.708  0.00  0.00    +0.156 HD
ATOM     11  H   UNL     1      11.330   0.375   4.391  0.00  0.00    +0.158 HD
ENDROOT
BRANCH   1  17
ATOM     12  C   UNL     1      15.002   1.904   1.686  0.00  0.00    +0.025 A 
ATOM     13  C   UNL     1      15.747   2.532   0.708  0.00  0.00    +0.023 A 
ATOM     14  C   UNL     1      15.181   3.536  -0.057  0.00  0.00    +0.059 A 
ATOM     15  C   UNL     1      13.864   3.911   0.152  0.00  0.00    +0.061 A 
ATOM     16  C   UNL     1      13.113   3.281   1.127  0.00  0.00    +0.044 A 
ATOM     17  C   UNL     1      13.680   2.273   1.895  0.00  0.00    +0.036 A 
ATOM     18 CL   UNL     1      13.156   5.171  -0.809  0.00  0.00    -0.082 Cl
ATOM     19 CL   UNL     1      16.123   4.329  -1.282  0.00  0.00    -0.082 Cl
ENDBRANCH   1  17
BRANCH   8  20
ATOM     20  S   UNL     1       5.271  -0.701   3.648  0.00  0.00    -0.097 S 
BRANCH  20  21
ATOM     21  C   UNL     1       4.376  -0.089   2.194  0.00  0.00    +0.081 C 
BRANCH  21  22
ATOM     22  C   UNL     1       2.907  -0.507   2.287  0.00  0.00    +0.072 C 
BRANCH  22  23
ATOM     23  C   UNL     1       2.151   0.009   1.060  0.00  0.00    +0.251 C 
ATOM     24  O   UNL     1       0.808  -0.479   1.088  0.00  0.00    -0.351 OA
ATOM     25  C   UNL     1       0.007  -0.027  -0.009  0.00  0.00    +0.165 C 
ATOM     26  C   UNL     1      -0.014   1.505  -0.012  0.00  0.00    +0.056 C 
ATOM     27  C   UNL     1       1.430   2.020  -0.024  0.00  0.00    +0.165 C 
ATOM     28  O   UNL     1       2.140   1.438   1.074  0.00  0.00    -0.351 OA
ENDBRANCH  22  23
ENDBRANCH  21  22
ENDBRANCH  20  21
ENDBRANCH   8  20
TORSDOF 5
