REMARK  Name = ZINC13555766
REMARK  13 active torsions:
REMARK  status: ('A' for Active; 'I' for Inactive)
REMARK    1  A    between atoms: C_1  and  C_2
REMARK    2  A    between atoms: C_3  and  C_10
REMARK    3  A    between atoms: C_4  and  C_8
REMARK    4  A    between atoms: C_4  and  C_9
REMARK    5  A    between atoms: C_10  and  C_11
REMARK    6  A    between atoms: C_11  and  C_12
REMARK    7  A    between atoms: C_12  and  C_33
REMARK    8  A    between atoms: C_13  and  C_14
REMARK    9  A    between atoms: C_14  and  C_15
REMARK   10  A    between atoms: C_15  and  C_16
REMARK   11  A    between atoms: C_19  and  C_25
REMARK   12  A    between atoms: C_22  and  O_24
REMARK   13  A    between atoms: C_30  and  O_32
REMARK                            x       y       z     vdW  Elec       q    Type
REMARK                         _______ _______ _______ _____ _____    ______ ____
ROOT
ATOM      1  C   UNL     1       1.119   3.249  -1.546  0.00  0.00    +0.039 C 
ENDROOT
BRANCH   1   2
ATOM      2  C   UNL     1       1.684   2.467  -0.388  0.00  0.00    -0.018 C 
ATOM      3  C   UNL     1       1.808   3.064   0.757  0.00  0.00    -0.020 C 
ATOM      4  C   UNL     1       2.367   2.374   1.970  0.00  0.00    +0.063 C 
ATOM      5  C   UNL     1       2.350   0.858   1.752  0.00  0.00    +0.158 C 
ATOM      6  O   UNL     1       2.905   0.581   0.461  0.00  0.00    -0.340 OA
ATOM      7  C   UNL     1       2.078   1.035  -0.612  0.00  0.00    +0.275 C 
BRANCH   5   8
ATOM      8  C   UNL     1       3.177   0.183   2.816  0.00  0.00    +0.033 C 
ATOM      9  C   UNL     1       2.736  -0.662   3.744  0.00  0.00    +0.099 C 
ATOM     10  C   UNL     1       3.856  -1.094   4.585  0.00  0.00    +0.335 C 
ATOM     11  O   UNL     1       3.770  -1.866   5.520  0.00  0.00    -0.246 OA
ATOM     12  O   UNL     1       4.995  -0.508   4.169  0.00  0.00    -0.428 OA
ATOM     13  C   UNL     1       4.665   0.332   3.028  0.00  0.00    +0.339 C 
BRANCH  13  14
ATOM     14  O   UNL     1       4.987   1.695   3.314  0.00  0.00    -0.354 OA
ATOM     15  H   UNL     1       5.930   1.853   3.460  0.00  0.00    +0.214 HD
ENDBRANCH  13  14
ENDBRANCH   5   8
BRANCH   7  16
ATOM     16  O   UNL     1       0.902   0.225  -0.679  0.00  0.00    -0.364 OA
ATOM     17  H   UNL     1       1.079  -0.714  -0.827  0.00  0.00    +0.213 HD
ENDBRANCH   7  16
ENDBRANCH   1   2
BRANCH   1  18
ATOM     18  C   UNL     1       2.266   3.833  -2.374  0.00  0.00    +0.031 C 
BRANCH  18  20
ATOM     19  C   UNL     1       2.048   5.866  -3.709  0.00  0.00    -0.076 C 
ATOM     20  C   UNL     1       1.701   4.615  -3.532  0.00  0.00    -0.028 C 
ATOM     21  C   UNL     1       3.100   6.488  -2.828  0.00  0.00    +0.039 C 
BRANCH  19  22
ATOM     22  C   UNL     1       1.394   6.683  -4.794  0.00  0.00    +0.034 C 
BRANCH  22  23
ATOM     23  C   UNL     1       0.224   7.472  -4.204  0.00  0.00    +0.035 C 
BRANCH  23  26
ATOM     24  C   UNL     1      -1.936   6.424  -5.455  0.00  0.00    +0.039 C 
ATOM     25  C   UNL     1      -1.459   7.785  -5.890  0.00  0.00    -0.073 C 
ATOM     26  C   UNL     1      -0.429   8.289  -5.289  0.00  0.00    -0.065 C 
ATOM     27  C   UNL     1       0.151   9.637  -5.600  0.00  0.00    -0.014 C 
ATOM     28  C   UNL     1      -0.344  10.118  -6.968  0.00  0.00    +0.011 C 
ATOM     29  C   UNL     1      -1.870   9.966  -7.009  0.00  0.00    +0.005 C 
ATOM     30  C   UNL     1      -2.208   8.474  -6.994  0.00  0.00    +0.030 C 
ATOM     31  C   UNL     1      -0.276  10.634  -4.522  0.00  0.00    +0.015 C 
ATOM     32  C   UNL     1       1.677   9.539  -5.622  0.00  0.00    +0.015 C 
ENDBRANCH  23  26
ENDBRANCH  22  23
ENDBRANCH  19  22
ENDBRANCH  18  20
ENDBRANCH   1  18
TORSDOF 9
