REMARK  Name = ZINC59461675
REMARK  6 active torsions:
REMARK  status: ('A' for Active; 'I' for Inactive)
REMARK    1  A    between atoms: C_4  and  C_7
REMARK    2  A    between atoms: C_10  and  N_13
REMARK    3  A    between atoms: N_13  and  N_14
REMARK    4  A    between atoms: C_16  and  C_27
REMARK    5  A    between atoms: N_18  and  C_21
REMARK    6  A    between atoms: C_30  and  N_33
REMARK                            x       y       z     vdW  Elec       q    Type
REMARK                         _______ _______ _______ _____ _____    ______ ____
ROOT
ATOM      1  N   UNL     1       7.357  -4.003  -0.100  0.00  0.00    -0.175 NA
ATOM      2  C   UNL     1       8.510  -4.644  -0.115  0.00  0.00    +0.173 C 
ATOM      3  C   UNL     1       8.728  -6.106  -0.137  0.00  0.00    +0.122 C 
ATOM      4  N   UNL     1      10.019  -6.307  -0.147  0.00  0.00    -0.170 NA
ATOM      5  N   UNL     1      10.719  -5.102  -0.134  0.00  0.00    -0.155 N 
ATOM      6  C   UNL     1       9.862  -4.062  -0.121  0.00  0.00    +0.292 C 
ATOM      7  O   UNL     1      10.148  -2.877  -0.113  0.00  0.00    -0.266 OA
ENDROOT
BRANCH   5   8
ATOM      8  C   UNL     1      12.114  -4.987  -0.139  0.00  0.00    +0.060 A 
ATOM      9  C   UNL     1      12.710  -3.733  -0.118  0.00  0.00    +0.025 A 
ATOM     10  C   UNL     1      14.087  -3.624  -0.123  0.00  0.00    +0.002 A 
ATOM     11  C   UNL     1      14.872  -4.762  -0.149  0.00  0.00    +0.000 A 
ATOM     12  C   UNL     1      14.282  -6.012  -0.170  0.00  0.00    +0.002 A 
ATOM     13  C   UNL     1      12.906  -6.128  -0.159  0.00  0.00    +0.025 A 
ENDBRANCH   5   8
BRANCH   3  14
ATOM     14  C   UNL     1       7.677  -7.150  -0.145  0.00  0.00    +0.004 A 
ATOM     15  C   UNL     1       6.330  -6.788  -0.138  0.00  0.00    +0.012 A 
ATOM     16  C   UNL     1       5.356  -7.765  -0.146  0.00  0.00    +0.033 A 
ATOM     17  C   UNL     1       5.713  -9.102  -0.161  0.00  0.00    +0.126 A 
ATOM     18  C   UNL     1       7.047  -9.467  -0.169  0.00  0.00    +0.033 A 
ATOM     19  C   UNL     1       8.030  -8.499  -0.166  0.00  0.00    +0.012 A 
BRANCH  17  20
ATOM     20  N   UNL     1       4.662 -10.145  -0.169  0.00  0.00    +0.056 N 
ATOM     21  O   UNL     1       3.496  -9.828  -0.163  0.00  0.00    -0.126 OA
ATOM     22  O   UNL     1       4.972 -11.313  -0.182  0.00  0.00    -0.126 OA
ENDBRANCH  17  20
ENDBRANCH   3  14
BRANCH   1  23
ATOM     23  N   UNL     1       7.337  -2.713  -0.087  0.00  0.00    -0.237 N 
ATOM     24  H   UNL     1       8.169  -2.215  -0.089  0.00  0.00    +0.174 HD
BRANCH  23  28
ATOM     25  C   UNL     1       3.698  -0.688  -0.038  0.00  0.00    -0.018 A 
ATOM     26  C   UNL     1       4.895   0.027  -0.041  0.00  0.00    +0.010 A 
ATOM     27  C   UNL     1       6.098  -0.645  -0.057  0.00  0.00    +0.025 A 
ATOM     28  C   UNL     1       6.119  -2.036  -0.071  0.00  0.00    +0.048 A 
ATOM     29  C   UNL     1       4.926  -2.751  -0.069  0.00  0.00    +0.025 A 
ATOM     30  C   UNL     1       3.721  -2.083  -0.046  0.00  0.00    +0.010 A 
BRANCH  25  34
ATOM     31  C   UNL     1      -0.017   1.379   0.010  0.00  0.00    +0.000 A 
ATOM     32  C   UNL     1       1.169   2.092   0.002  0.00  0.00    +0.001 A 
ATOM     33  C   UNL     1       2.377   1.426  -0.013  0.00  0.00    +0.008 A 
ATOM     34  C   UNL     1       2.402   0.033  -0.021  0.00  0.00    -0.018 A 
ATOM     35  C   UNL     1       1.205  -0.680  -0.013  0.00  0.00    +0.008 A 
ATOM     36  C   UNL     1       0.002  -0.004   0.002  0.00  0.00    +0.001 A 
ENDBRANCH  25  34
ENDBRANCH  23  28
ENDBRANCH   1  23
TORSDOF 6
