REMARK  Name = ZINC02727922
REMARK  6 active torsions:
REMARK  status: ('A' for Active; 'I' for Inactive)
REMARK    1  A    between atoms: C_1  and  N_2
REMARK    2  A    between atoms: C_5  and  C_22
REMARK    3  A    between atoms: N_7  and  N_10
REMARK    4  A    between atoms: N_10  and  C_11
REMARK    5  A    between atoms: C_22  and  C_23
REMARK    6  A    between atoms: N_25  and  C_26
REMARK                            x       y       z     vdW  Elec       q    Type
REMARK                         _______ _______ _______ _____ _____    ______ ____
ROOT
ATOM      1  C   UNL     1       3.620   1.307  -0.426  0.00  0.00    +0.140 C 
ATOM      2  N   UNL     1       2.164   1.161  -0.358  0.00  0.00    -0.254 N 
ATOM      3  C   UNL     1       1.529  -0.013  -0.174  0.00  0.00    +0.244 C 
ATOM      4  O   UNL     1       2.035  -1.107  -0.038  0.00  0.00    -0.273 OA
ATOM      5  C   UNL     1       0.050   0.317  -0.171  0.00  0.00    +0.191 C 
ATOM      6  N   UNL     1       0.021   1.776  -0.372  0.00  0.00    -0.221 N 
ATOM      7  C   UNL     1       1.301   2.177  -0.470  0.00  0.00    +0.159 C 
ATOM      8  S   UNL     1       1.774   3.804  -0.712  0.00  0.00    -0.017 S 
ENDROOT
BRANCH   6   9
ATOM      9  N   UNL     1      -1.119   2.588  -0.452  0.00  0.00    -0.257 N 
ATOM     10  H   UNL     1      -1.662   2.583  -1.256  0.00  0.00    +0.170 HD
BRANCH   9  11
ATOM     11  C   UNL     1      -1.473   3.407   0.628  0.00  0.00    +0.121 A 
ATOM     12  C   UNL     1      -0.904   3.195   1.878  0.00  0.00    +0.186 A 
ATOM     13  C   UNL     1      -1.251   4.009   2.943  0.00  0.00    +0.198 A 
ATOM     14  C   UNL     1      -2.174   5.028   2.766  0.00  0.00    +0.199 A 
ATOM     15  C   UNL     1      -2.747   5.238   1.522  0.00  0.00    +0.198 A 
ATOM     16  C   UNL     1      -2.397   4.429   0.452  0.00  0.00    +0.186 A 
ATOM     17  F   UNL     1      -2.956   4.634  -0.761  0.00  0.00    -0.200 F 
ATOM     18  F   UNL     1      -3.646   6.232   1.351  0.00  0.00    -0.199 F 
ATOM     19  F   UNL     1      -2.515   5.818   3.808  0.00  0.00    -0.199 F 
ATOM     20  F   UNL     1      -0.694   3.806   4.157  0.00  0.00    -0.199 F 
ATOM     21  F   UNL     1      -0.009   2.198   2.053  0.00  0.00    -0.200 F 
ENDBRANCH   9  11
ENDBRANCH   6   9
BRANCH   5  22
ATOM     22  C   UNL     1      -0.664  -0.399  -1.319  0.00  0.00    +0.129 C 
BRANCH  22  23
ATOM     23  C   UNL     1      -2.127  -0.037  -1.304  0.00  0.00    +0.220 C 
ATOM     24  O   UNL     1      -2.556   0.720  -0.459  0.00  0.00    -0.275 OA
ATOM     25  N   UNL     1      -2.959  -0.554  -2.230  0.00  0.00    -0.285 N 
ATOM     26  H   UNL     1      -2.604  -1.097  -2.951  0.00  0.00    +0.155 HD
BRANCH  25  27
ATOM     27  C   UNL     1      -4.334  -0.307  -2.152  0.00  0.00    +0.033 A 
ATOM     28  C   UNL     1      -4.949  -0.181  -0.913  0.00  0.00    +0.025 A 
ATOM     29  C   UNL     1      -6.305   0.068  -0.839  0.00  0.00    +0.022 A 
ATOM     30  C   UNL     1      -7.054   0.181  -1.997  0.00  0.00    +0.041 A 
ATOM     31  C   UNL     1      -6.445   0.051  -3.233  0.00  0.00    +0.022 A 
ATOM     32  C   UNL     1      -5.088  -0.193  -3.313  0.00  0.00    +0.025 A 
ATOM     33 CL   UNL     1      -8.760   0.487  -1.900  0.00  0.00    -0.084 Cl
ENDBRANCH  25  27
ENDBRANCH  22  23
ENDBRANCH   5  22
TORSDOF 5
