REMARK  Name = ZINC11756454
REMARK  10 active torsions:
REMARK  status: ('A' for Active; 'I' for Inactive)
REMARK    1  A    between atoms: C_1  and  C_2
REMARK    2  A    between atoms: C_2  and  C_3
REMARK    3  A    between atoms: C_3  and  C_4
REMARK    4  A    between atoms: C_4  and  C_5
REMARK    5  A    between atoms: C_5  and  C_6
REMARK    6  A    between atoms: C_6  and  N_7
REMARK    7  A    between atoms: C_11  and  O_21
REMARK    8  A    between atoms: C_12  and  O_19
REMARK    9  A    between atoms: O_19  and  C_20
REMARK   10  A    between atoms: O_21  and  C_22
REMARK                            x       y       z     vdW  Elec       q    Type
REMARK                         _______ _______ _______ _____ _____    ______ ____
ROOT
ATOM      1  N   UNL     1      -6.706   0.370   2.964  0.00  0.00    -0.328 N 
ATOM      2  C   UNL     1      -5.962  -0.015   1.867  0.00  0.00    +0.131 A 
ATOM      3  C   UNL     1      -4.617   0.400   1.720  0.00  0.00    +0.044 A 
ATOM      4  C   UNL     1      -3.984   1.211   2.670  0.00  0.00    +0.062 A 
ATOM      5  C   UNL     1      -2.682   1.579   2.485  0.00  0.00    +0.162 A 
ATOM      6  C   UNL     1      -1.974   1.163   1.348  0.00  0.00    +0.164 A 
ATOM      7  C   UNL     1      -2.574   0.366   0.399  0.00  0.00    +0.078 A 
ATOM      8  C   UNL     1      -3.907  -0.029   0.572  0.00  0.00    +0.081 A 
ATOM      9  N   UNL     1      -4.537  -0.806  -0.324  0.00  0.00    -0.217 NA
ATOM     10  C   UNL     1      -5.787  -1.160  -0.135  0.00  0.00    +0.225 A 
ATOM     11  N   UNL     1      -6.489  -0.783   0.923  0.00  0.00    -0.202 NA
ATOM     12 CL   UNL     1      -6.553  -2.166  -1.324  0.00  0.00    -0.041 Cl
ATOM     13  H   UNL     1      -6.308   0.932   3.646  0.00  0.00    +0.147 HD
ENDROOT
BRANCH   6  14
ATOM     14  O   UNL     1      -0.682   1.547   1.184  0.00  0.00    -0.491 OA
ATOM     15  C   UNL     1      -0.013   1.086   0.008  0.00  0.00    +0.277 C 
ENDBRANCH   6  14
BRANCH   5  16
ATOM     16  O   UNL     1      -2.066   2.362   3.411  0.00  0.00    -0.491 OA
ATOM     17  C   UNL     1      -2.840   2.753   4.547  0.00  0.00    +0.277 C 
ENDBRANCH   5  16
BRANCH   1  18
ATOM     18  C   UNL     1      -8.097  -0.070   3.097  0.00  0.00    +0.103 C 
BRANCH  18  19
ATOM     19  C   UNL     1      -8.688   0.492   4.391  0.00  0.00    +0.019 C 
BRANCH  19  20
ATOM     20  C   UNL     1     -10.140   0.032   4.530  0.00  0.00    +0.002 C 
BRANCH  20  21
ATOM     21  C   UNL     1     -10.732   0.594   5.825  0.00  0.00    -0.000 C 
BRANCH  21  23
ATOM     22  C   UNL     1     -12.775   0.696   7.258  0.00  0.00    +0.004 C 
ATOM     23  C   UNL     1     -12.184   0.134   5.964  0.00  0.00    -0.003 C 
ENDBRANCH  21  23
ENDBRANCH  20  21
ENDBRANCH  19  20
ENDBRANCH  18  19
ENDBRANCH   1  18
TORSDOF 7
