REMARK  Name = ZINC63329171
REMARK  6 active torsions:
REMARK  status: ('A' for Active; 'I' for Inactive)
REMARK    1  A    between atoms: C_7  and  C_10
REMARK    2  A    between atoms: C_10  and  C_11
REMARK    3  A    between atoms: N_15  and  C_19
REMARK    4  A    between atoms: C_19  and  C_20
REMARK    5  A    between atoms: N_22  and  C_23
REMARK    6  A    between atoms: C_23  and  C_24
REMARK                            x       y       z     vdW  Elec       q    Type
REMARK                         _______ _______ _______ _____ _____    ______ ____
ROOT
ATOM      1  C   UNL     1       0.457  -3.653  -1.462  0.00  0.00    +0.165 C 
ATOM      2  C   UNL     1      -0.542  -4.793  -1.496  0.00  0.00    +0.244 C 
ATOM      3  O   UNL     1      -1.698  -4.765  -1.132  0.00  0.00    -0.273 OA
ATOM      4  N   UNL     1       0.122  -5.844  -2.015  0.00  0.00    -0.216 N 
ATOM      5  C   UNL     1       1.388  -5.530  -2.312  0.00  0.00    +0.310 C 
ATOM      6  O   UNL     1       2.184  -6.314  -2.792  0.00  0.00    -0.252 OA
ATOM      7  N   UNL     1       1.684  -4.247  -2.020  0.00  0.00    -0.287 N 
ATOM      8  H   UNL     1       2.535  -3.802  -2.151  0.00  0.00    +0.151 HD
ENDROOT
BRANCH   1   9
ATOM      9  C   UNL     1       0.691  -3.186  -0.024  0.00  0.00    +0.065 C 
BRANCH   9  16
ATOM     10  C   UNL     1      -0.016   1.348   0.009  0.00  0.00    +0.001 A 
ATOM     11  C   UNL     1       1.166   2.101   0.002  0.00  0.00    +0.002 A 
ATOM     12  C   UNL     1       2.391   1.535  -0.013  0.00  0.00    +0.026 A 
ATOM     13  C   UNL     1       2.529   0.120  -0.022  0.00  0.00    +0.043 A 
ATOM     14  N   UNL     1       3.587  -0.654  -0.037  0.00  0.00    -0.380 N 
ATOM     15  C   UNL     1       3.143  -2.053  -0.041  0.00  0.00    +0.144 C 
ATOM     16  C   UNL     1       1.631  -2.008  -0.025  0.00  0.00    -0.039 C 
ATOM     17  C   UNL     1       1.295  -0.698  -0.014  0.00  0.00    -0.001 A 
ATOM     18  C   UNL     1       0.002  -0.004   0.002  0.00  0.00    +0.010 A 
ATOM     19  H   UNL     1       4.509  -0.353  -0.045  0.00  0.00    +0.160 HD
ENDBRANCH   9  16
ENDBRANCH   1   9
BRANCH   4  20
ATOM     20  C   UNL     1      -0.470  -7.167  -2.229  0.00  0.00    +0.213 C 
BRANCH  20  21
ATOM     21  C   UNL     1      -1.075  -7.230  -3.608  0.00  0.00    +0.231 C 
ATOM     22  O   UNL     1      -1.018  -6.265  -4.340  0.00  0.00    -0.274 OA
ATOM     23  N   UNL     1      -1.680  -8.359  -4.027  0.00  0.00    -0.310 N 
ATOM     24  H   UNL     1      -1.725  -9.131  -3.442  0.00  0.00    +0.149 HD
BRANCH  23  25
ATOM     25  C   UNL     1      -2.268  -8.420  -5.368  0.00  0.00    +0.139 C 
BRANCH  25  26
ATOM     26  C   UNL     1      -2.877  -9.781  -5.588  0.00  0.00    -0.027 A 
ATOM     27  C   UNL     1      -2.111 -10.801  -6.123  0.00  0.00    +0.009 A 
ATOM     28  C   UNL     1      -2.665 -12.051  -6.326  0.00  0.00    +0.050 A 
ATOM     29  C   UNL     1      -3.989 -12.285  -5.994  0.00  0.00    +0.166 A 
ATOM     30  C   UNL     1      -4.760 -11.259  -5.455  0.00  0.00    +0.167 A 
ATOM     31  C   UNL     1      -4.197 -10.009  -5.248  0.00  0.00    +0.054 A 
ATOM     32  O   UNL     1      -6.017 -11.736  -5.215  0.00  0.00    -0.453 OA
ATOM     33  C   UNL     1      -6.123 -12.945  -5.990  0.00  0.00    +0.466 C 
ATOM     34  O   UNL     1      -4.763 -13.406  -6.092  0.00  0.00    -0.453 OA
ENDBRANCH  25  26
ENDBRANCH  23  25
ENDBRANCH  20  21
ENDBRANCH   4  20
TORSDOF 6
