REMARK  Name = ZINC38626963
REMARK  6 active torsions:
REMARK  status: ('A' for Active; 'I' for Inactive)
REMARK    1  A    between atoms: C_7  and  C_10
REMARK    2  A    between atoms: N_11  and  N_12
REMARK    3  A    between atoms: C_23  and  C_28
REMARK    4  A    between atoms: C_25  and  N_27
REMARK    5  A    between atoms: N_30  and  C_31
REMARK    6  A    between atoms: C_31  and  C_32
REMARK                            x       y       z     vdW  Elec       q    Type
REMARK                         _______ _______ _______ _____ _____    ______ ____
ROOT
ATOM      1  N   UNL     1       0.312  -5.352  -0.121  0.00  0.00    -0.219 N 
ATOM      2  C   UNL     1      -1.067  -5.252  -0.226  0.00  0.00    +0.162 A 
ATOM      3  C   UNL     1      -1.669  -6.516  -0.324  0.00  0.00    +0.095 A 
ATOM      4  N   UNL     1      -2.970  -6.641  -0.431  0.00  0.00    -0.246 NA
ATOM      5  C   UNL     1      -3.747  -5.551  -0.448  0.00  0.00    +0.090 A 
ATOM      6  C   UNL     1      -5.143  -5.657  -0.562  0.00  0.00    +0.030 A 
ATOM      7  C   UNL     1      -5.906  -4.529  -0.576  0.00  0.00    +0.002 A 
ATOM      8  C   UNL     1      -5.322  -3.268  -0.479  0.00  0.00    +0.002 A 
ATOM      9  C   UNL     1      -3.973  -3.127  -0.369  0.00  0.00    +0.030 A 
ATOM     10  C   UNL     1      -3.152  -4.269  -0.350  0.00  0.00    +0.091 A 
ATOM     11  N   UNL     1      -1.825  -4.162  -0.243  0.00  0.00    -0.227 NA
ATOM     12  C   UNL     1      -0.578  -7.564  -0.280  0.00  0.00    +0.131 C 
ATOM     13  C   UNL     1       0.725  -6.757  -0.150  0.00  0.00    +0.058 C 
ENDROOT
BRANCH  13  14
ATOM     14  N   UNL     1       1.416  -7.110   1.097  0.00  0.00    +0.392 N 
ATOM     15  H   UNL     1       0.780  -7.010   1.874  0.00  0.00    -0.087 HD
ATOM     16  H   UNL     1       1.736  -8.066   1.046  0.00  0.00    -0.087 HD
ATOM     17  H   UNL     1       2.207  -6.498   1.228  0.00  0.00    -0.087 HD
ENDBRANCH  13  14
BRANCH  12  18
ATOM     18  C   UNL     1      -0.571  -8.370  -1.553  0.00  0.00    +0.222 C 
ATOM     19  O   UNL     1       0.409  -8.366  -2.268  0.00  0.00    -0.275 OA
ATOM     20  N   UNL     1      -1.653  -9.097  -1.897  0.00  0.00    -0.312 N 
ATOM     21  H   UNL     1      -2.436  -9.100  -1.325  0.00  0.00    +0.149 HD
BRANCH  20  22
ATOM     22  C   UNL     1      -1.645  -9.880  -3.134  0.00  0.00    +0.135 C 
BRANCH  22  23
ATOM     23  C   UNL     1      -2.984 -10.605  -3.287  0.00  0.00    +0.135 C 
ATOM     24  C   UNL     1      -2.942 -11.528  -4.524  0.00  0.00    +0.035 C 
ATOM     25  C   UNL     1      -4.366 -11.347  -5.117  0.00  0.00    +0.031 C 
ATOM     26  C   UNL     1      -4.640  -9.861  -4.778  0.00  0.00    +0.160 C 
ATOM     27  O   UNL     1      -4.033  -9.651  -3.491  0.00  0.00    -0.375 OA
ENDBRANCH  22  23
ENDBRANCH  20  22
ENDBRANCH  12  18
BRANCH   1  29
ATOM     28  C   UNL     1       2.416  -4.547  -0.036  0.00  0.00    +0.136 C 
ATOM     29  N   UNL     1       1.118  -4.351  -0.018  0.00  0.00    -0.188 NA
BRANCH  28  36
ATOM     30  C   UNL     1       6.941  -4.306   0.092  0.00  0.00    +0.001 A 
ATOM     31  C   UNL     1       7.424  -3.025   0.367  0.00  0.00    +0.002 A 
ATOM     32  C   UNL     1       6.591  -1.975   0.570  0.00  0.00    +0.026 A 
ATOM     33  C   UNL     1       5.186  -2.166   0.506  0.00  0.00    +0.043 A 
ATOM     34  N   UNL     1       4.184  -1.325   0.663  0.00  0.00    -0.380 N 
ATOM     35  C   UNL     1       2.917  -2.043   0.492  0.00  0.00    +0.150 C 
ATOM     36  C   UNL     1       3.288  -3.481   0.200  0.00  0.00    +0.000 C 
ATOM     37  C   UNL     1       4.683  -3.519   0.216  0.00  0.00    +0.004 A 
ATOM     38  C   UNL     1       5.611  -4.563   0.016  0.00  0.00    +0.010 A 
ATOM     39  H   UNL     1       4.270  -0.379   0.861  0.00  0.00    +0.160 HD
ENDBRANCH  28  36
ENDBRANCH   1  29
TORSDOF 6
