REMARK  Name = ZINC36593464
REMARK  13 active torsions:
REMARK  status: ('A' for Active; 'I' for Inactive)
REMARK    1  A    between atoms: C_1  and  C_2
REMARK    2  A    between atoms: C_5  and  S_8
REMARK    3  A    between atoms: S_8  and  C_11
REMARK    4  A    between atoms: C_11  and  N_12
REMARK    5  A    between atoms: C_13  and  C_15
REMARK    6  A    between atoms: C_15  and  C_17
REMARK    7  A    between atoms: C_15  and  N_23
REMARK    8  A    between atoms: N_23  and  C_35
REMARK    9  A    between atoms: C_24  and  C_26
REMARK   10  A    between atoms: C_29  and  N_32
REMARK   11  A    between atoms: C_35  and  C_36
REMARK   12  A    between atoms: C_35  and  C_37
REMARK   13  A    between atoms: C_35  and  C_38
REMARK                            x       y       z     vdW  Elec       q    Type
REMARK                         _______ _______ _______ _____ _____    ______ ____
ROOT
ATOM      1  C   UNL     1       2.153  -6.668   4.642  0.00  0.00    +0.166 C 
ENDROOT
BRANCH   1   2
ATOM      2  C   UNL     1       2.029  -5.143   4.676  0.00  0.00    +0.019 C 
ATOM      3  C   UNL     1       2.551  -4.618   6.014  0.00  0.00    +0.006 C 
ATOM      4  C   UNL     1       2.426  -3.094   6.048  0.00  0.00    +0.000 C 
ATOM      5  C   UNL     1       0.958  -2.698   5.883  0.00  0.00    +0.000 C 
ATOM      6  C   UNL     1       0.435  -3.223   4.544  0.00  0.00    +0.000 C 
ATOM      7  C   UNL     1       0.560  -4.748   4.511  0.00  0.00    +0.006 C 
ENDBRANCH   1   2
BRANCH   1   9
ATOM      8  N   UNL     1       0.649  -7.063   2.718  0.00  0.00    -0.295 N 
ATOM      9  C   UNL     1       1.887  -7.163   3.244  0.00  0.00    +0.235 C 
ATOM     10  O   UNL     1       2.785  -7.651   2.592  0.00  0.00    -0.274 OA
ATOM     11  H   UNL     1      -0.075  -6.699   3.249  0.00  0.00    +0.150 HD
BRANCH   8  12
ATOM     12  C   UNL     1       0.400  -7.506   1.344  0.00  0.00    +0.278 C 
BRANCH  12  13
ATOM     13  S   UNL     1      -0.215  -9.213   1.362  0.00  0.00    +0.013 S 
ATOM     14  O   UNL     1       0.595 -10.016   2.210  0.00  0.00    -0.168 OA
ATOM     15  O   UNL     1      -0.522  -9.636   0.040  0.00  0.00    -0.168 OA
BRANCH  13  20
ATOM     16  C   UNL     1      -5.551  -8.915   4.161  0.00  0.00    +0.044 C 
ATOM     17  C   UNL     1      -4.219  -8.989   3.462  0.00  0.00    -0.050 A 
ATOM     18  C   UNL     1      -4.149  -8.838   2.090  0.00  0.00    +0.005 A 
ATOM     19  C   UNL     1      -2.926  -8.906   1.448  0.00  0.00    +0.027 A 
ATOM     20  C   UNL     1      -1.773  -9.125   2.179  0.00  0.00    +0.090 A 
ATOM     21  C   UNL     1      -1.843  -9.275   3.552  0.00  0.00    +0.027 A 
ATOM     22  C   UNL     1      -3.065  -9.203   4.193  0.00  0.00    +0.005 A 
ENDBRANCH  13  20
ENDBRANCH  12  13
ENDBRANCH   8  12
ENDBRANCH   1   9
BRANCH   1  23
ATOM     23  N   UNL     1       3.506  -7.056   5.048  0.00  0.00    -0.281 N 
ATOM     24  C   UNL     1       3.700  -7.702   6.215  0.00  0.00    +0.248 C 
ATOM     25  O   UNL     1       2.777  -7.842   6.993  0.00  0.00    -0.270 OA
BRANCH  24  26
ATOM     26  C   UNL     1       5.036  -8.242   6.548  0.00  0.00    +0.037 A 
ATOM     27  C   UNL     1       6.049  -8.248   5.587  0.00  0.00    +0.015 A 
ATOM     28  C   UNL     1       7.293  -8.752   5.904  0.00  0.00    +0.033 A 
ATOM     29  C   UNL     1       7.537  -9.253   7.171  0.00  0.00    +0.126 A 
ATOM     30  C   UNL     1       6.537  -9.251   8.127  0.00  0.00    +0.033 A 
ATOM     31  C   UNL     1       5.291  -8.743   7.825  0.00  0.00    +0.015 A 
BRANCH  29  32
ATOM     32  N   UNL     1       8.874  -9.793   7.504  0.00  0.00    +0.056 N 
ATOM     33  O   UNL     1       9.750  -9.797   6.671  0.00  0.00    -0.126 OA
ATOM     34  O   UNL     1       9.091 -10.231   8.610  0.00  0.00    -0.126 OA
ENDBRANCH  29  32
ENDBRANCH  24  26
BRANCH  23  35
ATOM     35  C   UNL     1       4.648  -6.742   4.186  0.00  0.00    +0.030 C 
ATOM     36  C   UNL     1       4.282  -5.583   3.256  0.00  0.00    +0.031 C 
ATOM     37  C   UNL     1       5.846  -6.343   5.051  0.00  0.00    +0.031 C 
ATOM     38  C   UNL     1       5.010  -7.972   3.350  0.00  0.00    +0.031 C 
ENDBRANCH  23  35
ENDBRANCH   1  23
TORSDOF 9
