REMARK  Name = ZINC03104274
REMARK  6 active torsions:
REMARK  status: ('A' for Active; 'I' for Inactive)
REMARK    1  A    between atoms: C_3  and  N_22
REMARK    2  A    between atoms: C_4  and  N_11
REMARK    3  A    between atoms: C_6  and  C_7
REMARK    4  A    between atoms: C_13  and  C_20
REMARK    5  A    between atoms: N_25  and  C_28
REMARK    6  A    between atoms: C_31  and  C_33
REMARK                            x       y       z     vdW  Elec       q    Type
REMARK                         _______ _______ _______ _____ _____    ______ ____
ROOT
ATOM      1  C   UNL     1       0.953  -8.128  -0.035  0.00  0.00    +0.014 A 
ATOM      2  C   UNL     1       0.983  -6.747  -0.025  0.00  0.00    +0.026 A 
ATOM      3  C   UNL     1       0.365  -6.033  -1.042  0.00  0.00    +0.054 A 
ATOM      4  C   UNL     1      -0.288  -6.714  -2.069  0.00  0.00    +0.072 A 
ATOM      5  C   UNL     1      -0.308  -8.100  -2.073  0.00  0.00    +0.040 A 
ATOM      6  C   UNL     1       0.310  -8.803  -1.056  0.00  0.00    +0.057 A 
ENDROOT
BRANCH   4   7
ATOM      7  N   UNL     1      -0.919  -5.998  -3.097  0.00  0.00    -0.266 N 
ATOM      8  C   UNL     1      -2.225  -5.642  -2.955  0.00  0.00    +0.120 A 
ATOM      9  C   UNL     1      -2.847  -4.938  -3.967  0.00  0.00    +0.132 A 
ATOM     10  C   UNL     1      -2.059  -4.601  -5.163  0.00  0.00    +0.271 A 
ATOM     11  O   UNL     1      -2.559  -3.982  -6.083  0.00  0.00    -0.266 OA
ATOM     12  N   UNL     1      -0.769  -4.996  -5.218  0.00  0.00    -0.274 N 
ATOM     13  H   UNL     1      -0.218  -4.780  -6.024  0.00  0.00    +0.173 HD
ATOM     14  C   UNL     1      -0.220  -5.675  -4.197  0.00  0.00    +0.334 A 
ATOM     15  O   UNL     1       0.945  -6.013  -4.273  0.00  0.00    -0.246 OA
BRANCH   9  16
ATOM     16  C   UNL     1      -4.220  -4.545  -3.855  0.00  0.00    +0.106 C 
ATOM     17  N   UNL     1      -5.308  -4.233  -3.766  0.00  0.00    -0.191 NA
ENDBRANCH   9  16
ENDBRANCH   4   7
BRANCH   3  18
ATOM     18  N   UNL     1       0.394  -4.635  -1.034  0.00  0.00    -0.325 N 
ATOM     19  C   UNL     1      -0.245  -4.102   0.177  0.00  0.00    +0.124 C 
ATOM     20  C   UNL     1      -0.265  -2.573   0.110  0.00  0.00    +0.125 C 
ATOM     21  N   UNL     1       1.111  -2.073  -0.020  0.00  0.00    -0.313 N 
ATOM     22  C   UNL     1       1.749  -2.606  -1.232  0.00  0.00    +0.125 C 
ATOM     23  C   UNL     1       1.769  -4.135  -1.164  0.00  0.00    +0.124 C 
BRANCH  21  24
ATOM     24  C   UNL     1       1.138  -0.683  -0.013  0.00  0.00    +0.118 A 
ATOM     25  C   UNL     1       1.792  -0.011   1.017  0.00  0.00    +0.079 A 
ATOM     26  C   UNL     1       1.812   1.372   1.012  0.00  0.00    +0.037 A 
ATOM     27  C   UNL     1       1.176   2.040  -0.027  0.00  0.00    +0.072 A 
ATOM     28  C   UNL     1       0.547   1.310  -1.015  0.00  0.00    +0.096 A 
ATOM     29 CL   UNL     1       2.571  -0.898   2.291  0.00  0.00    -0.080 Cl
ATOM     30  N   UNL     1       0.507  -0.049  -1.042  0.00  0.00    -0.348 N 
ATOM     31  H   UNL     1       0.031  -0.566  -1.791  0.00  0.00    +0.167 HD
BRANCH  27  32
ATOM     32  C   UNL     1       1.172   3.546  -0.074  0.00  0.00    +0.419 C 
ATOM     33  F   UNL     1       0.473   3.975  -1.207  0.00  0.00    -0.166 F 
ATOM     34  F   UNL     1       0.551   4.047   1.075  0.00  0.00    -0.166 F 
ATOM     35  F   UNL     1       2.489   4.014  -0.134  0.00  0.00    -0.166 F 
ENDBRANCH  27  32
ENDBRANCH  21  24
ENDBRANCH   3  18
BRANCH   6  36
ATOM     36  C   UNL     1       0.283 -10.310  -1.060  0.00  0.00    +0.417 C 
ATOM     37  F   UNL     1       0.968 -10.792   0.060  0.00  0.00    -0.166 F 
ATOM     38  F   UNL     1      -1.044 -10.752  -1.021  0.00  0.00    -0.166 F 
ATOM     39  F   UNL     1       0.899 -10.785  -2.223  0.00  0.00    -0.166 F 
ENDBRANCH   6  36
TORSDOF 6
