REMARK  Name = ZINC56736446
REMARK  10 active torsions:
REMARK  status: ('A' for Active; 'I' for Inactive)
REMARK    1  A    between atoms: C_1  and  C_2
REMARK    2  A    between atoms: C_2  and  C_3
REMARK    3  A    between atoms: C_3  and  C_4
REMARK    4  A    between atoms: C_3  and  C_6
REMARK    5  A    between atoms: C_4  and  C_5
REMARK    6  A    between atoms: C_11  and  N_14
REMARK    7  A    between atoms: C_21  and  C_23
REMARK    8  A    between atoms: C_23  and  C_24
REMARK    9  A    between atoms: C_23  and  C_25
REMARK   10  A    between atoms: C_23  and  C_26
REMARK                            x       y       z     vdW  Elec       q    Type
REMARK                         _______ _______ _______ _____ _____    ______ ____
ROOT
ATOM      1  N   UNL     1      -3.575  -4.579   0.062  0.00  0.00    -0.296 N 
ATOM      2  C   UNL     1      -4.250  -5.704  -0.248  0.00  0.00    +0.306 C 
ATOM      3  O   UNL     1      -4.131  -6.200  -1.352  0.00  0.00    -0.252 OA
ATOM      4  N   UNL     1      -5.056  -6.280   0.666  0.00  0.00    -0.247 N 
ATOM      5  C   UNL     1      -5.752  -7.441   0.346  0.00  0.00    +0.189 A 
ATOM      6  N   UNL     1      -5.753  -8.127  -0.780  0.00  0.00    -0.126 NA
ATOM      7  N   UNL     1      -6.444  -9.175  -0.923  0.00  0.00    -0.144 NA
ATOM      8  C   UNL     1      -7.186  -9.595   0.081  0.00  0.00    +0.109 A 
ATOM      9  S   UNL     1      -6.810  -8.343   1.300  0.00  0.00    -0.035 S 
ATOM     10  H   UNL     1      -3.670  -4.184   0.943  0.00  0.00    +0.151 HD
ATOM     11  H   UNL     1      -5.151  -5.885   1.546  0.00  0.00    +0.158 HD
ENDROOT
BRANCH   1  17
ATOM     12  C   UNL     1       0.778  -1.876  -1.617  0.00  0.00    +0.219 C 
ATOM     13  O   UNL     1       1.825  -2.475  -1.740  0.00  0.00    -0.275 OA
ATOM     14  N   UNL     1      -0.393  -2.531  -1.744  0.00  0.00    -0.301 N 
ATOM     15  C   UNL     1      -1.668  -1.805  -1.679  0.00  0.00    +0.109 C 
ATOM     16  C   UNL     1      -2.557  -2.462  -0.619  0.00  0.00    +0.041 C 
ATOM     17  C   UNL     1      -2.699  -3.954  -0.931  0.00  0.00    +0.077 C 
ATOM     18  C   UNL     1      -1.321  -4.619  -0.887  0.00  0.00    +0.041 C 
ATOM     19  C   UNL     1      -0.418  -3.985  -1.955  0.00  0.00    +0.109 C 
BRANCH  12  20
ATOM     20  C   UNL     1       0.786  -0.398  -1.321  0.00  0.00    +0.075 C 
BRANCH  20  22
ATOM     21  C   UNL     1       1.036  -0.952   1.103  0.00  0.00    +0.004 C 
ATOM     22  C   UNL     1       0.222  -0.156   0.081  0.00  0.00    +0.009 C 
ENDBRANCH  20  22
BRANCH  20  23
ATOM     23  C   UNL     1       2.221   0.128  -1.391  0.00  0.00    +0.009 C 
ATOM     24  C   UNL     1       2.216   1.648  -1.220  0.00  0.00    +0.004 C 
ENDBRANCH  20  23
ENDBRANCH  12  20
ENDBRANCH   1  17
BRANCH   8  25
ATOM     25  C   UNL     1      -8.092 -10.796   0.176  0.00  0.00    +0.013 C 
ATOM     26  C   UNL     1      -7.277 -12.070  -0.051  0.00  0.00    +0.018 C 
ATOM     27  C   UNL     1      -8.734 -10.841   1.565  0.00  0.00    +0.018 C 
ATOM     28  C   UNL     1      -9.187 -10.694  -0.888  0.00  0.00    +0.018 C 
ENDBRANCH   8  25
TORSDOF 5
