REMARK  Name = ZINC12289302
REMARK  7 active torsions:
REMARK  status: ('A' for Active; 'I' for Inactive)
REMARK    1  A    between atoms: C_1  and  C_2
REMARK    2  A    between atoms: C_5  and  C_7
REMARK    3  A    between atoms: C_9  and  C_20
REMARK    4  A    between atoms: C_10  and  C_19
REMARK    5  A    between atoms: C_15  and  S_17
REMARK    6  A    between atoms: S_17  and  C_18
REMARK    7  A    between atoms: N_22  and  C_23
REMARK                            x       y       z     vdW  Elec       q    Type
REMARK                         _______ _______ _______ _____ _____    ______ ____
ROOT
ATOM      1  C   UNL     1       3.414   1.590   0.252  0.00  0.00    +0.213 C 
ATOM      2  C   UNL     1       3.808   2.917  -0.339  0.00  0.00    +0.063 C 
ATOM      3  C   UNL     1       2.920   3.871  -0.654  0.00  0.00    +0.018 C 
ATOM      4  N   UNL     1       1.570   3.704  -0.468  0.00  0.00    -0.287 N 
ATOM      5  C   UNL     1       1.117   2.421  -0.190  0.00  0.00    +0.220 A 
ATOM      6  N   UNL     1       1.967   1.419   0.142  0.00  0.00    -0.217 N 
ATOM      7  N   UNL     1       1.186   0.282   0.341  0.00  0.00    -0.141 NA
ATOM      8  C   UNL     1      -0.063   0.639   0.131  0.00  0.00    +0.210 A 
ATOM      9  N   UNL     1      -0.097   1.940  -0.191  0.00  0.00    -0.187 NA
ATOM     10  C   UNL     1       3.421   5.171  -1.229  0.00  0.00    +0.061 C 
ATOM     11  H   UNL     1       0.956   4.453  -0.529  0.00  0.00    +0.155 HD
ENDROOT
BRANCH   1  16
ATOM     12  C   UNL     1       4.638  -1.662  -3.405  0.00  0.00    +0.086 C 
ATOM     13  C   UNL     1       4.641  -0.933  -2.086  0.00  0.00    +0.102 A 
ATOM     14  C   UNL     1       5.463  -1.182  -1.051  0.00  0.00    +0.045 A 
ATOM     15  C   UNL     1       5.120  -0.271  -0.026  0.00  0.00    +0.047 A 
ATOM     16  C   UNL     1       4.108   0.481  -0.496  0.00  0.00    +0.134 A 
ATOM     17  O   UNL     1       3.818   0.072  -1.742  0.00  0.00    -0.462 OA
ENDBRANCH   1  16
BRANCH   2  18
ATOM     18  C   UNL     1       5.181   3.170  -0.573  0.00  0.00    +0.248 C 
ATOM     19  O   UNL     1       5.906   3.494   0.350  0.00  0.00    -0.270 OA
ATOM     20  N   UNL     1       5.685   3.051  -1.817  0.00  0.00    -0.282 N 
ATOM     21  H   UNL     1       5.127   2.719  -2.537  0.00  0.00    +0.155 HD
BRANCH  20  22
ATOM     22  C   UNL     1       7.014   3.407  -2.069  0.00  0.00    +0.034 A 
ATOM     23  C   UNL     1       7.987   3.193  -1.102  0.00  0.00    +0.023 A 
ATOM     24  C   UNL     1       9.300   3.540  -1.357  0.00  0.00    +0.002 A 
ATOM     25  C   UNL     1       9.643   4.112  -2.568  0.00  0.00    +0.000 A 
ATOM     26  C   UNL     1       8.675   4.331  -3.531  0.00  0.00    +0.002 A 
ATOM     27  C   UNL     1       7.362   3.980  -3.285  0.00  0.00    +0.023 A 
ENDBRANCH  20  22
ENDBRANCH   2  18
BRANCH   8  28
ATOM     28  S   UNL     1      -1.464  -0.422   0.252  0.00  0.00    -0.088 S 
ATOM     29  C   UNL     1      -2.867   0.656  -0.149  0.00  0.00    +0.093 C 
ENDBRANCH   8  28
TORSDOF 4
