REMARK  Name = ZINC64604125
REMARK  8 active torsions:
REMARK  status: ('A' for Active; 'I' for Inactive)
REMARK    1  A    between atoms: C_6  and  S_10
REMARK    2  A    between atoms: S_10  and  C_11
REMARK    3  A    between atoms: C_11  and  C_12
REMARK    4  A    between atoms: C_14  and  C_17
REMARK    5  A    between atoms: C_17  and  C_18
REMARK    6  A    between atoms: C_18  and  C_19
REMARK    7  A    between atoms: N_21  and  C_22
REMARK    8  A    between atoms: C_24  and  C_33
REMARK                            x       y       z     vdW  Elec       q    Type
REMARK                         _______ _______ _______ _____ _____    ______ ____
ROOT
ATOM      1  C   UNL     1       3.313  -2.560  -4.211  0.00  0.00    +0.182 A 
ATOM      2  N   UNL     1       4.413  -2.262  -4.911  0.00  0.00    -0.195 NA
ATOM      3  C   UNL     1       4.453  -2.970  -6.005  0.00  0.00    +0.228 A 
ATOM      4  O   UNL     1       3.366  -3.753  -6.038  0.00  0.00    -0.338 OA
ATOM      5  N   UNL     1       2.639  -3.471  -4.852  0.00  0.00    -0.060 NA
ENDROOT
BRANCH   1   6
ATOM      6  C   UNL     1       2.921  -1.946  -2.892  0.00  0.00    +0.152 C 
BRANCH   6   7
ATOM      7  S   UNL     1       3.629  -2.921  -1.536  0.00  0.00    -0.107 S 
BRANCH   7  13
ATOM      8  C   UNL     1      -0.016   1.344   0.009  0.00  0.00    +0.002 A 
ATOM      9  C   UNL     1       1.158   2.118   0.002  0.00  0.00    +0.002 A 
ATOM     10  C   UNL     1       2.389   1.570  -0.013  0.00  0.00    +0.027 A 
ATOM     11  C   UNL     1       2.533   0.108  -0.022  0.00  0.00    +0.061 A 
ATOM     12  N   UNL     1       3.569  -0.680  -0.036  0.00  0.00    -0.355 N 
ATOM     13  C   UNL     1       3.071  -2.062  -0.039  0.00  0.00    +0.236 C 
ATOM     14  N   UNL     1       1.606  -1.974  -0.024  0.00  0.00    -0.355 N 
ATOM     15  C   UNL     1       1.290  -0.712  -0.014  0.00  0.00    +0.061 A 
ATOM     16  C   UNL     1       0.002  -0.004   0.002  0.00  0.00    +0.027 A 
ATOM     17  H   UNL     1       4.499  -0.405  -0.045  0.00  0.00    +0.162 HD
ATOM     18  H   UNL     1       0.987  -2.721  -0.022  0.00  0.00    +0.162 HD
ENDBRANCH   7  13
ENDBRANCH   6   7
ENDBRANCH   1   6
BRANCH   3  19
ATOM     19  C   UNL     1       5.535  -2.918  -7.052  0.00  0.00    +0.108 C 
BRANCH  19  20
ATOM     20  C   UNL     1       6.626  -3.935  -6.710  0.00  0.00    +0.105 C 
BRANCH  20  21
ATOM     21  C   UNL     1       7.708  -3.883  -7.757  0.00  0.00    +0.215 C 
ATOM     22  O   UNL     1       7.616  -3.109  -8.686  0.00  0.00    -0.276 OA
ATOM     23  N   UNL     1       8.778  -4.697  -7.661  0.00  0.00    -0.299 N 
ATOM     24  H   UNL     1       8.851  -5.316  -6.918  0.00  0.00    +0.150 HD
BRANCH  23  25
ATOM     25  C   UNL     1       9.830  -4.646  -8.679  0.00  0.00    +0.172 C 
ATOM     26  C   UNL     1      11.205  -4.562  -8.041  0.00  0.00    +0.060 C 
ATOM     27  C   UNL     1      11.826  -3.410  -8.029  0.00  0.00    -0.041 C 
ATOM     28  C   UNL     1      13.253  -3.181  -7.530  0.00  0.00    +0.033 C 
ATOM     29  C   UNL     1      13.441  -1.665  -7.431  0.00  0.00    +0.004 C 
ATOM     30  C   UNL     1      13.262  -0.980  -8.778  0.00  0.00    +0.002 C 
ATOM     31  C   UNL     1      12.102  -1.552  -9.588  0.00  0.00    +0.019 C 
ATOM     32  C   UNL     1      11.093  -2.208  -8.643  0.00  0.00    +0.075 C 
ATOM     33  S   UNL     1       9.778  -3.054  -9.611  0.00  0.00    -0.125 S 
BRANCH  26  34
ATOM     34  C   UNL     1      11.812  -5.723  -7.463  0.00  0.00    +0.098 C 
ATOM     35  N   UNL     1      12.294  -6.644  -7.004  0.00  0.00    -0.191 NA
ENDBRANCH  26  34
ENDBRANCH  23  25
ENDBRANCH  20  21
ENDBRANCH  19  20
ENDBRANCH   3  19
TORSDOF 8
