REMARK  Name = ZINC03400211
REMARK  10 active torsions:
REMARK  status: ('A' for Active; 'I' for Inactive)
REMARK    1  A    between atoms: C_1  and  C_2
REMARK    2  A    between atoms: C_2  and  C_3
REMARK    3  A    between atoms: C_6  and  C_9
REMARK    4  A    between atoms: C_15  and  C_17
REMARK    5  A    between atoms: C_17  and  C_19
REMARK    6  A    between atoms: C_17  and  O_20
REMARK    7  A    between atoms: O_20  and  C_21
REMARK    8  A    between atoms: C_21  and  C_23
REMARK    9  A    between atoms: C_27  and  N_30
REMARK   10  A    between atoms: C_28  and  C_29
REMARK                            x       y       z     vdW  Elec       q    Type
REMARK                         _______ _______ _______ _____ _____    ______ ____
ROOT
ATOM      1  C   UNL     1       1.132  -2.198  -5.075  0.00  0.00    +0.080 A 
ATOM      2  C   UNL     1       2.486  -2.266  -4.898  0.00  0.00    +0.076 A 
ATOM      3  S   UNL     1       3.009  -2.763  -6.534  0.00  0.00    -0.060 S 
ATOM      4  C   UNL     1       1.385  -2.829  -7.278  0.00  0.00    +0.165 A 
ATOM      5  N   UNL     1       0.616  -2.487  -6.261  0.00  0.00    -0.225 NA
ATOM      6  N   UNL     1       1.026  -3.158  -8.579  0.00  0.00    -0.262 N 
ATOM      7  C   UNL     1       1.976  -3.488  -9.477  0.00  0.00    +0.259 C 
ATOM      8  O   UNL     1       3.143  -3.499  -9.148  0.00  0.00    -0.271 OA
ATOM      9  H   UNL     1       0.093  -3.149  -8.842  0.00  0.00    +0.157 HD
ENDROOT
BRANCH   1  13
ATOM     10  C   UNL     1      -1.401  -1.087  -1.846  0.00  0.00    -0.048 A 
ATOM     11  C   UNL     1      -1.949  -1.386  -3.080  0.00  0.00    +0.004 A 
ATOM     12  C   UNL     1      -1.132  -1.747  -4.132  0.00  0.00    +0.010 A 
ATOM     13  C   UNL     1       0.248  -1.810  -3.949  0.00  0.00    +0.001 A 
ATOM     14  C   UNL     1       0.795  -1.508  -2.703  0.00  0.00    +0.010 A 
ATOM     15  C   UNL     1      -0.031  -1.143  -1.660  0.00  0.00    +0.004 A 
BRANCH  10  17
ATOM     16  C   UNL     1      -2.493   0.824  -0.704  0.00  0.00    +0.009 C 
ATOM     17  C   UNL     1      -2.299  -0.694  -0.701  0.00  0.00    +0.032 C 
ENDBRANCH  10  17
ENDBRANCH   1  13
BRANCH   7  18
ATOM     18  C   UNL     1       1.587  -3.845 -10.888  0.00  0.00    +0.259 C 
ATOM     19  C   UNL     1       0.978  -2.621 -11.574  0.00  0.00    +0.062 C 
BRANCH  18  20
ATOM     20  O   UNL     1       2.746  -4.267 -11.609  0.00  0.00    -0.449 OA
BRANCH  20  21
ATOM     21  C   UNL     1       2.560  -5.167 -12.594  0.00  0.00    +0.340 C 
ATOM     22  O   UNL     1       1.444  -5.582 -12.835  0.00  0.00    -0.245 OA
BRANCH  21  23
ATOM     23  C   UNL     1       3.712  -5.649 -13.382  0.00  0.00    +0.064 A 
ATOM     24  C   UNL     1       4.974  -5.079 -13.201  0.00  0.00    +0.015 A 
ATOM     25  C   UNL     1       6.046  -5.534 -13.940  0.00  0.00    +0.003 A 
ATOM     26  C   UNL     1       5.873  -6.553 -14.860  0.00  0.00    +0.033 A 
ATOM     27  C   UNL     1       4.626  -7.122 -15.045  0.00  0.00    +0.130 A 
ATOM     28  C   UNL     1       3.546  -6.681 -14.308  0.00  0.00    -0.006 A 
ATOM     29  C   UNL     1       2.190  -7.307 -14.507  0.00  0.00    +0.047 C 
BRANCH  27  30
ATOM     30  N   UNL     1       4.450  -8.211 -16.032  0.00  0.00    +0.057 N 
ATOM     31  O   UNL     1       5.415  -8.691 -16.581  0.00  0.00    -0.126 OA
ATOM     32  O   UNL     1       3.342  -8.620 -16.291  0.00  0.00    -0.126 OA
ENDBRANCH  27  30
ENDBRANCH  21  23
ENDBRANCH  20  21
ENDBRANCH  18  20
ENDBRANCH   7  18
TORSDOF 7
