REMARK  Name = ZINC60044038
REMARK  9 active torsions:
REMARK  status: ('A' for Active; 'I' for Inactive)
REMARK    1  A    between atoms: C_1  and  C_2
REMARK    2  A    between atoms: C_4  and  S_10
REMARK    3  A    between atoms: C_7  and  O_8
REMARK    4  A    between atoms: O_8  and  C_9
REMARK    5  A    between atoms: S_10  and  N_13
REMARK    6  A    between atoms: C_14  and  C_16
REMARK    7  A    between atoms: C_19  and  N_22
REMARK    8  A    between atoms: C_23  and  C_25
REMARK    9  A    between atoms: C_28  and  C_30
REMARK                            x       y       z     vdW  Elec       q    Type
REMARK                         _______ _______ _______ _____ _____    ______ ____
ROOT
ATOM      1  N   UNL     1       1.609  -2.996  -3.270  0.00  0.00    -0.086 NA
ATOM      2  C   UNL     1       1.904  -3.762  -4.279  0.00  0.00    +0.295 C 
ATOM      3  O   UNL     1       0.917  -4.373  -4.975  0.00  0.00    -0.264 OA
ENDROOT
BRANCH   2   4
ATOM      4  C   UNL     1       3.316  -3.965  -4.666  0.00  0.00    +0.043 A 
ATOM      5  C   UNL     1       4.335  -3.340  -3.945  0.00  0.00    +0.015 A 
ATOM      6  C   UNL     1       5.650  -3.532  -4.308  0.00  0.00    +0.024 A 
ATOM      7  C   UNL     1       5.963  -4.347  -5.391  0.00  0.00    +0.033 A 
ATOM      8  C   UNL     1       4.949  -4.971  -6.110  0.00  0.00    +0.024 A 
ATOM      9  C   UNL     1       3.633  -4.787  -5.749  0.00  0.00    +0.015 A 
BRANCH   7  10
ATOM     10  N   UNL     1       7.296  -4.539  -5.756  0.00  0.00    -0.285 N 
ATOM     11  C   UNL     1       8.257  -4.560  -4.811  0.00  0.00    +0.221 C 
ATOM     12  O   UNL     1       7.956  -4.508  -3.638  0.00  0.00    -0.275 OA
ATOM     13  H   UNL     1       7.531  -4.658  -6.689  0.00  0.00    +0.155 HD
BRANCH  11  14
ATOM     14  C   UNL     1       9.707  -4.648  -5.213  0.00  0.00    +0.078 C 
ATOM     15  C   UNL     1      10.453  -5.944  -4.889  0.00  0.00    +0.017 C 
ATOM     16  C   UNL     1      10.750  -4.669  -4.094  0.00  0.00    -0.002 C 
ATOM     17  C   UNL     1      10.242  -4.600  -2.653  0.00  0.00    +0.008 C 
ENDBRANCH  11  14
ENDBRANCH   7  10
ENDBRANCH   2   4
BRANCH   1  18
ATOM     18  S   UNL     1       0.028  -2.768  -2.836  0.00  0.00    +0.102 S 
ATOM     19  O   UNL     1      -0.452  -4.024  -2.376  0.00  0.00    -0.146 OA
ATOM     20  O   UNL     1      -0.589  -2.062  -3.905  0.00  0.00    -0.146 OA
BRANCH  18  24
ATOM     21  C   UNL     1      -0.134   2.024  -0.758  0.00  0.00    +0.047 C 
ATOM     22  C   UNL     1      -0.058   0.533  -0.549  0.00  0.00    -0.007 A 
ATOM     23  C   UNL     1      -0.050  -0.318  -1.637  0.00  0.00    +0.036 A 
ATOM     24  C   UNL     1       0.019  -1.685  -1.446  0.00  0.00    +0.113 A 
ATOM     25  C   UNL     1       0.081  -2.205  -0.166  0.00  0.00    +0.032 A 
ATOM     26  C   UNL     1       0.074  -1.358   0.925  0.00  0.00    +0.048 A 
ATOM     27  C   UNL     1       0.010   0.015   0.736  0.00  0.00    +0.123 A 
BRANCH  27  28
ATOM     28  O   UNL     1       0.008   0.850   1.808  0.00  0.00    -0.495 OA
ATOM     29  C   UNL     1       0.080   0.247   3.101  0.00  0.00    +0.277 C 
ENDBRANCH  27  28
ENDBRANCH  18  24
ENDBRANCH   1  18
TORSDOF 6
