REMARK  Name = ZINC39634779
REMARK  12 active torsions:
REMARK  status: ('A' for Active; 'I' for Inactive)
REMARK    1  A    between atoms: C_1  and  C_2
REMARK    2  A    between atoms: C_4  and  C_9
REMARK    3  A    between atoms: C_13  and  C_22
REMARK    4  A    between atoms: N_24  and  C_25
REMARK    5  A    between atoms: C_25  and  C_26
REMARK    6  A    between atoms: C_26  and  N_27
REMARK    7  A    between atoms: N_27  and  C_28
REMARK    8  A    between atoms: N_27  and  C_31
REMARK    9  A    between atoms: C_28  and  C_29
REMARK   10  A    between atoms: C_28  and  C_30
REMARK   11  A    between atoms: C_31  and  C_32
REMARK   12  A    between atoms: C_31  and  C_33
REMARK                            x       y       z     vdW  Elec       q    Type
REMARK                         _______ _______ _______ _____ _____    ______ ____
ROOT
ATOM      1  C   UNL     1      -1.935  -3.050  -3.135  0.00  0.00    +0.247 C 
ATOM      2  O   UNL     1      -2.295  -2.535  -4.175  0.00  0.00    -0.270 OA
ATOM      3  N   UNL     1      -1.588  -4.352  -3.112  0.00  0.00    -0.296 N 
ATOM      4  C   UNL     1      -1.244  -5.181  -1.933  0.00  0.00    +0.121 C 
ATOM      5  C   UNL     1      -1.895  -6.553  -2.216  0.00  0.00    +0.100 C 
ATOM      6  C   UNL     1      -2.035  -6.612  -3.747  0.00  0.00    -0.004 C 
ATOM      7  C   UNL     1      -1.470  -5.281  -4.262  0.00  0.00    +0.115 C 
ATOM      8  C   UNL     1      -1.230  -7.781  -4.306  0.00  0.00    -0.010 C 
ATOM      9  C   UNL     1      -1.432  -7.855  -5.822  0.00  0.00    -0.082 C 
ATOM     10  N   UNL     1      -2.858  -8.030  -6.120  0.00  0.00    +0.379 N 
ATOM     11  C   UNL     1      -3.613  -6.858  -5.661  0.00  0.00    -0.082 C 
ATOM     12  C   UNL     1      -3.504  -6.743  -4.138  0.00  0.00    -0.010 C 
ATOM     13  H   UNL     1      -2.982  -8.139  -7.116  0.00  0.00    -0.086 HD
ATOM     14  H   UNL     1      -3.200  -8.855  -5.649  0.00  0.00    -0.086 HD
ENDROOT
BRANCH   1  18
ATOM     15  C   UNL     1      -3.452   0.881  -0.462  0.00  0.00    +0.045 C 
ATOM     16  C   UNL     1      -2.606  -0.359  -0.603  0.00  0.00    -0.036 A 
ATOM     17  C   UNL     1      -2.663  -1.102  -1.764  0.00  0.00    +0.017 A 
ATOM     18  C   UNL     1      -1.879  -2.249  -1.894  0.00  0.00    +0.037 A 
ATOM     19  C   UNL     1      -1.042  -2.638  -0.846  0.00  0.00    +0.014 A 
ATOM     20  C   UNL     1      -0.994  -1.887   0.309  0.00  0.00    +0.016 A 
ATOM     21  C   UNL     1      -1.769  -0.746   0.430  0.00  0.00    +0.021 A 
ATOM     22 BR   UNL     1      -1.692   0.283   2.014  0.00  0.00    -0.050 Br
ENDBRANCH   1  18
BRANCH   5  23
ATOM     23  C   UNL     1      -1.007  -7.667  -1.725  0.00  0.00    +0.218 C 
ATOM     24  O   UNL     1       0.189  -7.490  -1.624  0.00  0.00    -0.275 OA
ATOM     25  N   UNL     1      -1.541  -8.860  -1.396  0.00  0.00    -0.317 N 
ATOM     26  H   UNL     1      -2.498  -9.001  -1.477  0.00  0.00    +0.149 HD
BRANCH  25  27
ATOM     27  C   UNL     1      -0.678  -9.943  -0.918  0.00  0.00    +0.085 C 
BRANCH  27  28
ATOM     28  C   UNL     1      -1.529 -11.178  -0.618  0.00  0.00    -0.059 C 
BRANCH  28  29
ATOM     29  N   UNL     1      -0.688 -12.214  -0.004  0.00  0.00    +0.384 N 
ATOM     30  H   UNL     1      -0.236 -11.839   0.816  0.00  0.00    -0.081 HD
BRANCH  29  31
ATOM     31  C   UNL     1      -1.523 -13.360   0.379  0.00  0.00    -0.074 C 
ATOM     32  C   UNL     1      -0.676 -14.376   1.148  0.00  0.00    -0.014 C 
ATOM     33  C   UNL     1      -2.673 -12.879   1.266  0.00  0.00    -0.014 C 
ENDBRANCH  29  31
BRANCH  29  34
ATOM     34  C   UNL     1       0.332 -12.652  -0.967  0.00  0.00    -0.074 C 
ATOM     35  C   UNL     1      -0.251 -12.610  -2.381  0.00  0.00    -0.014 C 
ATOM     36  C   UNL     1       1.542 -11.719  -0.887  0.00  0.00    -0.014 C 
ENDBRANCH  29  34
ENDBRANCH  28  29
ENDBRANCH  27  28
ENDBRANCH  25  27
ENDBRANCH   5  23
TORSDOF 7
