REMARK  Name = ZINC20285889
REMARK  15 active torsions:
REMARK  status: ('A' for Active; 'I' for Inactive)
REMARK    1  A    between atoms: C_1  and  C_2
REMARK    2  A    between atoms: C_2  and  C_32
REMARK    3  A    between atoms: C_4  and  N_10
REMARK    4  A    between atoms: C_6  and  C_8
REMARK    5  A    between atoms: C_6  and  C_9
REMARK    6  A    between atoms: N_10  and  C_11
REMARK    7  A    between atoms: C_11  and  N_13
REMARK    8  A    between atoms: N_13  and  C_14
REMARK    9  A    between atoms: N_13  and  C_23
REMARK   10  A    between atoms: C_14  and  C_15
REMARK   11  A    between atoms: C_18  and  O_21
REMARK   12  A    between atoms: O_21  and  C_22
REMARK   13  A    between atoms: C_23  and  C_24
REMARK   14  A    between atoms: C_27  and  O_30
REMARK   15  A    between atoms: O_30  and  C_31
REMARK                            x       y       z     vdW  Elec       q    Type
REMARK                         _______ _______ _______ _____ _____    ______ ____
ROOT
ATOM      1  N   UNL     1       0.106   7.051  -2.376  0.00  0.00    -0.304 N 
ENDROOT
BRANCH   1   2
ATOM      2  C   UNL     1       0.113   5.703  -2.353  0.00  0.00    +0.134 C 
ATOM      3  S   UNL     1      -0.229   4.821  -3.780  0.00  0.00    -0.019 S 
BRANCH   2   4
ATOM      4  N   UNL     1       0.389   5.051  -1.207  0.00  0.00    -0.324 N 
ATOM      5  H   UNL     1       0.608   5.617  -0.290  0.00  0.00    +0.148 HD
BRANCH   4   9
ATOM      6  C   UNL     1      -0.944   0.975  -2.269  0.00  0.00    -0.010 C 
ATOM      7  C   UNL     1      -1.042   1.551  -0.852  0.00  0.00    -0.072 C 
ATOM      8  C   UNL     1      -1.022   3.076  -0.918  0.00  0.00    +0.009 C 
ATOM      9  C   UNL     1       0.396   3.583  -1.181  0.00  0.00    +0.069 C 
ATOM     10  C   UNL     1       1.298   3.104  -0.042  0.00  0.00    +0.009 C 
ATOM     11  C   UNL     1       1.320   1.577  -0.002  0.00  0.00    -0.072 C 
ATOM     12  N   UNL     1      -0.012   1.005   0.008  0.00  0.00    +0.386 N 
ATOM     13  C   UNL     1       2.035   1.156   1.301  0.00  0.00    -0.010 C 
ATOM     14  C   UNL     1       2.151   1.041  -1.172  0.00  0.00    -0.010 C 
ATOM     15  C   UNL     1      -2.415   1.129  -0.282  0.00  0.00    -0.010 C 
ATOM     16  H   UNL     1      -0.328   1.088   1.058  0.00  0.00    -0.084 HD
ATOM     17  H   UNL     1       0.152  -0.053  -0.244  0.00  0.00    -0.084 HD
ENDBRANCH   4   9
ENDBRANCH   2   4
ENDBRANCH   1   2
BRANCH   1  18
ATOM     18  C   UNL     1      -0.194   7.761  -3.622  0.00  0.00    +0.142 C 
BRANCH  18  19
ATOM     19  C   UNL     1      -1.678   8.002  -3.718  0.00  0.00    -0.030 A 
ATOM     20  C   UNL     1      -2.492   7.068  -4.331  0.00  0.00    +0.009 A 
ATOM     21  C   UNL     1      -3.853   7.285  -4.415  0.00  0.00    +0.046 A 
ATOM     22  C   UNL     1      -4.403   8.447  -3.894  0.00  0.00    +0.120 A 
ATOM     23  C   UNL     1      -3.584   9.386  -3.284  0.00  0.00    +0.046 A 
ATOM     24  C   UNL     1      -2.223   9.162  -3.197  0.00  0.00    +0.009 A 
BRANCH  22  25
ATOM     25  O   UNL     1      -5.742   8.665  -3.979  0.00  0.00    -0.495 OA
ATOM     26  C   UNL     1      -6.524   7.655  -4.621  0.00  0.00    +0.277 C 
ENDBRANCH  22  25
ENDBRANCH  18  19
ENDBRANCH   1  18
BRANCH   1  27
ATOM     27  C   UNL     1       0.398   7.806  -1.155  0.00  0.00    +0.142 C 
BRANCH  27  28
ATOM     28  C   UNL     1       1.880   8.066  -1.068  0.00  0.00    -0.030 A 
ATOM     29  C   UNL     1       2.703   7.162  -0.423  0.00  0.00    +0.009 A 
ATOM     30  C   UNL     1       4.063   7.395  -0.347  0.00  0.00    +0.046 A 
ATOM     31  C   UNL     1       4.600   8.544  -0.909  0.00  0.00    +0.120 A 
ATOM     32  C   UNL     1       3.772   9.453  -1.550  0.00  0.00    +0.046 A 
ATOM     33  C   UNL     1       2.414   9.212  -1.629  0.00  0.00    +0.009 A 
BRANCH  31  34
ATOM     34  O   UNL     1       5.937   8.778  -0.831  0.00  0.00    -0.495 OA
ATOM     35  C   UNL     1       6.729   7.800  -0.155  0.00  0.00    +0.277 C 
ENDBRANCH  31  34
ENDBRANCH  27  28
ENDBRANCH   1  27
TORSDOF 9
