REMARK  Name = ZINC05449930
REMARK  9 active torsions:
REMARK  status: ('A' for Active; 'I' for Inactive)
REMARK    1  A    between atoms: C_1  and  C_2
REMARK    2  A    between atoms: C_2  and  C_3
REMARK    3  A    between atoms: C_3  and  C_5
REMARK    4  A    between atoms: C_3  and  C_6
REMARK    5  A    between atoms: C_9  and  N_12
REMARK    6  A    between atoms: C_22  and  S_23
REMARK    7  A    between atoms: S_23  and  C_24
REMARK    8  A    between atoms: C_24  and  C_26
REMARK    9  A    between atoms: C_24  and  C_27
REMARK                            x       y       z     vdW  Elec       q    Type
REMARK                         _______ _______ _______ _____ _____    ______ ____
ROOT
ATOM      1  N   UNL     1      -5.210  -0.765   2.528  0.00  0.00    -0.255 N 
ATOM      2  C   UNL     1      -6.518  -0.902   2.212  0.00  0.00    +0.267 A 
ATOM      3  O   UNL     1      -7.392  -0.662   3.024  0.00  0.00    -0.267 OA
ATOM      4  C   UNL     1      -6.845  -1.357   0.854  0.00  0.00    +0.067 A 
ATOM      5  C   UNL     1      -8.163  -1.533   0.434  0.00  0.00    +0.035 A 
ATOM      6  C   UNL     1      -8.413  -1.961  -0.852  0.00  0.00    +0.042 A 
ATOM      7  C   UNL     1      -7.364  -2.216  -1.728  0.00  0.00    +0.022 A 
ATOM      8  C   UNL     1      -6.065  -2.049  -1.337  0.00  0.00    +0.030 A 
ATOM      9  C   UNL     1      -5.780  -1.617  -0.039  0.00  0.00    +0.079 A 
ATOM     10  N   UNL     1      -4.507  -1.440   0.385  0.00  0.00    -0.223 NA
ATOM     11  C   UNL     1      -4.240  -1.033   1.602  0.00  0.00    +0.177 A 
ATOM     12 CL   UNL     1     -10.050  -2.183  -1.383  0.00  0.00    -0.084 Cl
ENDROOT
BRANCH   1  16
ATOM     13  C   UNL     1      -4.126   0.500   6.348  0.00  0.00    -0.044 A 
ATOM     14  C   UNL     1      -4.269  -0.849   6.083  0.00  0.00    +0.006 A 
ATOM     15  C   UNL     1      -4.628  -1.272   4.818  0.00  0.00    +0.026 A 
ATOM     16  C   UNL     1      -4.846  -0.340   3.812  0.00  0.00    +0.052 A 
ATOM     17  C   UNL     1      -4.696   1.015   4.080  0.00  0.00    +0.026 A 
ATOM     18  C   UNL     1      -4.342   1.431   5.349  0.00  0.00    +0.006 A 
BRANCH  13  19
ATOM     19  C   UNL     1      -3.734   0.958   7.730  0.00  0.00    +0.016 C 
ATOM     20  C   UNL     1      -2.418   1.734   7.655  0.00  0.00    +0.012 C 
BRANCH  19  22
ATOM     21  C   UNL     1      -4.492   2.228   9.744  0.00  0.00    +0.004 C 
ATOM     22  C   UNL     1      -4.829   1.864   8.297  0.00  0.00    +0.004 C 
ENDBRANCH  19  22
ENDBRANCH  13  19
ENDBRANCH   1  16
BRANCH  11  23
ATOM     23  S   UNL     1      -2.553  -0.831   2.069  0.00  0.00    -0.075 S 
BRANCH  23  24
ATOM     24  C   UNL     1      -1.739  -1.312   0.525  0.00  0.00    +0.137 C 
ATOM     25  C   UNL     1      -2.091  -0.305  -0.572  0.00  0.00    +0.029 C 
BRANCH  24  26
ATOM     26  C   UNL     1      -0.246  -1.331   0.729  0.00  0.00    +0.224 C 
ATOM     27  O   UNL     1       0.395  -0.308   0.612  0.00  0.00    -0.275 OA
ATOM     28  N   UNL     1       0.376  -2.485   1.041  0.00  0.00    -0.328 N 
ATOM     29  H   UNL     1      -0.137  -3.303   1.134  0.00  0.00    +0.145 HD
ATOM     30  H   UNL     1       1.338  -2.498   1.168  0.00  0.00    +0.145 HD
ENDBRANCH  24  26
ENDBRANCH  23  24
ENDBRANCH  11  23
TORSDOF 6
