REMARK  Name = ZINC21969547
REMARK  5 active torsions:
REMARK  status: ('A' for Active; 'I' for Inactive)
REMARK    1  A    between atoms: C_4  and  N_23
REMARK    2  A    between atoms: C_5  and  C_7
REMARK    3  A    between atoms: C_7  and  C_8
REMARK    4  A    between atoms: N_10  and  N_11
REMARK    5  A    between atoms: C_12  and  C_14
REMARK                            x       y       z     vdW  Elec       q    Type
REMARK                         _______ _______ _______ _____ _____    ______ ____
ROOT
ATOM      1  C   UNL     1      -3.298   8.292   0.254  0.00  0.00    +0.233 C 
ATOM      2  O   UNL     1      -2.116   8.438   0.482  0.00  0.00    -0.274 OA
ATOM      3  N   UNL     1      -3.836   7.056   0.253  0.00  0.00    -0.234 N 
ATOM      4  H   UNL     1      -4.908   6.923   0.046  0.00  0.00    +0.173 HD
ENDROOT
BRANCH   3   5
ATOM      5  N   UNL     1      -3.029   5.941   0.515  0.00  0.00    -0.230 N 
ATOM      6  C   UNL     1      -3.567   4.705   0.514  0.00  0.00    +0.267 C 
ATOM      7  O   UNL     1      -4.753   4.558   0.285  0.00  0.00    -0.268 OA
ATOM      8  H   UNL     1      -1.957   6.074   0.722  0.00  0.00    +0.173 HD
BRANCH   6   9
ATOM      9  C   UNL     1      -2.723   3.538   0.788  0.00  0.00    +0.076 A 
ATOM     10  C   UNL     1      -3.071   2.201   0.829  0.00  0.00    +0.024 A 
ATOM     11  C   UNL     1      -2.081   1.276   1.119  0.00  0.00    -0.036 A 
ATOM     12  C   UNL     1      -0.824   1.766   1.332  0.00  0.00    -0.006 A 
ATOM     13  S   UNL     1      -0.977   3.472   1.151  0.00  0.00    -0.088 S 
ATOM     14  C   UNL     1       0.409   0.981   1.655  0.00  0.00    +0.043 C 
ATOM     15  C   UNL     1      -0.014  -0.433   2.078  0.00  0.00    +0.005 C 
ATOM     16  C   UNL     1      -1.022  -0.971   1.059  0.00  0.00    +0.005 C 
ATOM     17  C   UNL     1      -2.350  -0.225   1.195  0.00  0.00    +0.036 C 
ENDBRANCH   6   9
ENDBRANCH   3   5
BRANCH   1  18
ATOM     18  C   UNL     1      -4.166   9.491  -0.028  0.00  0.00    +0.134 C 
BRANCH  18  23
ATOM     19  C   UNL     1      -2.465  12.601   1.270  0.00  0.00    +0.000 A 
ATOM     20  C   UNL     1      -1.792  13.039   0.144  0.00  0.00    +0.002 A 
ATOM     21  C   UNL     1      -1.887  12.328  -1.038  0.00  0.00    +0.033 A 
ATOM     22  C   UNL     1      -2.655  11.179  -1.093  0.00  0.00    +0.130 A 
ATOM     23  C   UNL     1      -3.328  10.742   0.032  0.00  0.00    -0.008 A 
ATOM     24  C   UNL     1      -3.237  11.457   1.213  0.00  0.00    +0.006 A 
BRANCH  22  25
ATOM     25  N   UNL     1      -2.758  10.418  -2.358  0.00  0.00    +0.057 N 
ATOM     26  O   UNL     1      -2.796   9.201  -2.336  0.00  0.00    -0.126 OA
ATOM     27  O   UNL     1      -2.804  11.009  -3.423  0.00  0.00    -0.126 OA
ENDBRANCH  22  25
ENDBRANCH  18  23
ENDBRANCH   1  18
TORSDOF 5
