REMARK  Name = ZINC39559754
REMARK  13 active torsions:
REMARK  status: ('A' for Active; 'I' for Inactive)
REMARK    1  A    between atoms: C_1  and  C_2
REMARK    2  A    between atoms: C_3  and  C_4
REMARK    3  A    between atoms: C_5  and  C_6
REMARK    4  A    between atoms: C_7  and  C_8
REMARK    5  A    between atoms: N_10  and  C_11
REMARK    6  A    between atoms: C_11  and  C_13
REMARK    7  A    between atoms: C_11  and  C_17
REMARK    8  A    between atoms: C_13  and  C_15
REMARK    9  A    between atoms: C_13  and  N_16
REMARK   10  A    between atoms: C_17  and  O_19
REMARK   11  A    between atoms: O_19  and  C_20
REMARK   12  A    between atoms: C_20  and  C_22
REMARK   13  A    between atoms: C_20  and  C_31
REMARK                            x       y       z     vdW  Elec       q    Type
REMARK                         _______ _______ _______ _____ _____    ______ ____
ROOT
ATOM      1  O   UNK A   2      -9.343  -4.544   1.328  0.00  0.00    -0.453 OA
ENDROOT
BRANCH   1   2
ATOM      2  C   UNK A   2      -8.093  -5.008   1.173  0.00  0.00    +0.327 C 
ATOM      3  O   UNK A   2      -7.766  -6.049   1.691  0.00  0.00    -0.249 OA
BRANCH   2   4
ATOM      4  C   UNK A   2      -7.096  -4.229   0.353  0.00  0.00    +0.167 C 
BRANCH   4   7
ATOM      5  C   UNK A   2      -4.670  -4.261   0.127  0.00  0.00    +0.237 C 
ATOM      6  O   UNK A   2      -4.701  -3.057  -0.050  0.00  0.00    -0.271 OA
ATOM      7  N   UNK A   2      -5.816  -4.940   0.336  0.00  0.00    -0.300 N 
ATOM      8  H   UNK A   2      -5.792  -5.900   0.477  0.00  0.00    +0.150 HD
BRANCH   5  10
ATOM      9  C   UNK A   2      -2.293  -4.288  -0.221  0.00  0.00    +0.005 C 
ATOM     10  C   UNK A   2      -3.432  -4.948   0.111  0.00  0.00    +0.067 C 
BRANCH   9  12
ATOM     11  C   UNK A   2      -1.223  -2.263  -0.925  0.00  0.00    -0.000 C 
ATOM     12  C   UNK A   2      -2.362  -2.970  -0.719  0.00  0.00    +0.000 C 
BRANCH  11  15
ATOM     13  C   UNK A   2      -0.247   1.207  -2.177  0.00  0.00    +0.035 C 
ATOM     14  C   UNK A   2      -0.173  -0.201  -1.645  0.00  0.00    -0.030 C 
ATOM     15  C   UNK A   2      -1.294  -0.898  -1.442  0.00  0.00    -0.005 C 
ENDBRANCH  11  15
ENDBRANCH   9  12
ENDBRANCH   5  10
ENDBRANCH   4   7
BRANCH   4  16
ATOM     16  C   UNK A   2      -7.617  -4.084  -1.079  0.00  0.00    -0.047 C 
ATOM     17  C   UNK A   2      -8.955  -3.341  -1.062  0.00  0.00    -0.012 C 
BRANCH  16  18
ATOM     18  N   UNK A   2      -6.646  -3.325  -1.878  0.00  0.00    +0.381 N 
ATOM     19  H   UNK A   2      -5.764  -3.815  -1.889  0.00  0.00    -0.090 HD
ATOM     20  H   UNK A   2      -6.990  -3.229  -2.822  0.00  0.00    -0.090 HD
ATOM     21  H   UNK A   2      -6.518  -2.410  -1.472  0.00  0.00    -0.090 HD
ENDBRANCH  16  18
ENDBRANCH   4  16
ENDBRANCH   2   4
ENDBRANCH   1   2
BRANCH   1  22
ATOM     22  C   UNK A   2     -10.234  -5.333   2.119  0.00  0.00    +0.237 C 
BRANCH  22  23
ATOM     23  C   UNK A   2     -10.139  -4.897   3.582  0.00  0.00    +0.205 C 
ATOM     24  C   UNK A   2     -10.418  -3.428   3.676  0.00  0.00    +0.238 C 
ATOM     25  O   UNK A   2     -11.571  -3.051   3.642  0.00  0.00    -0.274 OA
ATOM     26  N   GLY A   1      -9.449  -2.515   3.797  0.00  0.00    -0.305 N 
ATOM     27  CA  GLY A   1      -8.036  -2.864   3.847  0.00  0.00    +0.200 C 
ATOM     28  C   GLY A   1      -7.844  -4.305   4.216  0.00  0.00    +0.231 C 
ATOM     29  O   GLY A   1      -6.766  -4.656   4.646  0.00  0.00    -0.274 OA
ATOM     30  N   UNK A   2      -8.812  -5.216   4.090  0.00  0.00    -0.299 N 
ATOM     31  H   GLY A   1      -9.698  -1.579   3.855  0.00  0.00    +0.149 HD
ATOM     32  H   UNK A   2      -8.621  -6.132   4.348  0.00  0.00    +0.150 HD
ENDBRANCH  22  23
BRANCH  22  33
ATOM     33  C   UNK A   2     -11.646  -5.140   1.627  0.00  0.00    +0.018 C 
ATOM     34  C   UNK A   2     -12.473  -6.123   1.254  0.00  0.00    -0.011 C 
ATOM     35  C   UNK A   2     -12.294  -7.498   1.001  0.00  0.00    +0.008 C 
ATOM     36  C   UNK A   2     -13.053  -8.000  -0.020  0.00  0.00    +0.020 C 
ATOM     37  C   UNK A   2     -13.943  -7.118  -0.772  0.00  0.00    +0.039 C 
ATOM     38  C   UNK A   2     -14.307  -5.908  -0.329  0.00  0.00    +0.024 C 
ATOM     39  C   UNK A   2     -13.819  -5.451   1.015  0.00  0.00    +0.160 C 
ATOM     40  N   UNK A   2     -13.533  -4.026   1.107  0.00  0.00    -0.279 NA
ATOM     41  C   UNK A   2     -12.299  -3.893   1.497  0.00  0.00    +0.113 C 
ATOM     42 CL   UNK A   2     -14.554  -7.662  -2.303  0.00  0.00    -0.084 Cl
ENDBRANCH  22  33
ENDBRANCH   1  22
TORSDOF 11
