REMARK  Name = ZINC06445094
REMARK  10 active torsions:
REMARK  status: ('A' for Active; 'I' for Inactive)
REMARK    1  A    between atoms: C_12  and  C_13
REMARK    2  A    between atoms: C_13  and  N_14
REMARK    3  A    between atoms: N_14  and  C_15
REMARK    4  A    between atoms: N_14  and  C_23
REMARK    5  A    between atoms: C_15  and  C_16
REMARK    6  A    between atoms: C_16  and  C_17
REMARK    7  A    between atoms: C_17  and  N_69
REMARK    8  A    between atoms: C_23  and  N_25
REMARK    9  A    between atoms: N_25  and  C_26
REMARK   10  A    between atoms: C_26  and  C_27
REMARK                            x       y       z     vdW  Elec       q    Type
REMARK                         _______ _______ _______ _____ _____    ______ ____
ROOT
ATOM      1  N   UNL     1      -0.915   2.772   6.116  0.00  0.00    -0.308 N 
ENDROOT
BRANCH   1   2
ATOM      2  C   UNL     1       0.164   3.310   6.719  0.00  0.00    +0.133 C 
ATOM      3  S   UNL     1       0.850   4.757   6.114  0.00  0.00    -0.019 S 
BRANCH   2   4
ATOM      4  N   UNL     1       0.702   2.708   7.798  0.00  0.00    -0.324 N 
ATOM      5  H   UNL     1       0.314   1.888   8.140  0.00  0.00    +0.148 HD
BRANCH   4   6
ATOM      6  C   UNL     1       1.875   3.292   8.453  0.00  0.00    +0.134 C 
BRANCH   6   7
ATOM      7  C   UNL     1       2.282   2.420   9.642  0.00  0.00    +0.135 C 
ATOM      8  C   UNL     1       3.439   3.082  10.424  0.00  0.00    +0.035 C 
ATOM      9  C   UNL     1       4.327   1.894  10.856  0.00  0.00    +0.031 C 
ATOM     10  C   UNL     1       3.603   0.655  10.285  0.00  0.00    +0.160 C 
ATOM     11  O   UNL     1       2.821   1.162   9.181  0.00  0.00    -0.375 OA
ENDBRANCH   6   7
ENDBRANCH   4   6
ENDBRANCH   2   4
ENDBRANCH   1   2
BRANCH   1  12
ATOM     12  C   UNL     1      -1.502   1.534   6.633  0.00  0.00    +0.147 C 
BRANCH  12  24
ATOM     13  C   UNL     1       0.193  -0.275   6.561  0.00  0.00    +0.020 A 
ATOM     14  C   UNL     1       0.803  -1.419   5.885  0.00  0.00    +0.003 A 
ATOM     15  C   UNL     1       1.884  -2.103   6.454  0.00  0.00    +0.059 A 
ATOM     16  C   UNL     1       2.442  -3.176   5.791  0.00  0.00    +0.163 A 
ATOM     17  C   UNL     1       1.929  -3.584   4.556  0.00  0.00    +0.164 A 
ATOM     18  C   UNL     1       0.859  -2.915   3.987  0.00  0.00    +0.075 A 
ATOM     19  C   UNL     1       0.288  -1.831   4.641  0.00  0.00    +0.053 A 
ATOM     20  N   UNL     1      -0.778  -1.151   4.086  0.00  0.00    -0.322 N 
ATOM     21  H   UNL     1      -1.133  -1.436   3.229  0.00  0.00    +0.169 HD
ATOM     22  C   UNL     1      -1.335  -0.104   4.719  0.00  0.00    +0.254 A 
ATOM     23  O   UNL     1      -2.277   0.470   4.201  0.00  0.00    -0.268 OA
ATOM     24  C   UNL     1      -0.852   0.351   5.963  0.00  0.00    +0.035 A 
ATOM     25  O   UNL     1       2.470  -4.644   3.898  0.00  0.00    -0.485 OA
ATOM     26  C   UNL     1       3.776  -5.061   4.311  0.00  0.00    +0.270 C 
ATOM     27  C   UNL     1       3.797  -5.130   5.843  0.00  0.00    +0.270 C 
ATOM     28  O   UNL     1       3.497  -3.828   6.356  0.00  0.00    -0.485 OA
ENDBRANCH  12  24
ENDBRANCH   1  12
BRANCH   1  29
ATOM     29  C   UNL     1      -1.501   3.426   4.943  0.00  0.00    +0.105 C 
BRANCH  29  30
ATOM     30  C   UNL     1      -0.840   2.885   3.674  0.00  0.00    +0.000 C 
BRANCH  30  31
ATOM     31  C   UNL     1      -1.451   3.568   2.449  0.00  0.00    -0.077 C 
BRANCH  31  37
ATOM     32  C   UNL     1      -0.731   1.580   1.266  0.00  0.00    -0.050 C 
ATOM     33  C   UNL     1      -0.013   1.086   0.008  0.00  0.00    +0.141 C 
ATOM     34  O   UNL     1      -0.706   1.560  -1.149  0.00  0.00    -0.383 OA
ATOM     35  C   UNL     1      -0.807   2.985  -1.216  0.00  0.00    +0.141 C 
ATOM     36  C   UNL     1      -1.534   3.499   0.029  0.00  0.00    -0.050 C 
ATOM     37  N   UNL     1      -0.791   3.057   1.228  0.00  0.00    +0.383 N 
ATOM     38  H   UNL     1       0.165   3.429   1.185  0.00  0.00    -0.082 HD
ENDBRANCH  31  37
ENDBRANCH  30  31
ENDBRANCH  29  30
ENDBRANCH   1  29
TORSDOF 10
