REMARK  Name = ZINC63473027
REMARK  5 active torsions:
REMARK  status: ('A' for Active; 'I' for Inactive)
REMARK    1  A    between atoms: C_1  and  O_2
REMARK    2  A    between atoms: O_2  and  C_3
REMARK    3  A    between atoms: C_6  and  N_9
REMARK    4  A    between atoms: C_14  and  C_32
REMARK    5  A    between atoms: C_32  and  C_33
REMARK                            x       y       z     vdW  Elec       q    Type
REMARK                         _______ _______ _______ _____ _____    ______ ____
ROOT
ATOM      1  N   UNL     1      -4.892  -2.582   0.034  0.00  0.00    -0.210 N 
ATOM      2  C   UNL     1      -6.054  -1.927   0.136  0.00  0.00    +0.232 C 
ATOM      3  O   UNL     1      -6.174  -0.724   0.231  0.00  0.00    -0.274 OA
ATOM      4  C   UNL     1      -7.194  -2.920   0.114  0.00  0.00    +0.107 C 
ATOM      5  C   UNL     1      -7.867  -2.949   1.503  0.00  0.00    +0.072 C 
ATOM      6  N   UNL     1      -8.033  -4.393   1.816  0.00  0.00    -0.295 NA
ATOM      7  C   UNL     1      -6.798  -5.017   1.304  0.00  0.00    +0.136 C 
ATOM      8  C   UNL     1      -6.473  -4.290  -0.024  0.00  0.00    +0.123 C 
ATOM      9  C   UNL     1      -5.010  -3.911  -0.065  0.00  0.00    +0.233 C 
ATOM     10  O   UNL     1      -4.088  -4.691  -0.169  0.00  0.00    -0.274 OA
ATOM     11  C   UNL     1      -5.675  -4.904   2.296  0.00  0.00    +0.006 A 
ATOM     12  C   UNL     1      -5.042  -3.837   2.893  0.00  0.00    +0.046 A 
ATOM     13  C   UNL     1      -4.012  -4.058   3.793  0.00  0.00    +0.124 A 
ATOM     14  C   UNL     1      -3.623  -5.354   4.090  0.00  0.00    +0.040 A 
ATOM     15  C   UNL     1      -4.255  -6.424   3.492  0.00  0.00    +0.026 A 
ATOM     16  C   UNL     1      -5.291  -6.210   2.585  0.00  0.00    +0.039 A 
ATOM     17  N   UNL     1      -6.072  -7.115   1.861  0.00  0.00    -0.283 N 
ATOM     18  C   UNL     1      -6.980  -6.494   1.085  0.00  0.00    +0.243 C 
ATOM     19  O   UNL     1      -7.789  -7.023   0.351  0.00  0.00    -0.273 OA
ATOM     20  F   UNL     1      -3.390  -3.012   4.380  0.00  0.00    -0.205 F 
ATOM     21  H   UNL     1      -8.127  -4.539   2.810  0.00  0.00    +0.124 HD
ATOM     22  H   UNL     1      -5.971  -8.078   1.912  0.00  0.00    +0.155 HD
ENDROOT
BRANCH   1  26
ATOM     23  C   UNL     1      -1.201  -0.637   0.009  0.00  0.00    +0.120 A 
ATOM     24  C   UNL     1      -1.648  -1.291  -1.130  0.00  0.00    +0.047 A 
ATOM     25  C   UNL     1      -2.869  -1.935  -1.122  0.00  0.00    +0.027 A 
ATOM     26  C   UNL     1      -3.650  -1.928   0.026  0.00  0.00    +0.044 A 
ATOM     27  C   UNL     1      -3.203  -1.273   1.165  0.00  0.00    +0.027 A 
ATOM     28  C   UNL     1      -1.979  -0.634   1.158  0.00  0.00    +0.047 A 
BRANCH  23  30
ATOM     29  C   UNL     1       0.750  -0.047  -1.216  0.00  0.00    +0.277 C 
ATOM     30  O   UNL     1       0.002  -0.003   0.001  0.00  0.00    -0.495 OA
ENDBRANCH  23  30
ENDBRANCH   1  26
BRANCH   5  31
ATOM     31  C   UNL     1      -9.229  -2.253   1.449  0.00  0.00    +0.052 C 
BRANCH  31  32
ATOM     32  C   UNL     1      -9.813  -2.184   2.837  0.00  0.00    -0.040 C 
ATOM     33  C   UNL     1      -9.729  -1.149   3.704  0.00  0.00    -0.001 A 
ATOM     34  C   UNL     1      -9.093   0.170   3.618  0.00  0.00    +0.010 A 
ATOM     35  C   UNL     1      -9.180   1.011   4.674  0.00  0.00    +0.001 A 
ATOM     36  C   UNL     1      -9.862   0.653   5.846  0.00  0.00    +0.002 A 
ATOM     37  C   UNL     1     -10.472  -0.541   5.999  0.00  0.00    +0.026 A 
ATOM     38  C   UNL     1     -10.443  -1.502   4.952  0.00  0.00    +0.043 A 
ATOM     39  N   UNL     1     -10.949  -2.708   4.860  0.00  0.00    -0.380 N 
ATOM     40  C   UNL     1     -10.617  -3.255   3.539  0.00  0.00    +0.144 C 
ATOM     41  H   UNL     1     -11.460  -3.162   5.548  0.00  0.00    +0.160 HD
ENDBRANCH  31  32
ENDBRANCH   5  31
TORSDOF 4
