REMARK  Name = ZINC35338668
REMARK  7 active torsions:
REMARK  status: ('A' for Active; 'I' for Inactive)
REMARK    1  A    between atoms: C_1  and  O_2
REMARK    2  A    between atoms: O_2  and  C_3
REMARK    3  A    between atoms: C_5  and  N_26
REMARK    4  A    between atoms: C_7  and  C_10
REMARK    5  A    between atoms: C_8  and  O_9
REMARK    6  A    between atoms: N_11  and  N_12
REMARK    7  A    between atoms: N_15  and  C_16
REMARK                            x       y       z     vdW  Elec       q    Type
REMARK                         _______ _______ _______ _____ _____    ______ ____
ROOT
ATOM      1  N   UNL     1       0.866  -6.204  -1.461  0.00  0.00    -0.191 N 
ATOM      2  C   UNL     1       0.318  -6.960  -0.488  0.00  0.00    +0.320 C 
ATOM      3  O   UNL     1       0.366  -8.173  -0.562  0.00  0.00    -0.251 OA
ATOM      4  N   UNL     1      -0.282  -6.372   0.565  0.00  0.00    -0.293 N 
ATOM      5  H   UNL     1       1.298  -6.628  -2.219  0.00  0.00    +0.179 HD
ATOM      6  H   UNL     1      -0.320  -5.405   0.624  0.00  0.00    +0.151 HD
ENDROOT
BRANCH   4   7
ATOM      7  C   UNL     1      -0.877  -7.194   1.622  0.00  0.00    +0.037 C 
ATOM      8  C   UNL     1      -1.969  -8.083   1.023  0.00  0.00    +0.029 C 
ATOM      9  C   UNL     1      -2.590  -8.941   2.127  0.00  0.00    -0.008 C 
ATOM     10  C   UNL     1      -3.201  -8.033   3.196  0.00  0.00    +0.007 C 
ATOM     11  C   UNL     1      -2.109  -7.145   3.795  0.00  0.00    -0.008 C 
ATOM     12  C   UNL     1      -1.488  -6.286   2.692  0.00  0.00    +0.029 C 
ATOM     13  C   UNL     1      -1.027  -8.022   4.428  0.00  0.00    +0.007 C 
ATOM     14  C   UNL     1      -0.416  -8.930   3.359  0.00  0.00    -0.008 C 
ATOM     15  C   UNL     1      -1.508  -9.819   2.760  0.00  0.00    +0.007 C 
ATOM     16  C   UNL     1       0.205  -8.072   2.256  0.00  0.00    +0.029 C 
ENDBRANCH   4   7
BRANCH   1  18
ATOM     17  C   UNL     1       1.337  -4.079  -2.312  0.00  0.00    +0.142 C 
ATOM     18  N   UNL     1       0.810  -4.807  -1.376  0.00  0.00    -0.186 NA
BRANCH  17  23
ATOM     19  C   UNL     1       0.606  -0.608  -1.056  0.00  0.00    +0.164 A 
ATOM     20  C   UNL     1       1.173   0.161  -2.062  0.00  0.00    +0.082 A 
ATOM     21  C   UNL     1       1.789  -0.446  -3.142  0.00  0.00    +0.130 A 
ATOM     22  C   UNL     1       1.845  -1.821  -3.229  0.00  0.00    +0.046 A 
ATOM     23  C   UNL     1       1.279  -2.609  -2.223  0.00  0.00    +0.042 A 
ATOM     24  C   UNL     1       0.661  -1.994  -1.127  0.00  0.00    +0.167 A 
BRANCH  21  25
ATOM     25  N   UNL     1       2.389   0.385  -4.210  0.00  0.00    +0.057 N 
ATOM     26  O   UNL     1       2.341   1.590  -4.137  0.00  0.00    -0.126 OA
ATOM     27  O   UNL     1       2.928  -0.143  -5.155  0.00  0.00    -0.126 OA
ENDBRANCH  21  25
BRANCH  19  29
ATOM     28  C   UNL     1      -0.017   1.425   0.010  0.00  0.00    +0.277 C 
ATOM     29  O   UNL     1       0.002  -0.004   0.002  0.00  0.00    -0.491 OA
ENDBRANCH  19  29
BRANCH  24  30
ATOM     30  O   UNL     1       0.112  -2.750  -0.141  0.00  0.00    -0.503 OA
ATOM     31  H   UNL     1      -0.816  -2.977  -0.289  0.00  0.00    +0.292 HD
ENDBRANCH  24  30
ENDBRANCH  17  23
ENDBRANCH   1  18
TORSDOF 6
