REMARK  Name = ZINC36548295
REMARK  12 active torsions:
REMARK  status: ('A' for Active; 'I' for Inactive)
REMARK    1  A    between atoms: C_1  and  C_2
REMARK    2  A    between atoms: C_5  and  C_8
REMARK    3  A    between atoms: C_8  and  C_10
REMARK    4  A    between atoms: C_8  and  N_17
REMARK    5  A    between atoms: N_12  and  C_13
REMARK    6  A    between atoms: C_13  and  C_14
REMARK    7  A    between atoms: C_13  and  C_15
REMARK    8  A    between atoms: C_13  and  C_16
REMARK    9  A    between atoms: N_17  and  C_18
REMARK   10  A    between atoms: C_25  and  C_27
REMARK   11  A    between atoms: C_27  and  N_28
REMARK   12  A    between atoms: C_29  and  C_31
REMARK                            x       y       z     vdW  Elec       q    Type
REMARK                         _______ _______ _______ _____ _____    ______ ____
ROOT
ATOM      1  N   UNL     1       1.048  -4.756   0.947  0.00  0.00    -0.253 N 
ATOM      2  C   UNL     1       0.785  -4.663   2.266  0.00  0.00    +0.238 C 
ATOM      3  O   UNL     1      -0.193  -4.057   2.648  0.00  0.00    -0.274 OA
ENDROOT
BRANCH   1   4
ATOM      4  C   UNL     1       2.177  -5.456   0.506  0.00  0.00    +0.056 A 
ATOM      5  C   UNL     1       3.373  -4.783   0.291  0.00  0.00    +0.025 A 
ATOM      6  C   UNL     1       4.485  -5.475  -0.144  0.00  0.00    +0.002 A 
ATOM      7  C   UNL     1       4.410  -6.838  -0.366  0.00  0.00    +0.002 A 
ATOM      8  C   UNL     1       3.222  -7.512  -0.154  0.00  0.00    +0.022 A 
ATOM      9  C   UNL     1       2.106  -6.826   0.287  0.00  0.00    +0.062 A 
ATOM     10 CL   UNL     1       0.616  -7.674   0.561  0.00  0.00    -0.082 Cl
ENDBRANCH   1   4
BRANCH   1  11
ATOM     11  C   UNL     1       0.151  -4.126  -0.025  0.00  0.00    +0.197 C 
BRANCH  11  16
ATOM     12  C   UNL     1      -0.195   1.538   1.070  0.00  0.00    +0.044 C 
ATOM     13  C   UNL     1      -0.105   0.061   0.784  0.00  0.00    -0.050 A 
ATOM     14  C   UNL     1      -1.218  -0.744   0.946  0.00  0.00    +0.004 A 
ATOM     15  C   UNL     1      -1.135  -2.098   0.684  0.00  0.00    +0.006 A 
ATOM     16  C   UNL     1       0.060  -2.649   0.260  0.00  0.00    -0.018 A 
ATOM     17  C   UNL     1       1.173  -1.844   0.098  0.00  0.00    +0.006 A 
ATOM     18  C   UNL     1       1.089  -0.489   0.356  0.00  0.00    +0.004 A 
ENDBRANCH  11  16
BRANCH  11  19
ATOM     19  C   UNL     1      -1.220  -4.743   0.083  0.00  0.00    +0.239 C 
ATOM     20  O   UNL     1      -1.427  -5.623   0.891  0.00  0.00    -0.273 OA
ATOM     21  N   UNL     1      -2.215  -4.317  -0.720  0.00  0.00    -0.309 N 
ATOM     22  H   UNL     1      -2.050  -3.613  -1.367  0.00  0.00    +0.149 HD
BRANCH  21  23
ATOM     23  C   UNL     1      -3.548  -4.917  -0.616  0.00  0.00    +0.026 C 
ATOM     24  C   UNL     1      -4.095  -4.702   0.797  0.00  0.00    +0.031 C 
ATOM     25  C   UNL     1      -4.484  -4.259  -1.631  0.00  0.00    +0.031 C 
ATOM     26  C   UNL     1      -3.456  -6.417  -0.905  0.00  0.00    +0.031 C 
ENDBRANCH  21  23
ENDBRANCH  11  19
ENDBRANCH   1  11
BRANCH   2  27
ATOM     27  C   UNL     1       1.708  -5.311   3.265  0.00  0.00    +0.201 C 
BRANCH  27  28
ATOM     28  N   UNL     1       1.208  -5.068   4.621  0.00  0.00    -0.303 N 
ATOM     29  C   UNL     1       1.877  -5.558   5.684  0.00  0.00    +0.244 C 
ATOM     30  O   UNL     1       2.895  -6.201   5.518  0.00  0.00    -0.270 OA
ATOM     31  H   UNL     1       0.396  -4.555   4.753  0.00  0.00    +0.150 HD
BRANCH  29  32
ATOM     32  C   UNL     1       1.373  -5.312   7.052  0.00  0.00    +0.037 A 
ATOM     33  C   UNL     1       0.201  -4.578   7.245  0.00  0.00    +0.013 A 
ATOM     34  C   UNL     1      -0.264  -4.353   8.524  0.00  0.00    +0.001 A 
ATOM     35  C   UNL     1       0.428  -4.852   9.614  0.00  0.00    +0.000 A 
ATOM     36  C   UNL     1       1.590  -5.579   9.428  0.00  0.00    +0.001 A 
ATOM     37  C   UNL     1       2.063  -5.817   8.154  0.00  0.00    +0.013 A 
ENDBRANCH  29  32
ENDBRANCH  27  28
ENDBRANCH   2  27
TORSDOF 8
