REMARK  Name = ZINC33704079
REMARK  5 active torsions:
REMARK  status: ('A' for Active; 'I' for Inactive)
REMARK    1  A    between atoms: C_1  and  C_2
REMARK    2  A    between atoms: C_7  and  N_8
REMARK    3  A    between atoms: C_13  and  C_30
REMARK    4  A    between atoms: C_16  and  C_21
REMARK    5  A    between atoms: C_16  and  C_27
REMARK                            x       y       z     vdW  Elec       q    Type
REMARK                         _______ _______ _______ _____ _____    ______ ____
ROOT
ATOM      1  N   UNL     1       4.137   5.313  -2.873  0.00  0.00    -0.210 N 
ATOM      2  C   UNL     1       3.882   4.043  -2.434  0.00  0.00    +0.229 C 
ATOM      3  O   UNL     1       4.504   3.039  -2.706  0.00  0.00    -0.275 OA
ATOM      4  C   UNL     1       2.680   4.147  -1.550  0.00  0.00    +0.078 C 
ATOM      5  C   UNL     1       2.611   3.407  -0.218  0.00  0.00    -0.019 C 
ATOM      6  N   UNL     1       1.796   4.332   0.638  0.00  0.00    +0.399 N 
ATOM      7  C   UNL     1       1.981   5.721   0.104  0.00  0.00    +0.074 C 
ATOM      8  C   UNL     1       2.984   5.578  -0.961  0.00  0.00    +0.091 C 
ATOM      9  C   UNL     1       3.484   6.269  -2.135  0.00  0.00    +0.229 C 
ATOM     10  O   UNL     1       3.339   7.442  -2.408  0.00  0.00    -0.275 OA
ATOM     11  H   UNL     1       0.737   4.039   0.588  0.00  0.00    -0.083 HD
ATOM     12  H   UNL     1       2.146   4.270   1.679  0.00  0.00    -0.083 HD
ENDROOT
BRANCH   1  19
ATOM     13  C   UNL     1       6.904   5.738  -2.363  0.00  0.00    +0.045 C 
ATOM     14  C   UNL     1       6.329   5.820  -3.754  0.00  0.00    -0.029 A 
ATOM     15  C   UNL     1       7.151   6.109  -4.826  0.00  0.00    +0.005 A 
ATOM     16  C   UNL     1       6.624   6.186  -6.102  0.00  0.00    +0.000 A 
ATOM     17  C   UNL     1       5.274   5.973  -6.309  0.00  0.00    +0.002 A 
ATOM     18  C   UNL     1       4.448   5.678  -5.242  0.00  0.00    +0.024 A 
ATOM     19  C   UNL     1       4.973   5.606  -3.959  0.00  0.00    +0.047 A 
ENDBRANCH   1  19
BRANCH   7  20
ATOM     20  C   UNL     1       0.686   6.247  -0.461  0.00  0.00    -0.047 A 
ATOM     21  C   UNL     1       0.474   7.610  -0.551  0.00  0.00    +0.003 A 
ATOM     22  C   UNL     1      -0.712   8.092  -1.072  0.00  0.00    +0.000 A 
ATOM     23  C   UNL     1      -1.689   7.211  -1.495  0.00  0.00    +0.000 A 
ATOM     24  C   UNL     1      -1.479   5.848  -1.401  0.00  0.00    +0.000 A 
ATOM     25  C   UNL     1      -0.292   5.366  -0.883  0.00  0.00    +0.003 A 
ENDBRANCH   7  20
BRANCH   5  26
ATOM     26  C   UNL     1       1.915   2.080  -0.381  0.00  0.00    -0.023 A 
ATOM     27  C   UNL     1       2.455   0.842  -0.498  0.00  0.00    +0.009 A 
ATOM     28  C   UNL     1       1.614  -0.245  -0.640  0.00  0.00    +0.008 A 
ATOM     29  C   UNL     1       0.274  -0.042  -0.657  0.00  0.00    +0.045 A 
ATOM     30  S   UNL     1       0.167   1.730  -0.469  0.00  0.00    -0.103 S 
ENDBRANCH   5  26
BRANCH   7  31
ATOM     31  C   UNL     1       2.491   6.637   1.187  0.00  0.00    +0.350 C 
ATOM     32  O   UNL     1       3.331   7.467   0.930  0.00  0.00    -0.248 OA
ATOM     33  O   UNL     1       2.012   6.530   2.436  0.00  0.00    -0.248 OA
ENDBRANCH   7  31
TORSDOF 4
