REMARK  Name = ZINC55905983
REMARK  10 active torsions:
REMARK  status: ('A' for Active; 'I' for Inactive)
REMARK    1  A    between atoms: C_1  and  C_2
REMARK    2  A    between atoms: C_2  and  N_3
REMARK    3  A    between atoms: N_3  and  C_4
REMARK    4  A    between atoms: N_3  and  C_6
REMARK    5  A    between atoms: C_4  and  C_5
REMARK    6  A    between atoms: C_6  and  C_7
REMARK    7  A    between atoms: C_10  and  C_13
REMARK    8  A    between atoms: N_15  and  C_16
REMARK    9  A    between atoms: C_19  and  C_23
REMARK   10  A    between atoms: N_25  and  C_26
REMARK                            x       y       z     vdW  Elec       q    Type
REMARK                         _______ _______ _______ _____ _____    ______ ____
ROOT
ATOM      1  C   UNL     1      -5.443  -3.013  -1.663  0.00  0.00    +0.248 C 
ATOM      2  O   UNL     1      -6.034  -3.271  -0.633  0.00  0.00    -0.270 OA
ATOM      3  N   UNL     1      -6.109  -2.989  -2.835  0.00  0.00    -0.281 N 
ATOM      4  H   UNL     1      -5.625  -2.859  -3.665  0.00  0.00    +0.155 HD
ENDROOT
BRANCH   3   5
ATOM      5  C   UNL     1      -7.493  -3.151  -2.853  0.00  0.00    +0.035 A 
ATOM      6  C   UNL     1      -8.099  -3.828  -3.908  0.00  0.00    +0.024 A 
ATOM      7  C   UNL     1      -9.465  -3.990  -3.930  0.00  0.00    +0.016 A 
ATOM      8  C   UNL     1     -10.246  -3.475  -2.890  0.00  0.00    +0.055 A 
ATOM      9  C   UNL     1      -9.634  -2.796  -1.831  0.00  0.00    +0.055 A 
ATOM     10  C   UNL     1      -8.265  -2.642  -1.814  0.00  0.00    +0.044 A 
ATOM     11 CL   UNL     1     -10.598  -2.154  -0.538  0.00  0.00    -0.083 Cl
BRANCH   8  12
ATOM     12  C   UNL     1     -11.711  -3.647  -2.911  0.00  0.00    +0.245 C 
ATOM     13  O   UNL     1     -12.388  -3.199  -2.006  0.00  0.00    -0.270 OA
ATOM     14  N   UNL     1     -12.298  -4.301  -3.932  0.00  0.00    -0.314 N 
ATOM     15  C   UNL     1     -13.753  -4.472  -3.953  0.00  0.00    +0.128 C 
ATOM     16  H   UNL     1     -11.758  -4.659  -4.654  0.00  0.00    +0.149 HD
ENDBRANCH   8  12
ENDBRANCH   3   5
BRANCH   1  20
ATOM     17  C   UNL     1      -1.277  -2.191  -1.572  0.00  0.00    -0.064 A 
ATOM     18  C   UNL     1      -1.947  -2.483  -0.397  0.00  0.00    +0.002 A 
ATOM     19  C   UNL     1      -3.300  -2.751  -0.420  0.00  0.00    +0.013 A 
ATOM     20  C   UNL     1      -3.993  -2.727  -1.631  0.00  0.00    +0.037 A 
ATOM     21  C   UNL     1      -3.311  -2.431  -2.813  0.00  0.00    +0.013 A 
ATOM     22  C   UNL     1      -1.959  -2.160  -2.776  0.00  0.00    +0.002 A 
BRANCH  17  23
ATOM     23  C   UNL     1       0.201  -1.899  -1.540  0.00  0.00    -0.043 C 
BRANCH  23  24
ATOM     24  N   UNL     1       0.411  -0.458  -1.341  0.00  0.00    +0.382 N 
ATOM     25  H   UNL     1      -0.085   0.055  -2.055  0.00  0.00    -0.081 HD
BRANCH  24  27
ATOM     26  C   UNL     1      -0.001   1.452   0.134  0.00  0.00    -0.017 C 
ATOM     27  C   UNL     1      -0.091  -0.067  -0.018  0.00  0.00    -0.082 C 
ENDBRANCH  24  27
BRANCH  24  28
ATOM     28  C   UNL     1       1.846  -0.156  -1.429  0.00  0.00    -0.082 C 
ATOM     29  C   UNL     1       2.338  -0.428  -2.852  0.00  0.00    -0.017 C 
ENDBRANCH  24  28
ENDBRANCH  23  24
ENDBRANCH  17  23
ENDBRANCH   1  20
TORSDOF 7
