REMARK  Name = ZINC49980442
REMARK  9 active torsions:
REMARK  status: ('A' for Active; 'I' for Inactive)
REMARK    1  A    between atoms: C_1  and  C_2
REMARK    2  A    between atoms: C_2  and  C_3
REMARK    3  A    between atoms: C_3  and  C_4
REMARK    4  A    between atoms: C_4  and  C_6
REMARK    5  A    between atoms: C_4  and  N_7
REMARK    6  A    between atoms: N_7  and  S_8
REMARK    7  A    between atoms: S_8  and  C_11
REMARK    8  A    between atoms: N_20  and  C_23
REMARK    9  A    between atoms: C_28  and  O_29
REMARK                            x       y       z     vdW  Elec       q    Type
REMARK                         _______ _______ _______ _____ _____    ______ ____
ROOT
ATOM      1  C   UNL     1       1.287  -5.230  -0.507  0.00  0.00    +0.123 A 
ATOM      2  C   UNL     1       0.306  -5.450  -1.465  0.00  0.00    +0.033 A 
ATOM      3  C   UNL     1       0.479  -6.491  -2.359  0.00  0.00    +0.045 A 
ATOM      4  C   UNL     1       1.624  -7.277  -2.270  0.00  0.00    +0.121 A 
ATOM      5  N   UNL     1       2.537  -7.035  -1.342  0.00  0.00    -0.238 NA
ATOM      6  C   UNL     1       2.400  -6.045  -0.479  0.00  0.00    +0.141 A 
ATOM      7  N   UNL     1       1.810  -8.326  -3.162  0.00  0.00    -0.312 N 
ATOM      8  C   UNL     1       3.103  -9.021  -3.239  0.00  0.00    +0.125 C 
ATOM      9  C   UNL     1       2.866 -10.521  -3.024  0.00  0.00    +0.124 C 
ATOM     10  N   UNL     1       1.774 -10.956  -3.906  0.00  0.00    -0.324 N 
ATOM     11  C   UNL     1       0.482 -10.261  -3.829  0.00  0.00    +0.124 C 
ATOM     12  C   UNL     1       0.717  -8.765  -4.040  0.00  0.00    +0.125 C 
ENDROOT
BRANCH  10  13
ATOM     13  C   UNL     1       1.962 -12.013  -4.805  0.00  0.00    +0.072 A 
ATOM     14  C   UNL     1       1.683 -13.315  -4.415  0.00  0.00    +0.027 A 
ATOM     15  C   UNL     1       1.869 -14.357  -5.305  0.00  0.00    +0.002 A 
ATOM     16  C   UNL     1       2.333 -14.105  -6.582  0.00  0.00    +0.004 A 
ATOM     17  C   UNL     1       2.613 -12.809  -6.978  0.00  0.00    +0.047 A 
ATOM     18  C   UNL     1       2.425 -11.759  -6.094  0.00  0.00    +0.138 A 
BRANCH  18  19
ATOM     19  O   UNL     1       2.695 -10.485  -6.483  0.00  0.00    -0.505 OA
ATOM     20  H   UNL     1       3.606 -10.207  -6.315  0.00  0.00    +0.292 HD
ENDBRANCH  18  19
ENDBRANCH  10  13
BRANCH   1  21
ATOM     21  S   UNL     1       1.116  -3.918   0.657  0.00  0.00    +0.060 S 
ATOM     22  O   UNL     1       1.911  -4.266   1.782  0.00  0.00    -0.153 OA
ATOM     23  O   UNL     1      -0.275  -3.647   0.761  0.00  0.00    -0.153 OA
BRANCH  21  24
ATOM     24  N   UNL     1       1.811  -2.573  -0.016  0.00  0.00    -0.187 NA
ATOM     25  H   UNL     1       2.600  -2.182   0.389  0.00  0.00    +0.148 HD
BRANCH  24  26
ATOM     26  C   UNL     1       1.234  -1.976  -1.222  0.00  0.00    +0.073 C 
ATOM     27  C   UNL     1       1.957  -2.519  -2.456  0.00  0.00    +0.025 C 
BRANCH  26  28
ATOM     28  C   UNL     1       1.394  -0.455  -1.165  0.00  0.00    +0.020 C 
BRANCH  28  30
ATOM     29  C   UNL     1       0.728   1.621   0.054  0.00  0.00    +0.004 C 
ATOM     30  C   UNL     1       0.568   0.101  -0.003  0.00  0.00    -0.002 C 
ENDBRANCH  28  30
ENDBRANCH  26  28
ENDBRANCH  24  26
ENDBRANCH  21  24
ENDBRANCH   1  21
TORSDOF 7
