REMARK  Name = ZINC05385299
REMARK  5 active torsions:
REMARK  status: ('A' for Active; 'I' for Inactive)
REMARK    1  A    between atoms: C_1  and  C_2
REMARK    2  A    between atoms: C_3  and  C_19
REMARK    3  A    between atoms: C_4  and  C_12
REMARK    4  A    between atoms: C_5  and  C_9
REMARK    5  A    between atoms: C_6  and  C_8
REMARK                            x       y       z     vdW  Elec       q    Type
REMARK                         _______ _______ _______ _____ _____    ______ ____
ROOT
ATOM      1  C   UNL     1      -4.671  -3.167   0.643  0.00  0.00    +0.061 C 
ATOM      2  C   UNL     1      -3.511  -2.259   0.326  0.00  0.00    +0.029 C 
ATOM      3  C   UNL     1      -3.636  -0.934   0.511  0.00  0.00    +0.131 C 
ATOM      4  C   UNL     1      -2.510   0.009   0.206  0.00  0.00    +0.073 C 
ATOM      5  C   UNL     1      -1.212  -0.735   0.067  0.00  0.00    +0.043 C 
ATOM      6  C   UNL     1      -1.183  -2.067  -0.100  0.00  0.00    +0.047 C 
ATOM      7  N   UNL     1      -2.343  -2.793  -0.146  0.00  0.00    -0.260 NA
ATOM      8  C   UNL     1       0.142  -2.771  -0.238  0.00  0.00    +0.066 C 
ENDROOT
BRANCH   4   9
ATOM      9  C   UNL     1      -2.809   0.731  -1.083  0.00  0.00    -0.039 A 
ATOM     10  C   UNL     1      -2.948   0.017  -2.258  0.00  0.00    +0.005 A 
ATOM     11  C   UNL     1      -3.227   0.677  -3.440  0.00  0.00    +0.015 A 
ATOM     12  C   UNL     1      -3.356   2.055  -3.448  0.00  0.00    +0.018 A 
ATOM     13  C   UNL     1      -3.212   2.769  -2.273  0.00  0.00    +0.015 A 
ATOM     14  C   UNL     1      -2.938   2.107  -1.091  0.00  0.00    +0.005 A 
ATOM     15 BR   UNL     1      -3.731   2.960  -5.065  0.00  0.00    -0.050 Br
ENDBRANCH   4   9
BRANCH   5  16
ATOM     16  C   UNL     1       0.007  -0.015   0.113  0.00  0.00    +0.240 C 
ATOM     17  O   UNL     1       0.480   0.313   1.185  0.00  0.00    -0.271 OA
ATOM     18  N   UNL     1       0.644   0.306  -1.031  0.00  0.00    -0.326 N 
ATOM     19  H   UNL     1       1.479   0.798  -1.000  0.00  0.00    +0.145 HD
ATOM     20  H   UNL     1       0.269   0.041  -1.886  0.00  0.00    +0.145 HD
ENDBRANCH   5  16
BRANCH   3  21
ATOM     21  C   UNL     1      -4.857  -0.416   1.010  0.00  0.00    +0.220 C 
ATOM     22  O   UNL     1      -5.778  -1.170   1.266  0.00  0.00    -0.275 OA
ATOM     23  N   UNL     1      -4.998   0.910   1.201  0.00  0.00    -0.329 N 
ATOM     24  H   UNL     1      -4.264   1.511   0.996  0.00  0.00    +0.145 HD
ATOM     25  H   UNL     1      -5.834   1.265   1.542  0.00  0.00    +0.145 HD
ENDBRANCH   3  21
TORSDOF 3
