REMARK  Name = ZINC03081196
REMARK  13 active torsions:
REMARK  status: ('A' for Active; 'I' for Inactive)
REMARK    1  A    between atoms: C_1  and  C_2
REMARK    2  A    between atoms: C_2  and  O_3
REMARK    3  A    between atoms: O_3  and  C_4
REMARK    4  A    between atoms: C_6  and  C_12
REMARK    5  A    between atoms: C_9  and  O_10
REMARK    6  A    between atoms: N_13  and  N_14
REMARK    7  A    between atoms: C_15  and  C_17
REMARK    8  A    between atoms: C_17  and  O_18
REMARK    9  A    between atoms: O_18  and  C_19
REMARK   10  A    between atoms: C_21  and  C_28
REMARK   11  A    between atoms: C_24  and  C_25
REMARK   12  A    between atoms: C_25  and  C_26
REMARK   13  A    between atoms: C_25  and  C_27
REMARK                            x       y       z     vdW  Elec       q    Type
REMARK                         _______ _______ _______ _____ _____    ______ ____
ROOT
ATOM      1  N   UNL     1      -0.288   1.272  -2.443  0.00  0.00    -0.204 N 
ATOM      2  C   UNL     1      -0.742   1.585  -1.213  0.00  0.00    +0.270 C 
ATOM      3  O   UNL     1      -1.736   2.268  -1.088  0.00  0.00    -0.270 OA
ATOM      4  H   UNL     1       0.614   0.653  -2.556  0.00  0.00    +0.177 HD
ENDROOT
BRANCH   1   6
ATOM      5  C   UNL     1      -0.530   1.435  -4.763  0.00  0.00    +0.138 C 
ATOM      6  N   UNL     1      -0.966   1.736  -3.578  0.00  0.00    -0.188 NA
BRANCH   5   9
ATOM      7  C   UNL     1      -1.447   2.061  -8.350  0.00  0.00    +0.163 A 
ATOM      8  C   UNL     1      -0.771   1.605  -7.233  0.00  0.00    +0.059 A 
ATOM      9  C   UNL     1      -1.243   1.924  -5.957  0.00  0.00    -0.001 A 
ATOM     10  C   UNL     1      -2.388   2.711  -5.816  0.00  0.00    +0.027 A 
ATOM     11  C   UNL     1      -3.054   3.167  -6.935  0.00  0.00    +0.059 A 
ATOM     12  C   UNL     1      -2.588   2.845  -8.202  0.00  0.00    +0.172 A 
ATOM     13  I   UNL     1      -4.772   4.346  -6.721  0.00  0.00    -0.040 I 
BRANCH  12  14
ATOM     14  O   UNL     1      -3.248   3.297  -9.301  0.00  0.00    -0.503 OA
ATOM     15  H   UNL     1      -4.149   3.917  -9.186  0.00  0.00    +0.292 HD
ENDBRANCH  12  14
BRANCH   7  16
ATOM     16  O   UNL     1      -0.994   1.747  -9.593  0.00  0.00    -0.489 OA
BRANCH  16  18
ATOM     17  C   UNL     1       0.536   0.693 -11.139  0.00  0.00    +0.048 C 
ATOM     18  C   UNL     1       0.182   0.939  -9.671  0.00  0.00    +0.226 C 
ENDBRANCH  16  18
ENDBRANCH   7  16
ENDBRANCH   5   9
ENDBRANCH   1   6
BRANCH   2  19
ATOM     19  C   UNL     1      -0.013   1.086   0.008  0.00  0.00    +0.326 C 
BRANCH  19  20
ATOM     20  O   UNL     1      -0.682   1.547   1.184  0.00  0.00    -0.482 OA
BRANCH  20  21
ATOM     21  C   UNL     1      -0.149   1.182   2.380  0.00  0.00    +0.125 A 
ATOM     22  C   UNL     1       0.991   0.392   2.421  0.00  0.00    +0.049 A 
ATOM     23  C   UNL     1       1.534   0.027   3.637  0.00  0.00    -0.047 A 
ATOM     24  C   UNL     1       0.936   0.440   4.814  0.00  0.00    +0.004 A 
ATOM     25  C   UNL     1      -0.203   1.222   4.776  0.00  0.00    +0.008 A 
ATOM     26  C   UNL     1      -0.747   1.594   3.561  0.00  0.00    -0.003 A 
ATOM     27  C   UNL     1       2.775  -0.826   3.683  0.00  0.00    +0.044 C 
BRANCH  26  28
ATOM     28  C   UNL     1      -1.988   2.448   3.520  0.00  0.00    +0.016 C 
ATOM     29  C   UNL     1      -3.132   1.718   4.229  0.00  0.00    +0.012 C 
ATOM     30  C   UNL     1      -1.717   3.777   4.226  0.00  0.00    +0.012 C 
ENDBRANCH  26  28
ENDBRANCH  20  21
ENDBRANCH  19  20
ENDBRANCH   2  19
TORSDOF 9
