REMARK  Name = ZINC29121680
REMARK  4 active torsions:
REMARK  status: ('A' for Active; 'I' for Inactive)
REMARK    1  A    between atoms: C_1  and  C_2
REMARK    2  A    between atoms: N_4  and  C_5
REMARK    3  A    between atoms: C_8  and  C_11
REMARK    4  A    between atoms: C_17  and  C_19
REMARK                            x       y       z     vdW  Elec       q    Type
REMARK                         _______ _______ _______ _____ _____    ______ ____
ROOT
ATOM      1  C   UNL     1       0.012  -0.004   0.023  0.00  0.00    +0.080 A 
ATOM      2  C   UNL     1      -1.145  -0.712  -0.142  0.00  0.00    +0.076 A 
ATOM      3  S   UNL     1      -0.525  -2.386  -0.061  0.00  0.00    -0.060 S 
ATOM      4  C   UNL     1       1.197  -1.975   0.182  0.00  0.00    +0.165 A 
ATOM      5  N   UNL     1       1.156  -0.655   0.176  0.00  0.00    -0.225 NA
ATOM      6  N   UNL     1       2.289  -2.819   0.333  0.00  0.00    -0.259 N 
ATOM      7  C   UNL     1       2.118  -4.155   0.303  0.00  0.00    +0.270 C 
ATOM      8  O   UNL     1       1.006  -4.622   0.145  0.00  0.00    -0.268 OA
ATOM      9  H   UNL     1       3.295  -2.396   0.476  0.00  0.00    +0.157 HD
ENDROOT
BRANCH   7  10
ATOM     10  C   UNL     1       3.277  -5.051   0.463  0.00  0.00    +0.155 A 
ATOM     11  C   UNL     1       3.262  -6.519   0.456  0.00  0.00    +0.032 A 
ATOM     12  C   UNL     1       2.287  -7.503   0.315  0.00  0.00    +0.012 A 
ATOM     13  C   UNL     1       2.649  -8.821   0.360  0.00  0.00    +0.001 A 
ATOM     14  C   UNL     1       3.977  -9.182   0.544  0.00  0.00    +0.002 A 
ATOM     15  C   UNL     1       4.949  -8.232   0.686  0.00  0.00    +0.028 A 
ATOM     16  C   UNL     1       4.610  -6.883   0.644  0.00  0.00    +0.066 A 
ATOM     17  N   UNL     1       5.309  -5.709   0.747  0.00  0.00    -0.276 N 
ATOM     18  H   UNL     1       6.397  -5.729   0.904  0.00  0.00    +0.189 HD
ATOM     19  N   UNL     1       4.531  -4.694   0.636  0.00  0.00    -0.168 NA
ENDBRANCH   7  10
BRANCH   1  23
ATOM     20  C   UNL     1      -0.053   4.249   0.031  0.00  0.00    +0.033 A 
ATOM     21  C   UNL     1       1.150   3.574   0.197  0.00  0.00    +0.024 A 
ATOM     22  C   UNL     1       1.174   2.195   0.195  0.00  0.00    +0.012 A 
ATOM     23  C   UNL     1      -0.010   1.479   0.026  0.00  0.00    +0.001 A 
ATOM     24  C   UNL     1      -1.215   2.159  -0.147  0.00  0.00    +0.012 A 
ATOM     25  C   UNL     1      -1.235   3.538  -0.138  0.00  0.00    +0.024 A 
BRANCH  20  29
ATOM     26  C   UNL     1       1.000   7.842  -0.358  0.00  0.00    +0.109 C 
ATOM     27  C   UNL     1       0.969   6.339  -0.467  0.00  0.00    +0.214 C 
ATOM     28  O   UNL     1       1.884   5.751  -1.005  0.00  0.00    -0.276 OA
ATOM     29  N   UNL     1      -0.075   5.649   0.033  0.00  0.00    -0.286 N 
ATOM     30  H   UNL     1      -0.943   6.185   0.442  0.00  0.00    +0.155 HD
ENDBRANCH  20  29
ENDBRANCH   1  23
TORSDOF 3
