REMARK  Name = ZINC14742238
REMARK  7 active torsions:
REMARK  status: ('A' for Active; 'I' for Inactive)
REMARK    1  A    between atoms: C_2  and  C_3
REMARK    2  A    between atoms: C_3  and  N_4
REMARK    3  A    between atoms: C_7  and  C_9
REMARK    4  A    between atoms: C_19  and  N_74
REMARK    5  A    between atoms: C_23  and  C_24
REMARK    6  A    between atoms: C_23  and  N_74
REMARK    7  A    between atoms: C_24  and  C_30
REMARK                            x       y       z     vdW  Elec       q    Type
REMARK                         _______ _______ _______ _____ _____    ______ ____
ROOT
ATOM      1  N   UNL     1       2.246   1.506   1.076  0.00  0.00    -0.264 N 
ATOM      2  C   UNL     1       2.942   0.357   1.095  0.00  0.00    +0.043 A 
ATOM      3  C   UNL     1       3.429   0.204   2.351  0.00  0.00    +0.004 A 
ATOM      4  C   UNL     1       2.983   1.321   3.077  0.00  0.00    +0.151 A 
ATOM      5  N   UNL     1       2.281   2.062   2.238  0.00  0.00    -0.166 NA
ATOM      6  C   UNL     1       4.272  -0.956   2.804  0.00  0.00    +0.023 C 
ATOM      7  C   UNL     1       4.809  -1.676   1.560  0.00  0.00    -0.067 C 
ATOM      8  C   UNL     1       3.657  -1.947   0.588  0.00  0.00    -0.009 C 
ATOM      9  C   UNL     1       3.177  -0.625  -0.024  0.00  0.00    +0.054 C 
ENDROOT
BRANCH   4  10
ATOM     10  C   UNL     1       3.253   1.613   4.500  0.00  0.00    +0.267 C 
ATOM     11  O   UNL     1       4.007   0.901   5.134  0.00  0.00    -0.268 OA
ATOM     12  N   UNL     1       2.662   2.668   5.095  0.00  0.00    -0.296 N 
ATOM     13  C   UNL     1       1.682   3.425   4.348  0.00  0.00    +0.108 C 
ATOM     14  C   UNL     1       2.378   4.556   3.562  0.00  0.00    +0.019 C 
ATOM     15  C   UNL     1       2.847   5.604   4.482  0.00  0.00    +0.002 C 
ATOM     16  C   UNL     1       3.897   5.136   5.485  0.00  0.00    +0.002 C 
ATOM     17  C   UNL     1       3.210   4.525   6.681  0.00  0.00    +0.019 C 
ATOM     18  C   UNL     1       3.047   3.007   6.479  0.00  0.00    +0.108 C 
ENDBRANCH   4  10
BRANCH   7  19
ATOM     19  N   UNL     1       5.421  -2.955   1.967  0.00  0.00    +0.382 N 
ATOM     20  H   UNL     1       4.691  -3.674   2.033  0.00  0.00    -0.085 HD
ATOM     21  H   UNL     1       5.870  -2.839   2.883  0.00  0.00    -0.085 HD
BRANCH  19  22
ATOM     22  C   UNL     1       6.432  -3.377   0.979  0.00  0.00    -0.071 C 
BRANCH  22  23
ATOM     23  C   UNL     1       7.048  -4.704   1.427  0.00  0.00    -0.015 C 
ATOM     24  C   UNL     1       7.720  -4.522   2.791  0.00  0.00    +0.038 C 
ATOM     25  C   UNL     1       8.864  -3.514   2.657  0.00  0.00    +0.160 C 
ATOM     26  O   UNL     1       9.791  -3.975   1.671  0.00  0.00    -0.380 OA
ATOM     27  C   UNL     1       9.229  -4.119   0.365  0.00  0.00    +0.160 C 
ATOM     28  C   UNL     1       8.099  -5.151   0.407  0.00  0.00    +0.038 C 
BRANCH  23  29
ATOM     29  C   UNL     1       5.969  -5.751   1.531  0.00  0.00    -0.043 A 
ATOM     30  C   UNL     1       4.657  -5.423   1.241  0.00  0.00    +0.004 A 
ATOM     31  C   UNL     1       3.668  -6.385   1.332  0.00  0.00    +0.000 A 
ATOM     32  C   UNL     1       3.989  -7.672   1.722  0.00  0.00    +0.000 A 
ATOM     33  C   UNL     1       5.300  -7.998   2.017  0.00  0.00    +0.000 A 
ATOM     34  C   UNL     1       6.290  -7.038   1.921  0.00  0.00    +0.004 A 
ENDBRANCH  23  29
ENDBRANCH  22  23
ENDBRANCH  19  22
ENDBRANCH   7  19
BRANCH   1  35
ATOM     35  C   UNL     1       1.554   2.050  -0.095  0.00  0.00    +0.170 C 
BRANCH  35  37
ATOM     36  C   UNL     1      -0.865   2.368  -0.193  0.00  0.00    +0.006 C 
ATOM     37  C   UNL     1       0.140   1.530  -0.130  0.00  0.00    -0.012 C 
ENDBRANCH  35  37
ENDBRANCH   1  35
TORSDOF 7
