REMARK  Name = ZINC12112489
REMARK  8 active torsions:
REMARK  status: ('A' for Active; 'I' for Inactive)
REMARK    1  A    between atoms: C_1  and  C_2
REMARK    2  A    between atoms: C_5  and  N_9
REMARK    3  A    between atoms: C_10  and  C_12
REMARK    4  A    between atoms: C_12  and  S_13
REMARK    5  A    between atoms: S_13  and  C_14
REMARK    6  A    between atoms: C_15  and  S_26
REMARK    7  A    between atoms: C_17  and  C_20
REMARK    8  A    between atoms: S_26  and  C_29
REMARK                            x       y       z     vdW  Elec       q    Type
REMARK                         _______ _______ _______ _____ _____    ______ ____
ROOT
ATOM      1  C   UNL     1       3.833   3.503  -2.466  0.00  0.00    +0.120 A 
ATOM      2  C   UNL     1       3.064   4.318  -1.699  0.00  0.00    +0.214 A 
ATOM      3  N   UNL     1       2.693   5.368  -2.440  0.00  0.00    -0.208 NA
ATOM      4  C   UNL     1       3.193   5.247  -3.649  0.00  0.00    +0.141 A 
ATOM      5  N   UNL     1       3.915   4.083  -3.705  0.00  0.00    -0.332 N 
ATOM      6  H   UNL     1       4.407   3.725  -4.499  0.00  0.00    +0.168 HD
ENDROOT
BRANCH   4   7
ATOM      7  C   UNL     1       3.009   6.204  -4.760  0.00  0.00    +0.017 A 
ATOM      8  C   UNL     1       3.601   5.961  -6.001  0.00  0.00    +0.011 A 
ATOM      9  C   UNL     1       3.421   6.855  -7.035  0.00  0.00    +0.001 A 
ATOM     10  C   UNL     1       2.664   7.998  -6.842  0.00  0.00    +0.000 A 
ATOM     11  C   UNL     1       2.079   8.248  -5.613  0.00  0.00    +0.001 A 
ATOM     12  C   UNL     1       2.247   7.359  -4.572  0.00  0.00    +0.011 A 
ENDBRANCH   4   7
BRANCH   2  13
ATOM     13  S   UNL     1       2.633   4.043  -0.013  0.00  0.00    +0.045 S 
ATOM     14  O   UNL     1       2.340   5.317   0.544  0.00  0.00    -0.163 OA
ATOM     15  O   UNL     1       3.631   3.187   0.526  0.00  0.00    -0.163 OA
BRANCH  13  16
ATOM     16  C   UNL     1       1.126   3.130  -0.002  0.00  0.00    +0.095 A 
ATOM     17  C   UNL     1       1.156   1.748  -0.007  0.00  0.00    +0.027 A 
ATOM     18  C   UNL     1      -0.026   1.031   0.002  0.00  0.00    +0.002 A 
ATOM     19  C   UNL     1      -1.238   1.697   0.009  0.00  0.00    +0.000 A 
ATOM     20  C   UNL     1      -1.267   3.079   0.019  0.00  0.00    +0.002 A 
ATOM     21  C   UNL     1      -0.085   3.795   0.011  0.00  0.00    +0.027 A 
ENDBRANCH  13  16
ENDBRANCH   2  13
BRANCH   1  22
ATOM     22  S   UNL     1       4.580   1.988  -1.966  0.00  0.00    -0.095 S 
BRANCH  22  23
ATOM     23  C   UNL     1       5.454   1.418  -3.450  0.00  0.00    +0.172 C 
BRANCH  23  25
ATOM     24  N   UNL     1       6.863  -0.503  -4.116  0.00  0.00    -0.284 N 
ATOM     25  C   UNL     1       6.147   0.112  -3.155  0.00  0.00    +0.227 C 
ATOM     26  O   UNL     1       6.059  -0.385  -2.052  0.00  0.00    -0.275 OA
ATOM     27  H   UNL     1       6.880  -0.140  -5.016  0.00  0.00    +0.155 HD
BRANCH  24  32
ATOM     28  C   UNL     1       9.778  -5.218  -2.904  0.00  0.00    +0.044 C 
ATOM     29  C   UNL     1       9.005  -3.965  -3.226  0.00  0.00    -0.049 A 
ATOM     30  C   UNL     1       7.794  -3.723  -2.603  0.00  0.00    +0.005 A 
ATOM     31  C   UNL     1       7.082  -2.576  -2.896  0.00  0.00    +0.025 A 
ATOM     32  C   UNL     1       7.583  -1.666  -3.817  0.00  0.00    +0.052 A 
ATOM     33  C   UNL     1       8.797  -1.914  -4.446  0.00  0.00    +0.062 A 
ATOM     34  C   UNL     1       9.507  -3.061  -4.144  0.00  0.00    +0.025 A 
ATOM     35 CL   UNL     1       9.424  -0.783  -5.603  0.00  0.00    -0.082 Cl
ENDBRANCH  24  32
ENDBRANCH  23  25
ENDBRANCH  22  23
ENDBRANCH   1  22
TORSDOF 7
