REMARK  Name = ZINC18246667
REMARK  15 active torsions:
REMARK  status: ('A' for Active; 'I' for Inactive)
REMARK    1  A    between atoms: C_1  and  C_2
REMARK    2  A    between atoms: C_10  and  C_11
REMARK    3  A    between atoms: C_11  and  O_13
REMARK    4  A    between atoms: O_13  and  C_14
REMARK    5  A    between atoms: C_17  and  C_22
REMARK    6  A    between atoms: C_19  and  O_20
REMARK    7  A    between atoms: O_20  and  C_21
REMARK    8  A    between atoms: C_23  and  C_34
REMARK    9  A    between atoms: C_24  and  C_33
REMARK   10  A    between atoms: C_26  and  C_32
REMARK   11  A    between atoms: C_27  and  C_28
REMARK   12  A    between atoms: C_28  and  O_30
REMARK   13  A    between atoms: O_30  and  C_31
REMARK   14  A    between atoms: C_34  and  O_36
REMARK   15  A    between atoms: O_36  and  C_37
REMARK                            x       y       z     vdW  Elec       q    Type
REMARK                         _______ _______ _______ _____ _____    ______ ____
ROOT
ATOM      1  C   UNL     1       0.654  -0.730   4.784  0.00  0.00    +0.173 A 
ATOM      2  C   UNL     1       0.380   0.623   4.905  0.00  0.00    +0.050 A 
ATOM      3  C   UNL     1       0.244   1.191   6.158  0.00  0.00    +0.008 A 
ATOM      4  C   UNL     1       0.379   0.411   7.292  0.00  0.00    -0.031 A 
ATOM      5  C   UNL     1       0.652  -0.939   7.178  0.00  0.00    +0.054 A 
ATOM      6  C   UNL     1       0.784  -1.516   5.925  0.00  0.00    +0.163 A 
ENDROOT
BRANCH   4   7
ATOM      7  C   UNL     1       0.229   1.036   8.655  0.00  0.00    +0.096 C 
ATOM      8  C   UNL     1      -1.155   1.603   8.790  0.00  0.00    +0.065 C 
ATOM      9  C   UNL     1      -1.382   2.925   8.709  0.00  0.00    +0.016 C 
ATOM     10  N   UNL     1      -0.351   3.802   8.507  0.00  0.00    -0.321 N 
ATOM     11  C   UNL     1       0.940   3.414   8.740  0.00  0.00    +0.016 C 
ATOM     12  C   UNL     1       1.264   2.112   8.823  0.00  0.00    +0.065 C 
ATOM     13  C   UNL     1       2.013   4.460   8.906  0.00  0.00    +0.061 C 
ATOM     14  C   UNL     1      -2.789   3.449   8.841  0.00  0.00    +0.061 C 
ATOM     15  H   UNL     1      -0.536   4.702   8.196  0.00  0.00    +0.152 HD
BRANCH  12  16
ATOM     16  C   UNL     1       2.607   1.748   9.073  0.00  0.00    +0.337 C 
ATOM     17  O   UNL     1       3.456   2.610   9.211  0.00  0.00    -0.245 OA
BRANCH  16  18
ATOM     18  O   UNL     1       2.948   0.445   9.160  0.00  0.00    -0.465 OA
ATOM     19  C   UNL     1       4.323   0.150   9.414  0.00  0.00    +0.280 C 
ENDBRANCH  16  18
ENDBRANCH  12  16
BRANCH   8  20
ATOM     20  C   UNL     1      -2.244   0.727   9.008  0.00  0.00    +0.337 C 
ATOM     21  O   UNL     1      -2.471   0.304  10.126  0.00  0.00    -0.245 OA
BRANCH  20  22
ATOM     22  O   UNL     1      -3.030   0.359   7.974  0.00  0.00    -0.465 OA
ATOM     23  C   UNL     1      -4.112  -0.528   8.266  0.00  0.00    +0.280 C 
ENDBRANCH  20  22
ENDBRANCH   8  20
ENDBRANCH   4   7
BRANCH   6  24
ATOM     24  O   UNL     1       1.046  -2.845   5.811  0.00  0.00    -0.491 OA
ATOM     25  C   UNL     1       1.167  -3.589   7.026  0.00  0.00    +0.277 C 
ENDBRANCH   6  24
BRANCH   1  26
ATOM     26  O   UNL     1       0.788  -1.291   3.552  0.00  0.00    -0.416 OA
BRANCH  26  27
ATOM     27  C   UNL     1      -0.290  -1.889   3.007  0.00  0.00    +0.381 C 
ATOM     28  O   UNL     1      -1.316  -1.996   3.651  0.00  0.00    -0.241 OA
BRANCH  27  38
ATOM     29  C   UNL     1      -2.628  -3.305   1.523  0.00  0.00    +0.048 C 
ATOM     30  C   UNL     1      -1.247  -3.029   0.987  0.00  0.00    +0.010 A 
ATOM     31  C   UNL     1      -0.735  -3.368  -0.340  0.00  0.00    +0.024 A 
ATOM     32  C   UNL     1      -1.280  -3.999  -1.462  0.00  0.00    +0.012 A 
ATOM     33  C   UNL     1      -0.515  -4.168  -2.582  0.00  0.00    +0.001 A 
ATOM     34  C   UNL     1       0.798  -3.718  -2.611  0.00  0.00    +0.004 A 
ATOM     35  C   UNL     1       1.353  -3.093  -1.516  0.00  0.00    +0.047 A 
ATOM     36  C   UNL     1       0.595  -2.910  -0.365  0.00  0.00    +0.136 A 
ATOM     37  O   UNL     1       0.856  -2.350   0.832  0.00  0.00    -0.448 OA
ATOM     38  C   UNL     1      -0.227  -2.410   1.637  0.00  0.00    +0.216 A 
ENDBRANCH  27  38
ENDBRANCH  26  27
ENDBRANCH   1  26
TORSDOF 9
