REMARK  Name = ZINC38742023
REMARK  6 active torsions:
REMARK  status: ('A' for Active; 'I' for Inactive)
REMARK    1  A    between atoms: C_1  and  C_2
REMARK    2  A    between atoms: C_4  and  C_8
REMARK    3  A    between atoms: C_16  and  C_18
REMARK    4  A    between atoms: C_22  and  O_24
REMARK    5  A    between atoms: O_24  and  C_25
REMARK    6  A    between atoms: C_25  and  C_26
REMARK                            x       y       z     vdW  Elec       q    Type
REMARK                         _______ _______ _______ _____ _____    ______ ____
ROOT
ATOM      1  C   UNL     1      -0.964  -2.951   1.248  0.00  0.00    +0.206 C 
ATOM      2  N   UNL     1      -2.440  -3.082   1.284  0.00  0.00    -0.231 NA
ATOM      3  N   UNL     1      -2.731  -4.523   1.378  0.00  0.00    -0.224 NA
ATOM      4  C   UNL     1      -1.499  -5.071   1.981  0.00  0.00    +0.240 C 
ATOM      5  N   UNL     1      -0.441  -4.335   1.213  0.00  0.00    -0.206 N 
ATOM      6  N   UNL     1       0.541  -5.155   0.701  0.00  0.00    -0.173 NA
ATOM      7  C   UNL     1       0.406  -6.446   0.605  0.00  0.00    +0.125 C 
ATOM      8  S   UNL     1      -1.183  -6.786   1.423  0.00  0.00    -0.063 S 
ATOM      9  H   UNL     1      -2.859  -2.682   0.458  0.00  0.00    +0.143 HD
ATOM     10  H   UNL     1      -2.893  -4.919   0.464  0.00  0.00    +0.144 HD
ENDROOT
BRANCH   1  14
ATOM     11  C   UNL     1      -0.018   1.503   0.010  0.00  0.00    +0.067 C 
ATOM     12  C   UNL     1       0.002  -0.004   0.002  0.00  0.00    +0.058 C 
ATOM     13  C   UNL     1      -1.086  -0.777   0.003  0.00  0.00    +0.029 C 
ATOM     14  C   UNL     1      -0.531  -2.190  -0.007  0.00  0.00    +0.190 C 
ATOM     15  N   UNL     1       0.926  -1.973  -0.013  0.00  0.00    -0.177 NA
ATOM     16  N   UNL     1       1.125  -0.756  -0.013  0.00  0.00    -0.159 NA
ENDBRANCH   1  14
BRANCH   7  17
ATOM     17  C   UNL     1       1.334  -7.415  -0.017  0.00  0.00    +0.012 A 
ATOM     18  C   UNL     1       1.018  -8.775  -0.034  0.00  0.00    +0.011 A 
ATOM     19  C   UNL     1       1.886  -9.677  -0.615  0.00  0.00    +0.004 A 
ATOM     20  C   UNL     1       3.068  -9.238  -1.182  0.00  0.00    +0.046 A 
ATOM     21  C   UNL     1       3.391  -7.888  -1.170  0.00  0.00    +0.122 A 
ATOM     22  C   UNL     1       2.524  -6.973  -0.595  0.00  0.00    +0.056 A 
BRANCH  21  23
ATOM     23  O   UNL     1       4.555  -7.462  -1.728  0.00  0.00    -0.488 OA
BRANCH  23  24
ATOM     24  C   UNL     1       5.398  -8.459  -2.308  0.00  0.00    +0.256 C 
BRANCH  24  25
ATOM     25  C   UNL     1       6.633  -7.805  -2.873  0.00  0.00    +0.006 C 
ATOM     26  C   UNL     1       7.812  -8.333  -2.654  0.00  0.00    +0.007 C 
ENDBRANCH  24  25
ENDBRANCH  23  24
ENDBRANCH  21  23
ENDBRANCH   7  17
TORSDOF 5
