REMARK  Name = ZINC04229839
REMARK  7 active torsions:
REMARK  status: ('A' for Active; 'I' for Inactive)
REMARK    1  A    between atoms: C_8  and  C_10
REMARK    2  A    between atoms: N_12  and  C_13
REMARK    3  A    between atoms: C_13  and  C_14
REMARK    4  A    between atoms: N_16  and  N_17
REMARK    5  A    between atoms: C_18  and  C_19
REMARK    6  A    between atoms: C_22  and  O_26
REMARK    7  A    between atoms: C_24  and  O_25
REMARK                            x       y       z     vdW  Elec       q    Type
REMARK                         _______ _______ _______ _____ _____    ______ ____
ROOT
ATOM      1  C   UNL     1       3.107  10.133   0.029  0.00  0.00    +0.249 C 
ATOM      2  O   UNL     1       1.896  10.204   0.041  0.00  0.00    -0.272 OA
ATOM      3  N   UNL     1       3.848  11.258   0.029  0.00  0.00    -0.206 N 
ATOM      4  H   UNL     1       4.816  11.201   0.019  0.00  0.00    +0.177 HD
ENDROOT
BRANCH   3   5
ATOM      5  N   UNL     1       3.220  12.511   0.042  0.00  0.00    -0.188 NA
ATOM      6  C   UNL     1       3.934  13.595   0.041  0.00  0.00    +0.142 C 
BRANCH   6   7
ATOM      7  C   UNL     1       3.274  14.912   0.055  0.00  0.00    +0.036 A 
ATOM      8  C   UNL     1       4.040  16.081   0.055  0.00  0.00    +0.016 A 
ATOM      9  C   UNL     1       3.419  17.310   0.067  0.00  0.00    +0.046 A 
ATOM     10  C   UNL     1       2.031  17.393   0.080  0.00  0.00    +0.120 A 
ATOM     11  C   UNL     1       1.262  16.238   0.081  0.00  0.00    +0.091 A 
ATOM     12  C   UNL     1       1.875  14.997   0.063  0.00  0.00    +0.129 A 
BRANCH  12  13
ATOM     13  O   UNL     1       1.123  13.867   0.058  0.00  0.00    -0.506 OA
ATOM     14  H   UNL     1       0.909  13.532   0.940  0.00  0.00    +0.292 HD
ENDBRANCH  12  13
BRANCH  10  15
ATOM     15  O   UNL     1       1.426  18.609   0.092  0.00  0.00    -0.507 OA
ATOM     16  H   UNL     1       1.243  18.965  -0.788  0.00  0.00    +0.292 HD
ENDBRANCH  10  15
ENDBRANCH   6   7
ENDBRANCH   3   5
BRANCH   1  17
ATOM     17  C   UNL     1       3.782   8.786   0.015  0.00  0.00    +0.202 C 
BRANCH  17  20
ATOM     18  C   UNL     1       3.140   6.435   0.008  0.00  0.00    +0.253 C 
ATOM     19  O   UNL     1       4.322   6.143  -0.005  0.00  0.00    -0.270 OA
ATOM     20  N   UNL     1       2.767   7.730   0.019  0.00  0.00    -0.302 N 
ATOM     21  H   UNL     1       1.825   7.963   0.029  0.00  0.00    +0.150 HD
BRANCH  18  29
ATOM     22  C   UNL     1      -0.013   1.076   0.008  0.00  0.00    +0.001 A 
ATOM     23  C   UNL     1      -1.235   1.737   0.017  0.00  0.00    +0.001 A 
ATOM     24  C   UNL     1      -1.261   3.117   0.030  0.00  0.00    +0.016 A 
ATOM     25  C   UNL     1      -0.075   3.819   0.023  0.00  0.00    +0.021 A 
ATOM     26  C   UNL     1       1.184   3.173   0.008  0.00  0.00    +0.008 A 
ATOM     27  C   UNL     1       1.164   1.754   0.000  0.00  0.00    +0.010 A 
ATOM     28  C   UNL     1       2.301   4.028   0.002  0.00  0.00    +0.068 A 
ATOM     29  C   UNL     1       2.122   5.377   0.011  0.00  0.00    +0.093 A 
ATOM     30  S   UNL     1       0.346   5.544   0.029  0.00  0.00    -0.082 S 
ATOM     31 CL   UNL     1       3.905   3.364  -0.017  0.00  0.00    -0.082 Cl
ENDBRANCH  18  29
ENDBRANCH  17  20
ENDBRANCH   1  17
TORSDOF 7
