REMARK  Name = ZINC47330046
REMARK  4 active torsions:
REMARK  status: ('A' for Active; 'I' for Inactive)
REMARK    1  A    between atoms: C_1  and  C_2
REMARK    2  A    between atoms: C_5  and  C_20
REMARK    3  A    between atoms: C_7  and  N_8
REMARK    4  A    between atoms: C_9  and  C_11
REMARK                            x       y       z     vdW  Elec       q    Type
REMARK                         _______ _______ _______ _____ _____    ______ ____
ROOT
ATOM      1  N   UNL     1       0.025  -0.008   2.417  0.00  0.00    -0.281 N 
ATOM      2  C   UNL     1      -0.057  -0.683   3.580  0.00  0.00    +0.249 C 
ATOM      3  O   UNL     1      -0.040  -1.900   3.580  0.00  0.00    -0.270 OA
ATOM      4  H   UNL     1       0.077   0.961   2.421  0.00  0.00    +0.155 HD
ENDROOT
BRANCH   2   5
ATOM      5  C   UNL     1      -0.166   0.051   4.851  0.00  0.00    +0.047 A 
ATOM      6  C   UNL     1      -0.194   1.426   4.881  0.00  0.00    +0.058 A 
ATOM      7  S   UNL     1      -0.324   1.800   6.513  0.00  0.00    -0.101 S 
ATOM      8  C   UNL     1      -0.347   0.167   7.193  0.00  0.00    -0.006 A 
ATOM      9  C   UNL     1      -0.256  -0.649   6.119  0.00  0.00    -0.025 A 
ATOM     10  C   UNL     1      -0.245  -2.162   6.275  0.00  0.00    +0.037 C 
ATOM     11  C   UNL     1       0.099  -2.502   7.726  0.00  0.00    +0.005 C 
ATOM     12  C   UNL     1      -0.825  -1.735   8.676  0.00  0.00    +0.005 C 
ATOM     13  C   UNL     1      -0.451  -0.244   8.629  0.00  0.00    +0.043 C 
ENDBRANCH   2   5
BRANCH   1  20
ATOM     14  C   UNL     1      -1.266   1.183   0.183  0.00  0.00    +0.045 C 
ATOM     15  C   UNL     1      -0.586  -0.158   0.085  0.00  0.00    -0.029 A 
ATOM     16  C   UNL     1      -0.576  -0.839  -1.118  0.00  0.00    +0.006 A 
ATOM     17  C   UNL     1       0.045  -2.068  -1.215  0.00  0.00    +0.013 A 
ATOM     18  C   UNL     1       0.665  -2.627  -0.096  0.00  0.00    +0.040 A 
ATOM     19  C   UNL     1       0.655  -1.940   1.117  0.00  0.00    +0.036 A 
ATOM     20  C   UNL     1       0.033  -0.704   1.203  0.00  0.00    +0.037 A 
BRANCH  18  21
ATOM     21  C   UNL     1       1.331  -3.943  -0.197  0.00  0.00    +0.248 A 
ATOM     22  N   UNL     1       1.943  -4.583   0.772  0.00  0.00    -0.108 NA
ATOM     23  N   UNL     1       2.401  -5.697   0.321  0.00  0.00    -0.116 NA
ATOM     24  C   UNL     1       2.102  -5.812  -0.943  0.00  0.00    +0.332 A 
ATOM     25  O   UNL     1       1.416  -4.713  -1.300  0.00  0.00    -0.423 OA
ENDBRANCH  18  21
ENDBRANCH   1  20
TORSDOF 3
