REMARK  Name = ZINC17112550
REMARK  9 active torsions:
REMARK  status: ('A' for Active; 'I' for Inactive)
REMARK    1  A    between atoms: C_1  and  C_2
REMARK    2  A    between atoms: N_5  and  C_11
REMARK    3  A    between atoms: C_7  and  C_10
REMARK    4  A    between atoms: C_11  and  C_12
REMARK    5  A    between atoms: C_12  and  O_13
REMARK    6  A    between atoms: O_13  and  C_14
REMARK    7  A    between atoms: C_17  and  C_21
REMARK    8  A    between atoms: C_18  and  O_20
REMARK    9  A    between atoms: C_22  and  C_27
REMARK                            x       y       z     vdW  Elec       q    Type
REMARK                         _______ _______ _______ _____ _____    ______ ____
ROOT
ATOM      1  C   UNL     1      -2.069  -6.103   0.844  0.00  0.00    +0.124 A 
ATOM      2  C   UNL     1      -2.276  -6.711  -0.388  0.00  0.00    +0.046 A 
ATOM      3  C   UNL     1      -2.137  -8.077  -0.518  0.00  0.00    +0.017 A 
ATOM      4  C   UNL     1      -1.787  -8.850   0.587  0.00  0.00    +0.044 A 
ATOM      5  C   UNL     1      -1.578  -8.237   1.827  0.00  0.00    +0.130 A 
ATOM      6  C   UNL     1      -1.715  -6.865   1.947  0.00  0.00    +0.091 A 
ENDROOT
BRANCH   4   7
ATOM      7  C   UNL     1      -1.637 -10.319   0.450  0.00  0.00    +0.104 A 
ATOM      8  C   UNL     1      -2.555 -11.197  -0.181  0.00  0.00    +0.027 A 
ATOM      9  C   UNL     1      -2.044 -12.457  -0.091  0.00  0.00    +0.114 A 
ATOM     10  N   UNL     1      -0.866 -12.380   0.562  0.00  0.00    -0.284 N 
ATOM     11  H   UNL     1      -0.282 -13.126   0.768  0.00  0.00    +0.188 HD
ATOM     12  N   UNL     1      -0.627 -11.039   0.886  0.00  0.00    -0.173 NA
BRANCH   8  13
ATOM     13  C   UNL     1      -3.837 -10.813  -0.822  0.00  0.00    -0.014 A 
ATOM     14  C   UNL     1      -4.782 -10.077  -0.110  0.00  0.00    +0.010 A 
ATOM     15  C   UNL     1      -5.973  -9.723  -0.710  0.00  0.00    +0.016 A 
ATOM     16  C   UNL     1      -6.230 -10.099  -2.017  0.00  0.00    +0.018 A 
ATOM     17  C   UNL     1      -5.295 -10.831  -2.729  0.00  0.00    +0.016 A 
ATOM     18  C   UNL     1      -4.098 -11.184  -2.139  0.00  0.00    +0.010 A 
ATOM     19 BR   UNL     1      -7.864  -9.611  -2.833  0.00  0.00    -0.050 Br
ENDBRANCH   8  13
ENDBRANCH   4   7
BRANCH   5  20
ATOM     20  O   UNL     1      -1.238  -8.985   2.908  0.00  0.00    -0.506 OA
ATOM     21  H   UNL     1      -0.284  -9.097   3.025  0.00  0.00    +0.292 HD
ENDBRANCH   5  20
BRANCH   1  22
ATOM     22  O   UNL     1      -2.208  -4.757   0.966  0.00  0.00    -0.491 OA
BRANCH  22  23
ATOM     23  C   UNL     1      -2.574  -4.033  -0.210  0.00  0.00    +0.244 C 
BRANCH  23  24
ATOM     24  C   UNL     1      -2.682  -2.543   0.121  0.00  0.00    +0.125 C 
BRANCH  24  28
ATOM     25  C   UNL     1       1.774  -1.107  -1.397  0.00  0.00    +0.039 C 
ATOM     26  C   UNL     1       0.886  -1.377  -0.180  0.00  0.00    +0.130 C 
ATOM     27  C   UNL     1      -0.492  -1.850  -0.647  0.00  0.00    +0.116 C 
ATOM     28  N   UNL     1      -1.364  -2.034   0.522  0.00  0.00    -0.294 NA
ATOM     29  C   UNL     1      -1.492  -0.779   1.278  0.00  0.00    +0.116 C 
ATOM     30  C   UNL     1      -0.103  -0.317   1.726  0.00  0.00    +0.130 C 
ATOM     31  O   UNL     1       0.740  -0.174   0.580  0.00  0.00    -0.371 OA
ATOM     32  C   UNL     1      -0.221   1.029   2.446  0.00  0.00    +0.039 C 
ENDBRANCH  24  28
ENDBRANCH  23  24
ENDBRANCH  22  23
ENDBRANCH   1  22
TORSDOF 7
