REMARK  Name = ZINC13981154
REMARK  10 active torsions:
REMARK  status: ('A' for Active; 'I' for Inactive)
REMARK    1  A    between atoms: C_1  and  C_2
REMARK    2  A    between atoms: C_5  and  C_9
REMARK    3  A    between atoms: N_11  and  C_12
REMARK    4  A    between atoms: C_12  and  N_14
REMARK    5  A    between atoms: N_14  and  N_15
REMARK    6  A    between atoms: C_16  and  C_18
REMARK    7  A    between atoms: C_18  and  O_19
REMARK    8  A    between atoms: O_19  and  C_20
REMARK    9  A    between atoms: C_22  and  C_27
REMARK   10  A    between atoms: C_24  and  C_26
REMARK                            x       y       z     vdW  Elec       q    Type
REMARK                         _______ _______ _______ _____ _____    ______ ____
ROOT
ATOM      1  N   UNL     1       6.288   6.013  -0.028  0.00  0.00    -0.245 N 
ATOM      2  H   UNL     1       7.065   5.432  -0.039  0.00  0.00    +0.172 HD
ENDROOT
BRANCH   1   3
ATOM      3  N   UNL     1       5.000   5.461  -0.018  0.00  0.00    -0.232 N 
ATOM      4  C   UNL     1       4.841   4.123  -0.024  0.00  0.00    +0.267 C 
ATOM      5  O   UNL     1       5.812   3.397  -0.037  0.00  0.00    -0.271 OA
ATOM      6  H   UNL     1       4.224   6.043  -0.008  0.00  0.00    +0.173 HD
BRANCH   4   7
ATOM      7  C   UNL     1       3.456   3.530  -0.013  0.00  0.00    +0.326 C 
BRANCH   7   8
ATOM      8  O   UNL     1       3.548   2.104  -0.021  0.00  0.00    -0.483 OA
BRANCH   8   9
ATOM      9  C   UNL     1       2.380   1.409  -0.013  0.00  0.00    +0.122 A 
ATOM     10  C   UNL     1       1.169   2.087   0.002  0.00  0.00    +0.049 A 
ATOM     11  C   UNL     1      -0.017   1.378   0.010  0.00  0.00    -0.047 A 
ATOM     12  C   UNL     1       0.002  -0.004   0.002  0.00  0.00    +0.007 A 
ATOM     13  C   UNL     1       1.207  -0.681  -0.013  0.00  0.00    -0.047 A 
ATOM     14  C   UNL     1       2.396   0.022  -0.020  0.00  0.00    +0.049 A 
ATOM     15  C   UNL     1       1.224  -2.188  -0.020  0.00  0.00    +0.044 C 
ATOM     16  C   UNL     1      -1.332   2.114   0.020  0.00  0.00    +0.044 C 
ENDBRANCH   8   9
ENDBRANCH   7   8
ENDBRANCH   4   7
ENDBRANCH   1   3
BRANCH   1  17
ATOM     17  C   UNL     1       6.448   7.351  -0.023  0.00  0.00    +0.153 C 
ATOM     18  S   UNL     1       8.022   8.026  -0.035  0.00  0.00    -0.017 S 
BRANCH  17  21
ATOM     19  C   UNL     1       5.529   9.497  -0.003  0.00  0.00    +0.250 C 
ATOM     20  O   UNL     1       6.646   9.976  -0.012  0.00  0.00    -0.270 OA
ATOM     21  N   UNL     1       5.369   8.159  -0.008  0.00  0.00    -0.263 N 
ATOM     22  H   UNL     1       4.477   7.777  -0.002  0.00  0.00    +0.157 HD
BRANCH  19  27
ATOM     23  C   UNL     1       0.921  12.943   0.061  0.00  0.00    +0.045 C 
ATOM     24  C   UNL     1       2.128  12.041   0.043  0.00  0.00    -0.037 A 
ATOM     25  C   UNL     1       1.961  10.667   0.038  0.00  0.00    +0.005 A 
ATOM     26  C   UNL     1       3.061   9.836   0.017  0.00  0.00    +0.013 A 
ATOM     27  C   UNL     1       4.346  10.382   0.013  0.00  0.00    +0.038 A 
ATOM     28  C   UNL     1       4.508  11.769   0.018  0.00  0.00    +0.027 A 
ATOM     29  C   UNL     1       3.398  12.590   0.033  0.00  0.00    +0.017 A 
ATOM     30  I   UNL     1       3.638  14.671   0.041  0.00  0.00    -0.044 I 
ENDBRANCH  19  27
ENDBRANCH  17  21
ENDBRANCH   1  17
TORSDOF 7
