REMARK  Name = ZINC39711374
REMARK  11 active torsions:
REMARK  status: ('A' for Active; 'I' for Inactive)
REMARK    1  A    between atoms: C_1  and  C_2
REMARK    2  A    between atoms: C_7  and  N_8
REMARK    3  A    between atoms: N_11  and  C_14
REMARK    4  A    between atoms: C_14  and  C_16
REMARK    5  A    between atoms: C_14  and  C_30
REMARK    6  A    between atoms: C_22  and  O_28
REMARK    7  A    between atoms: O_28  and  C_29
REMARK    8  A    between atoms: N_35  and  C_36
REMARK    9  A    between atoms: C_36  and  C_37
REMARK   10  A    between atoms: C_36  and  C_38
REMARK   11  A    between atoms: C_36  and  C_39
REMARK                            x       y       z     vdW  Elec       q    Type
REMARK                         _______ _______ _______ _____ _____    ______ ____
ROOT
ATOM      1  C   UNL     1       0.029   0.246   6.513  0.00  0.00    -0.009 C 
ENDROOT
BRANCH   1   2
ATOM      2  C   UNL     1      -1.207   0.765   7.253  0.00  0.00    +0.088 C 
ATOM      3  C   UNL     1      -1.194   0.176   8.649  0.00  0.00    -0.006 C 
ATOM      4  C   UNL     1      -1.195   1.047   9.695  0.00  0.00    -0.007 A 
ATOM      5  C   UNL     1      -1.182   0.558  11.076  0.00  0.00    +0.013 A 
ATOM      6  C   UNL     1      -1.184   1.454  12.091  0.00  0.00    +0.046 A 
ATOM      7  C   UNL     1      -1.197   2.835  11.844  0.00  0.00    +0.122 A 
ATOM      8  C   UNL     1      -1.209   3.354  10.568  0.00  0.00    +0.069 A 
ATOM      9  C   UNL     1      -1.209   2.502   9.456  0.00  0.00    +0.044 A 
ATOM     10  N   UNL     1      -1.221   3.016   8.224  0.00  0.00    -0.284 N 
ATOM     11  C   UNL     1      -1.220   2.272   7.133  0.00  0.00    +0.223 C 
ATOM     12  O   UNL     1      -1.230   2.798   6.036  0.00  0.00    -0.275 OA
ATOM     13  H   UNL     1      -1.230   3.981   8.126  0.00  0.00    +0.155 HD
BRANCH   7  14
ATOM     14  O   UNL     1      -1.198   3.687  12.897  0.00  0.00    -0.495 OA
ATOM     15  C   UNL     1      -1.185   3.106  14.202  0.00  0.00    +0.277 C 
ENDBRANCH   7  14
ENDBRANCH   1   2
BRANCH   1  19
ATOM     16  N   UNL     1      -0.316   0.238   2.343  0.00  0.00    -0.333 N 
ATOM     17  C   UNL     1      -1.479   0.714   3.109  0.00  0.00    +0.086 C 
ATOM     18  C   UNL     1      -1.348   0.214   4.551  0.00  0.00    -0.059 C 
ATOM     19  N   UNL     1      -0.051   0.630   5.098  0.00  0.00    +0.387 N 
ATOM     20  C   UNL     1       1.037  -0.019   4.354  0.00  0.00    -0.059 C 
ATOM     21  C   UNL     1       1.024   0.466   2.905  0.00  0.00    +0.086 C 
ATOM     22  H   UNL     1       0.040   1.632   5.018  0.00  0.00    -0.081 HD
BRANCH  16  29
ATOM     23  C   UNL     1      -0.347   1.812  -0.026  0.00  0.00    +0.045 C 
ATOM     24  C   UNL     1      -0.502   0.313  -0.062  0.00  0.00    -0.029 A 
ATOM     25  C   UNL     1      -0.658  -0.337  -1.270  0.00  0.00    +0.006 A 
ATOM     26  C   UNL     1      -0.800  -1.712  -1.304  0.00  0.00    +0.020 A 
ATOM     27  C   UNL     1      -0.786  -2.442  -0.128  0.00  0.00    +0.043 A 
ATOM     28  C   UNL     1      -0.630  -1.797   1.084  0.00  0.00    +0.043 A 
ATOM     29  C   UNL     1      -0.481  -0.416   1.120  0.00  0.00    +0.034 A 
ATOM     30 CL   UNL     1      -0.965  -4.168  -0.176  0.00  0.00    -0.083 Cl
ENDBRANCH  16  29
ENDBRANCH   1  19
BRANCH   1  31
ATOM     31  C   UNL     1       1.288   0.852   7.136  0.00  0.00    +0.205 C 
ATOM     32  N   UNL     1       1.404   2.272   6.779  0.00  0.00    -0.152 NA
ATOM     33  N   UNL     1       2.447   2.440   6.143  0.00  0.00    -0.070 NA
ATOM     34  N   UNL     1       3.169   1.260   5.966  0.00  0.00    -0.179 N 
ATOM     35  N   UNL     1       2.498   0.224   6.567  0.00  0.00    -0.183 NA
ATOM     36  H   UNL     1       4.013   1.184   5.494  0.00  0.00    +0.191 HD
BRANCH  35  37
ATOM     37  C   UNL     1       3.315  -0.395   7.620  0.00  0.00    +0.035 C 
ATOM     38  C   UNL     1       2.480  -1.437   8.367  0.00  0.00    +0.029 C 
ATOM     39  C   UNL     1       4.532  -1.075   6.989  0.00  0.00    +0.029 C 
ATOM     40  C   UNL     1       3.784   0.682   8.601  0.00  0.00    +0.029 C 
ENDBRANCH  35  37
ENDBRANCH   1  31
TORSDOF 6
