REMARK  Name = ZINC06466110
REMARK  7 active torsions:
REMARK  status: ('A' for Active; 'I' for Inactive)
REMARK    1  A    between atoms: C_1  and  C_2
REMARK    2  A    between atoms: C_3  and  C_24
REMARK    3  A    between atoms: C_9  and  C_11
REMARK    4  A    between atoms: C_11  and  S_12
REMARK    5  A    between atoms: S_12  and  C_13
REMARK    6  A    between atoms: C_13  and  C_14
REMARK    7  A    between atoms: N_16  and  C_17
REMARK                            x       y       z     vdW  Elec       q    Type
REMARK                         _______ _______ _______ _____ _____    ______ ____
ROOT
ATOM      1  C   UNL     1      -0.018   1.503   0.010  0.00  0.00    +0.045 C 
ATOM      2  C   UNL     1       0.002  -0.004   0.002  0.00  0.00    -0.026 A 
ATOM      3  C   UNL     1       0.006  -0.677  -1.160  0.00  0.00    -0.008 A 
ATOM      4  S   UNL     1       0.032  -2.385  -0.648  0.00  0.00    -0.073 S 
ATOM      5  C   UNL     1       0.037  -2.144   1.110  0.00  0.00    +0.116 A 
ATOM      6  C   UNL     1       0.024  -0.745   1.250  0.00  0.00    +0.075 A 
ATOM      7  C   UNL     1       0.029  -0.257   2.597  0.00  0.00    +0.260 A 
ATOM      8  N   UNL     1       0.051  -1.142   3.611  0.00  0.00    -0.310 N 
ATOM      9  C   UNL     1       0.067  -2.480   3.380  0.00  0.00    +0.121 A 
ATOM     10  N   UNL     1       0.054  -2.956   2.163  0.00  0.00    -0.226 NA
ATOM     11  O   UNL     1       0.015   0.942   2.821  0.00  0.00    -0.267 OA
ATOM     12  C   UNL     1      -0.009  -0.122  -2.561  0.00  0.00    +0.052 C 
ATOM     13  H   UNL     1       0.055  -0.817   4.525  0.00  0.00    +0.170 HD
ENDROOT
BRANCH   9  14
ATOM     14  C   UNL     1       0.091  -3.432   4.547  0.00  0.00    +0.143 C 
BRANCH  14  15
ATOM     15  S   UNL     1       0.110  -5.139   3.935  0.00  0.00    -0.144 S 
BRANCH  15  16
ATOM     16  C   UNL     1       0.138  -6.147   5.443  0.00  0.00    +0.165 C 
BRANCH  16  17
ATOM     17  C   UNL     1       0.155  -7.607   5.072  0.00  0.00    +0.223 C 
ATOM     18  O   UNL     1       0.148  -7.936   3.904  0.00  0.00    -0.275 OA
ATOM     19  N   UNL     1       0.177  -8.548   6.037  0.00  0.00    -0.312 N 
ATOM     20  H   UNL     1       0.182  -8.284   6.970  0.00  0.00    +0.149 HD
BRANCH  19  21
ATOM     21  C   UNL     1       0.193  -9.967   5.676  0.00  0.00    +0.073 C 
ATOM     22  C   UNL     1       1.634 -10.411   5.415  0.00  0.00    +0.022 C 
ATOM     23  C   UNL     1       1.652 -11.893   5.038  0.00  0.00    +0.002 C 
ATOM     24  C   UNL     1       1.064 -12.718   6.185  0.00  0.00    +0.000 C 
ATOM     25  C   UNL     1      -0.377 -12.275   6.446  0.00  0.00    +0.002 C 
ATOM     26  C   UNL     1      -0.394 -10.792   6.823  0.00  0.00    +0.022 C 
ENDBRANCH  19  21
ENDBRANCH  16  17
ENDBRANCH  15  16
ENDBRANCH  14  15
ENDBRANCH   9  14
TORSDOF 5
