REMARK  Name = ZINC63829837
REMARK  5 active torsions:
REMARK  status: ('A' for Active; 'I' for Inactive)
REMARK    1  A    between atoms: C_10  and  N_12
REMARK    2  A    between atoms: C_13  and  C_15
REMARK    3  A    between atoms: C_15  and  N_16
REMARK    4  A    between atoms: C_19  and  C_24
REMARK    5  A    between atoms: C_24  and  C_25
REMARK                            x       y       z     vdW  Elec       q    Type
REMARK                         _______ _______ _______ _____ _____    ______ ____
ROOT
ATOM      1  N   UNL     1       6.883   2.950   0.685  0.00  0.00    -0.216 N 
ATOM      2  C   UNL     1       8.034   2.878  -0.013  0.00  0.00    +0.244 C 
ATOM      3  O   UNL     1       8.729   1.899  -0.180  0.00  0.00    -0.273 OA
ATOM      4  C   UNL     1       8.277   4.276  -0.546  0.00  0.00    +0.165 C 
ATOM      5  N   UNL     1       7.128   5.045  -0.039  0.00  0.00    -0.287 N 
ATOM      6  C   UNL     1       6.369   4.185   0.663  0.00  0.00    +0.310 C 
ATOM      7  O   UNL     1       5.333   4.495   1.218  0.00  0.00    -0.252 OA
ATOM      8  H   UNL     1       6.951   5.988  -0.185  0.00  0.00    +0.151 HD
ENDROOT
BRANCH   1   9
ATOM      9  C   UNL     1       6.269   1.814   1.377  0.00  0.00    +0.213 C 
BRANCH   9  11
ATOM     10  N   UNL     1       4.649   0.018   0.860  0.00  0.00    -0.307 N 
ATOM     11  C   UNL     1       5.330   1.101   0.438  0.00  0.00    +0.231 C 
ATOM     12  O   UNL     1       5.189   1.502  -0.698  0.00  0.00    -0.274 OA
ATOM     13  H   UNL     1       4.762  -0.302   1.769  0.00  0.00    +0.149 HD
BRANCH  10  23
ATOM     14  C   UNL     1      -0.017   1.375   0.010  0.00  0.00    +0.000 A 
ATOM     15  C   UNL     1       1.174   2.078   0.002  0.00  0.00    +0.000 A 
ATOM     16  C   UNL     1       2.372   1.395  -0.016  0.00  0.00    +0.006 A 
ATOM     17  C   UNL     1       2.393   0.006  -0.025  0.00  0.00    -0.024 A 
ATOM     18  C   UNL     1       1.208  -0.694  -0.013  0.00  0.00    -0.042 A 
ATOM     19  C   UNL     1       0.002  -0.004   0.002  0.00  0.00    +0.004 A 
ATOM     20  C   UNL     1       1.155  -2.199  -0.005  0.00  0.00    +0.035 C 
ATOM     21  C   UNL     1       2.493  -2.786  -0.452  0.00  0.00    +0.007 C 
ATOM     22  C   UNL     1       3.607  -2.135   0.376  0.00  0.00    +0.027 C 
ATOM     23  C   UNL     1       3.736  -0.675  -0.053  0.00  0.00    +0.103 C 
ENDBRANCH  10  23
ENDBRANCH   9  11
ENDBRANCH   1   9
BRANCH   4  24
ATOM     24  C   UNL     1       8.294   4.273  -2.076  0.00  0.00    +0.065 C 
BRANCH  24  25
ATOM     25  C   UNL     1       8.659   5.647  -2.577  0.00  0.00    -0.039 C 
ATOM     26  C   UNL     1       9.889   6.084  -2.929  0.00  0.00    -0.001 A 
ATOM     27  C   UNL     1      11.207   5.437  -2.949  0.00  0.00    +0.010 A 
ATOM     28  C   UNL     1      12.281   6.148  -3.361  0.00  0.00    +0.001 A 
ATOM     29  C   UNL     1      12.168   7.484  -3.767  0.00  0.00    +0.002 A 
ATOM     30  C   UNL     1      10.992   8.147  -3.776  0.00  0.00    +0.026 A 
ATOM     31  C   UNL     1       9.797   7.496  -3.364  0.00  0.00    +0.043 A 
ATOM     32  N   UNL     1       8.558   7.916  -3.283  0.00  0.00    -0.380 N 
ATOM     33  C   UNL     1       7.722   6.814  -2.794  0.00  0.00    +0.144 C 
ATOM     34  H   UNL     1       8.245   8.805  -3.513  0.00  0.00    +0.160 HD
ENDBRANCH  24  25
ENDBRANCH   4  24
TORSDOF 5
