REMARK  Name = ZINC27569264
REMARK  9 active torsions:
REMARK  status: ('A' for Active; 'I' for Inactive)
REMARK    1  A    between atoms: C_1  and  C_2
REMARK    2  A    between atoms: C_2  and  C_3
REMARK    3  A    between atoms: C_2  and  N_4
REMARK    4  A    between atoms: N_4  and  C_5
REMARK    5  A    between atoms: N_4  and  S_6
REMARK    6  A    between atoms: S_6  and  C_9
REMARK    7  A    between atoms: C_13  and  C_15
REMARK    8  A    between atoms: N_17  and  N_18
REMARK    9  A    between atoms: N_18  and  C_19
REMARK                            x       y       z     vdW  Elec       q    Type
REMARK                         _______ _______ _______ _____ _____    ______ ____
ROOT
ATOM      1  C   UNL     1      -2.406  -1.320   1.114  0.00  0.00    +0.106 A 
ATOM      2  C   UNL     1      -3.393  -0.520   1.663  0.00  0.00    +0.030 A 
ATOM      3  C   UNL     1      -4.728  -0.801   1.434  0.00  0.00    +0.022 A 
ATOM      4  C   UNL     1      -5.084  -1.890   0.662  0.00  0.00    +0.053 A 
ATOM      5  C   UNL     1      -4.093  -2.704   0.109  0.00  0.00    +0.058 A 
ATOM      6  C   UNL     1      -2.748  -2.410   0.341  0.00  0.00    +0.043 A 
ATOM      7 CL   UNL     1      -6.760  -2.245   0.379  0.00  0.00    -0.083 Cl
ENDROOT
BRANCH   5   8
ATOM      8  C   UNL     1      -4.466  -3.870  -0.719  0.00  0.00    +0.262 C 
ATOM      9  O   UNL     1      -5.638  -4.123  -0.919  0.00  0.00    -0.269 OA
ATOM     10  N   UNL     1      -3.507  -4.653  -1.251  0.00  0.00    -0.232 N 
ATOM     11  H   UNL     1      -2.446  -4.424  -1.070  0.00  0.00    +0.173 HD
BRANCH  10  12
ATOM     12  N   UNL     1      -3.861  -5.759  -2.035  0.00  0.00    -0.261 N 
ATOM     13  H   UNL     1      -4.915  -5.934  -2.295  0.00  0.00    +0.170 HD
BRANCH  12  14
ATOM     14  C   UNL     1      -2.873  -6.639  -2.489  0.00  0.00    +0.081 A 
ATOM     15  C   UNL     1      -2.989  -7.230  -3.742  0.00  0.00    +0.066 A 
ATOM     16  C   UNL     1      -2.009  -8.096  -4.189  0.00  0.00    +0.042 A 
ATOM     17  C   UNL     1      -0.918  -8.382  -3.388  0.00  0.00    +0.044 A 
ATOM     18  C   UNL     1      -0.802  -7.800  -2.138  0.00  0.00    +0.042 A 
ATOM     19  C   UNL     1      -1.776  -6.929  -1.687  0.00  0.00    +0.066 A 
ATOM     20 CL   UNL     1      -1.630  -6.198  -0.119  0.00  0.00    -0.081 Cl
ATOM     21 CL   UNL     1       0.307  -9.475  -3.951  0.00  0.00    -0.083 Cl
ATOM     22 CL   UNL     1      -4.360  -6.875  -4.746  0.00  0.00    -0.081 Cl
ENDBRANCH  12  14
ENDBRANCH  10  12
ENDBRANCH   5   8
BRANCH   1  23
ATOM     23  S   UNL     1      -0.709  -0.949   1.408  0.00  0.00    +0.061 S 
ATOM     24  O   UNL     1       0.007  -2.165   1.241  0.00  0.00    -0.153 OA
ATOM     25  O   UNL     1      -0.661  -0.196   2.612  0.00  0.00    -0.153 OA
BRANCH  23  26
ATOM     26  N   UNL     1      -0.212   0.064   0.196  0.00  0.00    -0.177 NA
ATOM     27  C   UNL     1       0.348  -0.492  -1.039  0.00  0.00    +0.132 C 
BRANCH  26  29
ATOM     28  C   UNL     1       1.053   2.155   0.260  0.00  0.00    +0.025 C 
ATOM     29  C   UNL     1      -0.333   1.514   0.358  0.00  0.00    +0.073 C 
ATOM     30  C   UNL     1      -1.234   2.077  -0.743  0.00  0.00    +0.025 C 
ENDBRANCH  26  29
ENDBRANCH  23  26
ENDBRANCH   1  23
TORSDOF 6
