REMARK  Name = ZINC64604134
REMARK  9 active torsions:
REMARK  status: ('A' for Active; 'I' for Inactive)
REMARK    1  A    between atoms: C_1  and  C_2
REMARK    2  A    between atoms: C_7  and  C_35
REMARK    3  A    between atoms: C_8  and  N_14
REMARK    4  A    between atoms: C_15  and  C_17
REMARK    5  A    between atoms: C_17  and  C_18
REMARK    6  A    between atoms: C_18  and  C_19
REMARK    7  A    between atoms: C_21  and  C_24
REMARK    8  A    between atoms: C_24  and  S_25
REMARK    9  A    between atoms: S_25  and  C_26
REMARK                            x       y       z     vdW  Elec       q    Type
REMARK                         _______ _______ _______ _____ _____    ______ ____
ROOT
ATOM      1  C   UNL     1      -0.414  -3.581   9.073  0.00  0.00    +0.108 C 
ENDROOT
BRANCH   1   2
ATOM      2  C   UNL     1      -0.282  -3.065  10.483  0.00  0.00    +0.228 A 
ATOM      3  N   UNL     1      -1.266  -2.712  11.263  0.00  0.00    -0.195 NA
ATOM      4  C   UNL     1      -0.791  -2.302  12.444  0.00  0.00    +0.182 A 
ATOM      5  N   UNL     1       0.508  -2.391  12.430  0.00  0.00    -0.060 NA
ATOM      6  O   UNL     1       0.865  -2.896  11.152  0.00  0.00    -0.338 OA
BRANCH   4   7
ATOM      7  C   UNL     1      -1.624  -1.817  13.603  0.00  0.00    +0.152 C 
BRANCH   7   8
ATOM      8  S   UNL     1      -2.061  -3.223  14.664  0.00  0.00    -0.107 S 
BRANCH   8   9
ATOM      9  C   UNL     1      -3.048  -2.479  15.992  0.00  0.00    +0.236 C 
ATOM     10  N   UNL     1      -4.199  -1.765  15.425  0.00  0.00    -0.355 N 
ATOM     11  C   UNL     1      -4.089  -0.514  15.767  0.00  0.00    +0.061 A 
ATOM     12  C   UNL     1      -4.918   0.671  15.505  0.00  0.00    +0.027 A 
ATOM     13  C   UNL     1      -4.545   1.867  16.001  0.00  0.00    +0.002 A 
ATOM     14  C   UNL     1      -3.381   2.039  16.771  0.00  0.00    +0.002 A 
ATOM     15  C   UNL     1      -2.551   1.020  17.071  0.00  0.00    +0.027 A 
ATOM     16  C   UNL     1      -2.857  -0.332  16.582  0.00  0.00    +0.061 A 
ATOM     17  N   UNL     1      -2.252  -1.478  16.711  0.00  0.00    -0.355 N 
ATOM     18  H   UNL     1      -4.910  -2.153  14.892  0.00  0.00    +0.162 HD
ATOM     19  H   UNL     1      -1.427  -1.640  17.195  0.00  0.00    +0.162 HD
ENDBRANCH   8   9
ENDBRANCH   7   8
ENDBRANCH   4   7
ENDBRANCH   1   2
BRANCH   1  20
ATOM     20  C   UNL     1      -0.365  -2.407   8.094  0.00  0.00    +0.105 C 
BRANCH  20  22
ATOM     21  N   UNL     1      -0.481  -2.063   5.647  0.00  0.00    -0.299 N 
ATOM     22  C   UNL     1      -0.497  -2.924   6.684  0.00  0.00    +0.215 C 
ATOM     23  O   UNL     1      -0.619  -4.113   6.483  0.00  0.00    -0.276 OA
ATOM     24  H   UNL     1      -0.384  -1.111   5.808  0.00  0.00    +0.150 HD
BRANCH  21  31
ATOM     25  C   UNL     1      -0.019   1.526   0.010  0.00  0.00    +0.007 C 
ATOM     26  C   UNL     1       0.002  -0.004   0.002  0.00  0.00    -0.012 C 
ATOM     27  C   UNL     1      -1.431  -0.513  -0.029  0.00  0.00    +0.008 C 
ATOM     28  C   UNL     1      -2.092  -0.457   1.352  0.00  0.00    +0.033 C 
ATOM     29  C   UNL     1      -1.249  -1.342   2.270  0.00  0.00    -0.041 C 
ATOM     30  C   UNL     1      -1.587  -1.725   3.475  0.00  0.00    +0.060 C 
ATOM     31  C   UNL     1      -0.609  -2.565   4.276  0.00  0.00    +0.172 C 
ATOM     32  S   UNL     1       0.946  -2.294   3.318  0.00  0.00    -0.125 S 
ATOM     33  C   UNL     1       0.134  -1.770   1.756  0.00  0.00    +0.076 C 
ATOM     34  C   UNL     1       0.780  -0.492   1.223  0.00  0.00    +0.022 C 
BRANCH  30  35
ATOM     35  C   UNL     1      -2.857  -1.359   4.027  0.00  0.00    +0.098 C 
ATOM     36  N   UNL     1      -3.864  -1.069   4.465  0.00  0.00    -0.191 NA
ENDBRANCH  30  35
ENDBRANCH  21  31
ENDBRANCH  20  22
ENDBRANCH   1  20
TORSDOF 8
