REMARK  Name = ZINC65136281
REMARK  9 active torsions:
REMARK  status: ('A' for Active; 'I' for Inactive)
REMARK    1  A    between atoms: C_1  and  C_2
REMARK    2  A    between atoms: C_5  and  N_8
REMARK    3  A    between atoms: C_15  and  C_18
REMARK    4  A    between atoms: C_18  and  C_19
REMARK    5  A    between atoms: C_19  and  C_20
REMARK    6  A    between atoms: N_22  and  C_23
REMARK    7  A    between atoms: C_23  and  C_24
REMARK    8  A    between atoms: C_27  and  C_31
REMARK    9  A    between atoms: C_28  and  C_30
REMARK                            x       y       z     vdW  Elec       q    Type
REMARK                         _______ _______ _______ _____ _____    ______ ____
ROOT
ATOM      1  N   UNL     1      -0.006  -4.176  -0.016  0.00  0.00    -0.269 N 
ATOM      2  C   UNL     1       0.174  -4.849   1.138  0.00  0.00    +0.306 C 
ATOM      3  O   UNL     1       0.230  -4.245   2.192  0.00  0.00    -0.252 OA
ATOM      4  N   UNL     1       0.294  -6.191   1.123  0.00  0.00    -0.285 N 
ATOM      5  C   UNL     1       0.414  -6.918  -0.148  0.00  0.00    +0.109 C 
ATOM      6  C   UNL     1       1.663  -7.803  -0.093  0.00  0.00    +0.019 C 
ATOM      7  C   UNL     1       1.591  -8.704   1.142  0.00  0.00    +0.006 C 
ATOM      8  C   UNL     1       1.556  -7.840   2.405  0.00  0.00    +0.007 C 
ATOM      9  C   UNL     1       0.312  -6.955   2.378  0.00  0.00    +0.112 C 
ATOM     10  H   UNL     1      -0.178  -4.660  -0.839  0.00  0.00    +0.156 HD
ENDROOT
BRANCH   1  15
ATOM     11  C   UNL     1       0.239   1.492  -0.062  0.00  0.00    +0.044 C 
ATOM     12  C   UNL     1       0.174  -0.013  -0.050  0.00  0.00    -0.050 A 
ATOM     13  C   UNL     1       0.416  -0.724  -1.211  0.00  0.00    +0.005 A 
ATOM     14  C   UNL     1       0.357  -2.104  -1.203  0.00  0.00    +0.023 A 
ATOM     15  C   UNL     1       0.055  -2.778  -0.027  0.00  0.00    +0.035 A 
ATOM     16  C   UNL     1      -0.188  -2.061   1.137  0.00  0.00    +0.023 A 
ATOM     17  C   UNL     1      -0.122  -0.682   1.124  0.00  0.00    +0.005 A 
ENDBRANCH   1  15
BRANCH   8  18
ATOM     18  C   UNL     1       1.518  -8.742   3.640  0.00  0.00    +0.014 C 
BRANCH  18  19
ATOM     19  C   UNL     1       1.608  -7.882   4.902  0.00  0.00    +0.096 C 
BRANCH  19  20
ATOM     20  C   UNL     1       1.570  -8.771   6.119  0.00  0.00    +0.213 C 
ATOM     21  O   UNL     1       1.480  -9.973   5.989  0.00  0.00    -0.276 OA
ATOM     22  N   UNL     1       1.637  -8.229   7.351  0.00  0.00    -0.311 N 
ATOM     23  H   UNL     1       1.709  -7.267   7.455  0.00  0.00    +0.149 HD
BRANCH  22  24
ATOM     24  C   UNL     1       1.600  -9.092   8.534  0.00  0.00    +0.139 C 
BRANCH  24  25
ATOM     25  C   UNL     1       1.689  -8.245   9.777  0.00  0.00    -0.030 A 
ATOM     26  C   UNL     1       2.924  -7.939  10.318  0.00  0.00    +0.005 A 
ATOM     27  C   UNL     1       3.006  -7.162  11.458  0.00  0.00    +0.004 A 
ATOM     28  C   UNL     1       1.852  -6.691  12.058  0.00  0.00    -0.048 A 
ATOM     29  C   UNL     1       0.618  -6.997  11.517  0.00  0.00    -0.047 A 
ATOM     30  C   UNL     1       0.536  -7.770  10.374  0.00  0.00    +0.008 A 
ATOM     31  C   UNL     1      -0.639  -6.484  12.171  0.00  0.00    +0.044 C 
ATOM     32  C   UNL     1       1.941  -5.845  13.302  0.00  0.00    +0.044 C 
ENDBRANCH  24  25
ENDBRANCH  22  24
ENDBRANCH  19  20
ENDBRANCH  18  19
ENDBRANCH   8  18
TORSDOF 6
