REMARK  Name = ZINC14159694
REMARK  6 active torsions:
REMARK  status: ('A' for Active; 'I' for Inactive)
REMARK    1  A    between atoms: C_1  and  C_2
REMARK    2  A    between atoms: C_4  and  C_28
REMARK    3  A    between atoms: N_10  and  C_11
REMARK    4  A    between atoms: C_11  and  N_13
REMARK    5  A    between atoms: N_13  and  C_14
REMARK    6  A    between atoms: N_18  and  C_21
REMARK                            x       y       z     vdW  Elec       q    Type
REMARK                         _______ _______ _______ _____ _____    ______ ____
ROOT
ATOM      1  C   UNL     1      -3.733   2.784  -0.043  0.00  0.00    +0.066 C 
ATOM      2  C   UNL     1      -2.547   3.701   0.106  0.00  0.00    +0.044 A 
ATOM      3  C   UNL     1      -2.731   5.063   0.287  0.00  0.00    +0.046 A 
ATOM      4  C   UNL     1      -1.613   5.871   0.419  0.00  0.00    +0.044 A 
ATOM      5  N   UNL     1      -0.411   5.322   0.369  0.00  0.00    -0.219 NA
ATOM      6  C   UNL     1      -0.270   4.016   0.195  0.00  0.00    +0.222 A 
ATOM      7  N   UNL     1      -1.317   3.217   0.060  0.00  0.00    -0.219 NA
ATOM      8  N   UNL     1       1.008   3.474   0.147  0.00  0.00    -0.258 N 
ATOM      9  C   UNL     1       1.172   2.127  -0.032  0.00  0.00    +0.180 C 
ATOM     10  N   UNL     1       0.118   1.329  -0.058  0.00  0.00    -0.164 NA
ATOM     11  N   UNL     1       2.425   1.607  -0.185  0.00  0.00    -0.302 N 
ATOM     12  C   UNL     1       2.674   0.501  -1.123  0.00  0.00    +0.126 C 
ATOM     13  C   UNL     1       3.851   0.895  -2.030  0.00  0.00    +0.124 C 
ATOM     14  N   UNL     1       5.000   1.273  -1.196  0.00  0.00    -0.327 N 
ATOM     15  C   UNL     1       4.701   2.458  -0.382  0.00  0.00    +0.124 C 
ATOM     16  C   UNL     1       3.560   2.133   0.588  0.00  0.00    +0.126 C 
ATOM     17  C   UNL     1      -1.764   7.357   0.618  0.00  0.00    +0.066 C 
ATOM     18  H   UNL     1       1.783   4.049   0.240  0.00  0.00    +0.157 HD
ENDROOT
BRANCH  14  19
ATOM     19  C   UNL     1       6.140   1.477  -1.978  0.00  0.00    +0.031 A 
ATOM     20  C   UNL     1       6.819   2.688  -1.915  0.00  0.00    +0.023 A 
ATOM     21  C   UNL     1       7.948   2.885  -2.685  0.00  0.00    +0.003 A 
ATOM     22  C   UNL     1       8.398   1.883  -3.526  0.00  0.00    +0.020 A 
ATOM     23  C   UNL     1       7.722   0.678  -3.594  0.00  0.00    +0.043 A 
ATOM     24  C   UNL     1       6.593   0.472  -2.822  0.00  0.00    +0.043 A 
ATOM     25 CL   UNL     1       8.290  -0.577  -4.651  0.00  0.00    -0.083 Cl
ENDBRANCH  14  19
BRANCH  10  26
ATOM     26  C   UNL     1       0.284  -0.001  -0.075  0.00  0.00    +0.157 C 
ATOM     27  S   UNL     1       1.199  -0.765   1.154  0.00  0.00    -0.017 S 
BRANCH  26  28
ATOM     28  N   UNL     1      -0.270  -0.737  -1.059  0.00  0.00    -0.328 N 
ATOM     29  C   UNL     1      -0.089  -2.190  -1.077  0.00  0.00    +0.127 C 
ATOM     30  H   UNL     1      -0.789  -0.304  -1.755  0.00  0.00    +0.147 HD
ENDBRANCH  26  28
ENDBRANCH  10  26
TORSDOF 3
