REMARK  Name = ZINC36604329
REMARK  17 active torsions:
REMARK  status: ('A' for Active; 'I' for Inactive)
REMARK    1  A    between atoms: C_1  and  C_2
REMARK    2  A    between atoms: C_3  and  C_4
REMARK    3  A    between atoms: C_4  and  C_6
REMARK    4  A    between atoms: C_4  and  N_17
REMARK    5  A    between atoms: N_8  and  C_9
REMARK    6  A    between atoms: C_9  and  C_10
REMARK    7  A    between atoms: C_9  and  C_11
REMARK    8  A    between atoms: C_9  and  C_12
REMARK    9  A    between atoms: C_12  and  C_13
REMARK   10  A    between atoms: C_13  and  C_14
REMARK   11  A    between atoms: C_13  and  C_15
REMARK   12  A    between atoms: C_13  and  C_16
REMARK   13  A    between atoms: N_17  and  C_18
REMARK   14  A    between atoms: C_24  and  C_26
REMARK   15  A    between atoms: C_32  and  O_34
REMARK   16  A    between atoms: O_34  and  C_35
REMARK   17  A    between atoms: C_35  and  C_36
REMARK                            x       y       z     vdW  Elec       q    Type
REMARK                         _______ _______ _______ _____ _____    ______ ____
ROOT
ATOM      1  N   UNL     1       2.341  -0.094  -0.172  0.00  0.00    -0.254 N 
ATOM      2  C   UNL     1       1.043  -0.419  -0.009  0.00  0.00    +0.241 C 
ATOM      3  O   UNL     1       0.490  -0.196   1.047  0.00  0.00    -0.273 OA
ENDROOT
BRANCH   2   4
ATOM      4  C   UNL     1       0.280  -1.060  -1.139  0.00  0.00    +0.166 C 
ATOM      5  C   UNL     1      -0.101   0.007  -2.187  0.00  0.00    +0.033 C 
ATOM      6  C   UNL     1      -1.525  -0.426  -2.623  0.00  0.00    +0.021 C 
ATOM      7  C   UNL     1      -2.107  -0.967  -1.293  0.00  0.00    +0.112 C 
ATOM      8  N   UNL     1      -0.971  -1.642  -0.631  0.00  0.00    -0.256 N 
ATOM      9  C   UNL     1      -1.064  -2.626   0.285  0.00  0.00    +0.404 C 
ATOM     10  O   UNL     1      -0.056  -3.108   0.764  0.00  0.00    -0.226 OA
BRANCH   9  11
ATOM     11  O   UNL     1      -2.273  -3.075   0.671  0.00  0.00    -0.445 OA
BRANCH  11  12
ATOM     12  C   UNL     1      -2.297  -4.120   1.645  0.00  0.00    +0.269 C 
BRANCH  12  13
ATOM     13  C   UNL     1      -3.726  -4.490   1.951  0.00  0.00    -0.010 A 
ATOM     14  C   UNL     1      -4.407  -3.839   2.962  0.00  0.00    +0.007 A 
ATOM     15  C   UNL     1      -5.718  -4.178   3.242  0.00  0.00    +0.000 A 
ATOM     16  C   UNL     1      -6.347  -5.168   2.510  0.00  0.00    +0.000 A 
ATOM     17  C   UNL     1      -5.666  -5.819   1.499  0.00  0.00    +0.000 A 
ATOM     18  C   UNL     1      -4.357  -5.476   1.216  0.00  0.00    +0.007 A 
ENDBRANCH  12  13
ENDBRANCH  11  12
ENDBRANCH   9  11
ENDBRANCH   2   4
BRANCH   1  19
ATOM     19  C   UNL     1       3.071   0.429   0.901  0.00  0.00    +0.037 A 
ATOM     20  C   UNL     1       4.360   0.905   0.700  0.00  0.00    +0.023 A 
ATOM     21  C   UNL     1       5.077   1.421   1.761  0.00  0.00    +0.002 A 
ATOM     22  C   UNL     1       4.514   1.464   3.023  0.00  0.00    +0.000 A 
ATOM     23  C   UNL     1       3.231   0.992   3.227  0.00  0.00    +0.002 A 
ATOM     24  C   UNL     1       2.506   0.479   2.169  0.00  0.00    +0.023 A 
ENDBRANCH   1  19
BRANCH   1  25
ATOM     25  C   UNL     1       2.987  -0.288  -1.472  0.00  0.00    +0.190 C 
BRANCH  25  26
ATOM     26  C   UNL     1       4.145  -1.241  -1.320  0.00  0.00    +0.238 C 
ATOM     27  O   UNL     1       4.404  -1.712  -0.233  0.00  0.00    -0.273 OA
ATOM     28  N   UNL     1       4.892  -1.571  -2.392  0.00  0.00    -0.308 N 
ATOM     29  H   UNL     1       4.684  -1.194  -3.262  0.00  0.00    +0.149 HD
BRANCH  28  30
ATOM     30  C   UNL     1       6.017  -2.497  -2.244  0.00  0.00    +0.030 C 
ATOM     31  C   UNL     1       7.063  -1.885  -1.311  0.00  0.00    +0.031 C 
ATOM     32  C   UNL     1       5.517  -3.817  -1.654  0.00  0.00    +0.031 C 
BRANCH  30  33
ATOM     33  C   UNL     1       6.647  -2.757  -3.614  0.00  0.00    +0.031 C 
BRANCH  33  34
ATOM     34  C   UNL     1       5.648  -3.504  -4.501  0.00  0.00    -0.036 C 
ATOM     35  C   UNL     1       4.287  -2.809  -4.434  0.00  0.00    +0.010 C 
ATOM     36  C   UNL     1       6.150  -3.504  -5.946  0.00  0.00    +0.010 C 
ATOM     37  C   UNL     1       5.509  -4.946  -4.010  0.00  0.00    +0.010 C 
ENDBRANCH  33  34
ENDBRANCH  30  33
ENDBRANCH  28  30
ENDBRANCH  25  26
BRANCH  25  40
ATOM     38  C   UNL     1       3.817   3.448  -1.791  0.00  0.00    +0.035 C 
ATOM     39  C   UNL     1       3.313   2.124  -1.277  0.00  0.00    -0.032 C 
ATOM     40  C   UNL     1       3.491   1.036  -1.985  0.00  0.00    +0.000 C 
ENDBRANCH  25  40
ENDBRANCH   1  25
TORSDOF 11
