REMARK  Name = ZINC09705763
REMARK  8 active torsions:
REMARK  status: ('A' for Active; 'I' for Inactive)
REMARK    1  A    between atoms: C_1  and  C_2
REMARK    2  A    between atoms: C_5  and  N_12
REMARK    3  A    between atoms: C_8  and  C_10
REMARK    4  A    between atoms: C_8  and  C_11
REMARK    5  A    between atoms: C_13  and  C_15
REMARK    6  A    between atoms: N_17  and  C_18
REMARK    7  A    between atoms: C_26  and  C_27
REMARK    8  A    between atoms: N_29  and  C_30
REMARK                            x       y       z     vdW  Elec       q    Type
REMARK                         _______ _______ _______ _____ _____    ______ ____
ROOT
ATOM      1  C   UNL     1      -2.256   5.112  -0.755  0.00  0.00    +0.093 A 
ATOM      2  C   UNL     1      -2.167   3.662  -0.542  0.00  0.00    +0.042 A 
ATOM      3  C   UNL     1      -1.132   2.796  -0.187  0.00  0.00    +0.013 A 
ATOM      4  C   UNL     1      -1.381   1.457  -0.067  0.00  0.00    +0.001 A 
ATOM      5  C   UNL     1      -2.654   0.956  -0.296  0.00  0.00    +0.004 A 
ATOM      6  C   UNL     1      -3.689   1.796  -0.648  0.00  0.00    +0.047 A 
ATOM      7  C   UNL     1      -3.459   3.161  -0.775  0.00  0.00    +0.138 A 
ATOM      8  O   UNL     1      -4.255   4.202  -1.092  0.00  0.00    -0.448 OA
ATOM      9  C   UNL     1      -3.559   5.361  -1.090  0.00  0.00    +0.212 A 
ENDROOT
BRANCH   1  12
ATOM     10  C   UNL     1       0.048   5.657  -0.827  0.00  0.00    +0.303 C 
ATOM     11  O   UNL     1       0.298   4.518  -1.163  0.00  0.00    -0.265 OA
ATOM     12  N   UNL     1      -1.230   6.040  -0.639  0.00  0.00    -0.274 N 
ATOM     13  H   UNL     1      -1.433   6.963  -0.423  0.00  0.00    +0.155 HD
BRANCH  10  15
ATOM     14  N   UNL     1       2.437   6.253  -0.811  0.00  0.00    -0.305 N 
ATOM     15  C   UNL     1       1.158   6.636  -0.623  0.00  0.00    +0.300 C 
ATOM     16  O   UNL     1       0.908   7.775  -0.288  0.00  0.00    -0.265 OA
ATOM     17  H   UNL     1       2.636   5.343  -1.079  0.00  0.00    +0.149 HD
BRANCH  14  21
ATOM     18  C   UNL     1       6.458   4.786  -1.189  0.00  0.00    +0.007 C 
ATOM     19  C   UNL     1       5.173   5.335  -0.567  0.00  0.00    -0.012 C 
ATOM     20  C   UNL     1       4.810   6.664  -1.234  0.00  0.00    +0.025 C 
ATOM     21  C   UNL     1       3.525   7.213  -0.611  0.00  0.00    +0.074 C 
ATOM     22  C   UNL     1       3.739   7.436   0.887  0.00  0.00    +0.028 C 
ATOM     23  C   UNL     1       4.101   6.108   1.554  0.00  0.00    -0.033 C 
ATOM     24  C   UNL     1       5.387   5.559   0.932  0.00  0.00    +0.009 C 
ATOM     25  C   UNL     1       2.965   5.106   1.345  0.00  0.00    +0.011 C 
ATOM     26  C   UNL     1       4.315   6.331   3.053  0.00  0.00    +0.011 C 
ENDBRANCH  14  21
ENDBRANCH  10  15
ENDBRANCH   1  12
BRANCH   9  27
ATOM     27  C   UNL     1      -4.116   6.679  -1.394  0.00  0.00    +0.285 C 
ATOM     28  O   UNL     1      -3.383   7.649  -1.455  0.00  0.00    -0.266 OA
ATOM     29  N   UNL     1      -5.439   6.819  -1.606  0.00  0.00    -0.279 N 
ATOM     30  H   UNL     1      -6.033   6.061  -1.485  0.00  0.00    +0.155 HD
BRANCH  29  31
ATOM     31  C   UNL     1      -5.957   8.057  -2.001  0.00  0.00    +0.034 A 
ATOM     32  C   UNL     1      -7.210   8.461  -1.557  0.00  0.00    +0.026 A 
ATOM     33  C   UNL     1      -7.721   9.681  -1.953  0.00  0.00    +0.040 A 
ATOM     34  C   UNL     1      -6.987  10.502  -2.792  0.00  0.00    +0.124 A 
ATOM     35  C   UNL     1      -5.737  10.102  -3.236  0.00  0.00    +0.040 A 
ATOM     36  C   UNL     1      -5.222   8.882  -2.842  0.00  0.00    +0.026 A 
ATOM     37  F   UNL     1      -7.489  11.695  -3.178  0.00  0.00    -0.205 F 
ENDBRANCH  29  31
ENDBRANCH   9  27
TORSDOF 5
