REMARK  Name = ZINC65246666
REMARK  5 active torsions:
REMARK  status: ('A' for Active; 'I' for Inactive)
REMARK    1  A    between atoms: C_4  and  N_7
REMARK    2  A    between atoms: N_10  and  S_13
REMARK    3  A    between atoms: S_13  and  C_16
REMARK    4  A    between atoms: C_18  and  C_21
REMARK    5  A    between atoms: C_24  and  C_26
REMARK                            x       y       z     vdW  Elec       q    Type
REMARK                         _______ _______ _______ _____ _____    ______ ____
ROOT
ATOM      1  S   UNL     1       7.273  -2.573   1.108  0.00  0.00    +0.094 S 
ATOM      2  O   UNL     1       6.996  -3.892   0.658  0.00  0.00    -0.150 OA
ATOM      3  O   UNL     1       8.203  -1.723   0.451  0.00  0.00    -0.150 OA
ENDROOT
BRANCH   1   7
ATOM      4  N   UNL     1       3.620  -0.649  -0.036  0.00  0.00    -0.327 N 
ATOM      5  C   UNL     1       4.886   0.088  -0.149  0.00  0.00    +0.122 C 
ATOM      6  C   UNL     1       5.786  -0.301   1.030  0.00  0.00    +0.128 C 
ATOM      7  N   UNL     1       5.827  -1.767   1.127  0.00  0.00    -0.171 NA
ATOM      8  C   UNL     1       4.560  -2.504   1.239  0.00  0.00    +0.128 C 
ATOM      9  C   UNL     1       3.660  -2.115   0.066  0.00  0.00    +0.122 C 
BRANCH   4  13
ATOM     10  C   UNL     1      -0.017   1.379   0.011  0.00  0.00    +0.000 A 
ATOM     11  C   UNL     1       0.002  -0.004  -0.013  0.00  0.00    +0.002 A 
ATOM     12  C   UNL     1       1.206  -0.680  -0.030  0.00  0.00    +0.023 A 
ATOM     13  C   UNL     1       2.400   0.031  -0.021  0.00  0.00    +0.030 A 
ATOM     14  C   UNL     1       2.377   1.420   0.004  0.00  0.00    +0.023 A 
ATOM     15  C   UNL     1       1.170   2.089   0.021  0.00  0.00    +0.002 A 
ENDBRANCH   4  13
ENDBRANCH   1   7
BRANCH   1  16
ATOM     16  C   UNL     1       7.812  -2.714   2.779  0.00  0.00    +0.259 A 
ATOM     17  C   UNL     1       7.525  -3.732   3.607  0.00  0.00    +0.084 A 
ATOM     18  C   UNL     1       8.185  -3.416   4.881  0.00  0.00    +0.078 A 
ATOM     19  C   UNL     1       8.810  -2.223   4.686  0.00  0.00    +0.210 A 
ATOM     20  O   UNL     1       8.580  -1.825   3.427  0.00  0.00    -0.444 OA
BRANCH  18  21
ATOM     21  C   UNL     1       8.172  -4.225   6.118  0.00  0.00    +0.251 A 
ATOM     22  N   UNL     1       7.567  -5.377   6.288  0.00  0.00    -0.107 NA
ATOM     23  N   UNL     1       7.770  -5.790   7.490  0.00  0.00    -0.112 NA
ATOM     24  C   UNL     1       8.506  -4.926   8.129  0.00  0.00    +0.221 A 
ATOM     25  O   UNL     1       8.783  -3.920   7.280  0.00  0.00    -0.420 OA
BRANCH  24  26
ATOM     26  C   UNL     1       8.969  -5.036   9.559  0.00  0.00    +0.077 C 
ATOM     27  C   UNL     1       9.335  -6.469   9.979  0.00  0.00    +0.013 C 
ATOM     28  C   UNL     1       8.656  -6.163  11.325  0.00  0.00    +0.001 C 
ATOM     29  C   UNL     1       7.817  -5.115  10.575  0.00  0.00    +0.013 C 
ENDBRANCH  24  26
ENDBRANCH  18  21
ENDBRANCH   1  16
TORSDOF 5
