REMARK  Name = ZINC08918570
REMARK  8 active torsions:
REMARK  status: ('A' for Active; 'I' for Inactive)
REMARK    1  A    between atoms: C_1  and  C_2
REMARK    2  A    between atoms: C_5  and  C_37
REMARK    3  A    between atoms: C_6  and  N_8
REMARK    4  A    between atoms: N_11  and  C_14
REMARK    5  A    between atoms: C_14  and  C_15
REMARK    6  A    between atoms: C_26  and  C_33
REMARK    7  A    between atoms: C_28  and  C_32
REMARK    8  A    between atoms: C_29  and  O_31
REMARK                            x       y       z     vdW  Elec       q    Type
REMARK                         _______ _______ _______ _____ _____    ______ ____
ROOT
ATOM      1  C   UNL     1      -0.986  -6.609   5.619  0.00  0.00    +0.090 C 
ATOM      2  C   UNL     1      -0.871  -8.031   6.191  0.00  0.00    +0.071 C 
ATOM      3  C   UNL     1      -2.253  -8.642   5.928  0.00  0.00    +0.187 C 
ATOM      4  C   UNL     1      -3.249  -8.313   7.041  0.00  0.00    +0.076 C 
ATOM      5  C   UNL     1      -2.617  -8.641   8.380  0.00  0.00    -0.061 C 
ATOM      6  C   UNL     1      -3.217  -9.498   9.149  0.00  0.00    -0.027 C 
ATOM      7  C   UNL     1      -2.665  -9.895  10.489  0.00  0.00    +0.027 C 
ATOM      8  C   UNL     1      -1.140  -9.800  10.429  0.00  0.00    +0.008 C 
ATOM      9  C   UNL     1      -0.718  -8.394  10.027  0.00  0.00    -0.001 C 
ATOM     10  C   UNL     1      -1.339  -7.935   8.716  0.00  0.00    +0.018 C 
ATOM     11  C   UNL     1      -0.333  -8.118   7.582  0.00  0.00    +0.132 C 
ATOM     12  C   UNL     1      -1.641  -6.438   8.877  0.00  0.00    +0.018 C 
ATOM     13  C   UNL     1      -1.094  -7.402  11.130  0.00  0.00    +0.008 C 
ATOM     14  O   UNL     1      -2.707  -7.904   4.757  0.00  0.00    -0.460 OA
ATOM     15  C   UNL     1      -2.351  -6.614   4.944  0.00  0.00    +0.309 C 
ATOM     16  O   UNL     1      -2.992  -5.642   4.632  0.00  0.00    -0.251 OA
ENDROOT
BRANCH  11  17
ATOM     17  O   UNL     1       0.311  -9.391   7.742  0.00  0.00    -0.391 OA
ATOM     18  H   UNL     1       1.047  -9.539   7.132  0.00  0.00    +0.210 HD
ENDBRANCH  11  17
BRANCH   1  19
ATOM     19  C   UNL     1       0.118  -6.358   4.585  0.00  0.00    -0.064 C 
BRANCH  19  23
ATOM     20  N   UNL     1       0.736  -2.430   3.283  0.00  0.00    -0.333 N 
ATOM     21  C   UNL     1      -0.072  -2.612   4.498  0.00  0.00    +0.086 C 
ATOM     22  C   UNL     1       0.203  -4.010   5.061  0.00  0.00    -0.060 C 
ATOM     23  N   UNL     1      -0.039  -5.013   4.016  0.00  0.00    +0.382 N 
ATOM     24  C   UNL     1       0.918  -4.833   2.918  0.00  0.00    -0.060 C 
ATOM     25  C   UNL     1       0.673  -3.473   2.247  0.00  0.00    +0.086 C 
ATOM     26  H   UNL     1      -0.979  -4.908   3.663  0.00  0.00    -0.082 HD
BRANCH  20  32
ATOM     27  C   UNL     1       1.240   2.191   1.689  0.00  0.00    +0.044 C 
ATOM     28  C   UNL     1       1.806   0.958   2.345  0.00  0.00    -0.049 A 
ATOM     29  C   UNL     1       3.118   0.948   2.781  0.00  0.00    +0.004 A 
ATOM     30  C   UNL     1       3.641  -0.182   3.382  0.00  0.00    +0.005 A 
ATOM     31  C   UNL     1       2.853  -1.304   3.551  0.00  0.00    -0.029 A 
ATOM     32  C   UNL     1       1.535  -1.297   3.114  0.00  0.00    +0.033 A 
ATOM     33  C   UNL     1       1.011  -0.159   2.515  0.00  0.00    +0.026 A 
ATOM     34  C   UNL     1       3.424  -2.535   4.206  0.00  0.00    +0.045 C 
ENDBRANCH  20  32
ENDBRANCH  19  23
ENDBRANCH   1  19
TORSDOF 4
