REMARK  Name = ZINC15623821
REMARK  8 active torsions:
REMARK  status: ('A' for Active; 'I' for Inactive)
REMARK    1  A    between atoms: C_1  and  C_2
REMARK    2  A    between atoms: C_2  and  C_4
REMARK    3  A    between atoms: C_2  and  N_22
REMARK    4  A    between atoms: C_4  and  O_6
REMARK    5  A    between atoms: O_6  and  C_7
REMARK    6  A    between atoms: C_7  and  C_8
REMARK    7  A    between atoms: N_10  and  C_11
REMARK    8  A    between atoms: C_12  and  C_19
REMARK                            x       y       z     vdW  Elec       q    Type
REMARK                         _______ _______ _______ _____ _____    ______ ____
ROOT
ATOM      1  C   UNL     1       0.952  -0.660  -3.582  0.00  0.00    +0.328 C 
ENDROOT
BRANCH   1   2
ATOM      2  C   UNL     1       0.276  -0.198  -4.848  0.00  0.00    +0.255 C 
ATOM      3  O   UNL     1      -0.722   0.488  -4.787  0.00  0.00    -0.272 OA
ATOM      4  N   UNL     1       0.782  -0.547  -6.048  0.00  0.00    -0.277 N 
ATOM      5  H   UNL     1       1.580  -1.095  -6.096  0.00  0.00    +0.155 HD
BRANCH   4   6
ATOM      6  C   UNL     1       0.161  -0.122  -7.212  0.00  0.00    +0.084 A 
ATOM      7  C   UNL     1       0.531  -0.384  -8.518  0.00  0.00    +0.068 A 
ATOM      8  C   UNL     1      -0.300   0.186  -9.577  0.00  0.00    -0.023 A 
ATOM      9  C   UNL     1      -1.341   0.910  -9.128  0.00  0.00    -0.004 A 
ATOM     10  S   UNL     1      -1.217   0.824  -7.360  0.00  0.00    -0.077 S 
ATOM     11  C   UNL     1      -2.159   1.476 -10.257  0.00  0.00    +0.043 C 
ATOM     12  C   UNL     1      -1.243   1.365 -11.497  0.00  0.00    +0.010 C 
ATOM     13  C   UNL     1      -0.324   0.190 -11.104  0.00  0.00    +0.037 C 
BRANCH   7  14
ATOM     14  C   UNL     1       1.708  -1.201  -8.828  0.00  0.00    +0.244 C 
ATOM     15  O   UNL     1       1.597  -2.406  -8.952  0.00  0.00    -0.270 OA
ATOM     16  N   UNL     1       2.914  -0.616  -8.974  0.00  0.00    -0.325 N 
ATOM     17  H   UNL     1       3.002   0.345  -8.875  0.00  0.00    +0.145 HD
ATOM     18  H   UNL     1       3.693  -1.157  -9.179  0.00  0.00    +0.145 HD
ENDBRANCH   7  14
ENDBRANCH   4   6
ENDBRANCH   1   2
BRANCH   1  19
ATOM     19  O   UNL     1       0.233  -0.166  -2.451  0.00  0.00    -0.454 OA
BRANCH  19  20
ATOM     20  C   UNL     1       0.707  -0.490  -1.238  0.00  0.00    +0.328 C 
ATOM     21  O   UNL     1       1.700  -1.172  -1.140  0.00  0.00    -0.249 OA
BRANCH  20  23
ATOM     22  C   UNL     1      -0.019   1.526   0.010  0.00  0.00    +0.040 C 
ATOM     23  C   UNL     1       0.002  -0.004   0.002  0.00  0.00    +0.189 C 
BRANCH  23  24
ATOM     24  N   UNL     1       0.711  -0.489   1.189  0.00  0.00    -0.228 N 
ATOM     25  C   UNL     1       2.005  -0.181   1.461  0.00  0.00    +0.227 C 
ATOM     26  O   UNL     1       2.805   0.331   0.708  0.00  0.00    -0.275 OA
ATOM     27  C   UNL     1       2.246  -0.601   2.880  0.00  0.00    +0.091 C 
ATOM     28  C   UNL     1       3.614  -1.137   3.247  0.00  0.00    +0.040 C 
ATOM     29  C   UNL     1       3.478  -1.799   4.602  0.00  0.00    -0.030 C 
ATOM     30  C   UNL     1       2.349  -2.169   5.127  0.00  0.00    -0.030 C 
ATOM     31  C   UNL     1       1.002  -2.018   4.452  0.00  0.00    +0.040 C 
ATOM     32  C   UNL     1       1.254  -1.800   2.983  0.00  0.00    +0.091 C 
ATOM     33  C   UNL     1       0.135  -1.286   2.126  0.00  0.00    +0.227 C 
ATOM     34  O   UNL     1      -1.046  -1.534   2.245  0.00  0.00    -0.275 OA
ENDBRANCH  23  24
ENDBRANCH  20  23
ENDBRANCH  19  20
ENDBRANCH   1  19
TORSDOF 7
