REMARK  Name = ZINC57011351
REMARK  7 active torsions:
REMARK  status: ('A' for Active; 'I' for Inactive)
REMARK    1  A    between atoms: C_1  and  O_2
REMARK    2  A    between atoms: O_2  and  C_3
REMARK    3  A    between atoms: C_5  and  N_27
REMARK    4  A    between atoms: C_8  and  S_9
REMARK    5  A    between atoms: S_9  and  N_12
REMARK    6  A    between atoms: N_12  and  C_13
REMARK    7  A    between atoms: N_22  and  C_24
REMARK                            x       y       z     vdW  Elec       q    Type
REMARK                         _______ _______ _______ _____ _____    ______ ____
ROOT
ATOM      1  N   UNL     1       0.892  -2.778   1.499  0.00  0.00    -0.186 NA
ATOM      2  H   UNL     1       1.482  -3.495   1.781  0.00  0.00    +0.148 HD
ENDROOT
BRANCH   1   3
ATOM      3  C   UNL     1       0.902  -1.501   2.209  0.00  0.00    +0.079 C 
ATOM      4  C   UNL     1       0.031  -1.584   3.465  0.00  0.00    -0.009 C 
ATOM      5  C   UNL     1      -0.036  -0.211   4.125  0.00  0.00    +0.003 C 
ATOM      6  C   UNL     1       1.339   0.353   4.448  0.00  0.00    +0.001 C 
ATOM      7  C   UNL     1       2.325   0.231   3.298  0.00  0.00    +0.003 C 
ATOM      8  C   UNL     1       2.322  -1.154   2.662  0.00  0.00    -0.009 C 
ATOM      9  C   UNL     1       2.844  -2.213   3.621  0.00  0.00    -0.073 C 
ATOM     10  N   UNL     1       1.974  -2.429   4.772  0.00  0.00    +0.382 N 
ATOM     11  C   UNL     1       0.575  -2.638   4.416  0.00  0.00    -0.073 C 
ATOM     12  H   UNL     1       2.059  -1.663   5.423  0.00  0.00    -0.081 HD
BRANCH  10  13
ATOM     13  C   UNL     1       2.447  -3.625   5.481  0.00  0.00    -0.069 C 
ATOM     14  C   UNL     1       2.692  -3.504   6.986  0.00  0.00    -0.017 C 
ATOM     15  C   UNL     1       3.877  -3.606   6.024  0.00  0.00    -0.017 C 
ENDBRANCH  10  13
ENDBRANCH   1   3
BRANCH   1  16
ATOM     16  S   UNL     1      -0.126  -3.003   0.212  0.00  0.00    +0.062 S 
ATOM     17  O   UNL     1      -1.417  -2.589   0.639  0.00  0.00    -0.153 OA
ATOM     18  O   UNL     1       0.130  -4.309  -0.285  0.00  0.00    -0.153 OA
BRANCH  16  24
ATOM     19  C   UNL     1       1.621  -2.004  -1.639  0.00  0.00    +0.148 A 
ATOM     20  C   UNL     1       2.008  -1.120  -2.635  0.00  0.00    +0.080 A 
ATOM     21  C   UNL     1       1.151  -0.112  -3.033  0.00  0.00    +0.130 A 
ATOM     22  C   UNL     1      -0.091   0.016  -2.440  0.00  0.00    +0.035 A 
ATOM     23  C   UNL     1      -0.479  -0.864  -1.446  0.00  0.00    +0.034 A 
ATOM     24  C   UNL     1       0.372  -1.877  -1.048  0.00  0.00    +0.147 A 
BRANCH  21  25
ATOM     25  N   UNL     1       1.564   0.832  -4.096  0.00  0.00    +0.057 N 
ATOM     26  O   UNL     1       2.650   0.721  -4.615  0.00  0.00    -0.126 OA
ATOM     27  O   UNL     1       0.814   1.715  -4.444  0.00  0.00    -0.126 OA
ENDBRANCH  21  25
BRANCH  19  29
ATOM     28  C   UNL     1       3.731  -3.067  -1.897  0.00  0.00    +0.277 C 
ATOM     29  O   UNL     1       2.461  -2.997  -1.246  0.00  0.00    -0.493 OA
ENDBRANCH  19  29
ENDBRANCH  16  24
ENDBRANCH   1  16
TORSDOF 6
