REMARK  Name = ZINC09265309
REMARK  4 active torsions:
REMARK  status: ('A' for Active; 'I' for Inactive)
REMARK    1  A    between atoms: C_7  and  N_23
REMARK    2  A    between atoms: C_8  and  C_10
REMARK    3  A    between atoms: C_15  and  N_67
REMARK    4  A    between atoms: C_24  and  C_26
REMARK                            x       y       z     vdW  Elec       q    Type
REMARK                         _______ _______ _______ _____ _____    ______ ____
ROOT
ATOM      1  C   UNL     1       0.005   1.336  -1.305  0.00  0.00    +0.001 A 
ATOM      2  C   UNL     1      -1.212   1.979  -1.124  0.00  0.00    +0.004 A 
ATOM      3  C   UNL     1      -1.263   3.253  -0.601  0.00  0.00    +0.047 A 
ATOM      4  C   UNL     1      -0.086   3.909  -0.259  0.00  0.00    +0.138 A 
ATOM      5  C   UNL     1       1.143   3.255  -0.450  0.00  0.00    +0.042 A 
ATOM      6  C   UNL     1       1.174   1.963  -0.976  0.00  0.00    +0.013 A 
ATOM      7  C   UNL     1       2.173   4.199   0.000  0.00  0.00    +0.092 A 
ATOM      8  C   UNL     1       1.501   5.316   0.415  0.00  0.00    +0.212 A 
ATOM      9  O   UNL     1       0.172   5.128   0.256  0.00  0.00    -0.448 OA
ENDROOT
BRANCH   8  10
ATOM     10  C   UNL     1       2.124   6.526   0.948  0.00  0.00    +0.284 C 
ATOM     11  O   UNL     1       2.520   7.391   0.189  0.00  0.00    -0.267 OA
ATOM     12  N   UNL     1       2.261   6.683   2.280  0.00  0.00    -0.295 N 
ATOM     13  C   UNL     1       1.690   5.701   3.212  0.00  0.00    +0.106 C 
ATOM     14  C   UNL     1       0.803   6.429   4.220  0.00  0.00    +0.004 C 
ATOM     15  C   UNL     1       1.608   7.542   4.894  0.00  0.00    -0.066 C 
ATOM     16  C   UNL     1       2.071   8.550   3.840  0.00  0.00    +0.004 C 
ATOM     17  C   UNL     1       2.978   7.843   2.827  0.00  0.00    +0.106 C 
BRANCH  15  23
ATOM     18  C   UNL     1       1.474   9.363   6.485  0.00  0.00    -0.078 C 
ATOM     19  C   UNL     1       0.521  10.133   7.401  0.00  0.00    -0.019 C 
ATOM     20  C   UNL     1       0.005   9.197   8.496  0.00  0.00    -0.004 C 
ATOM     21  C   UNL     1      -0.686   7.995   7.845  0.00  0.00    -0.019 C 
ATOM     22  C   UNL     1       0.302   7.286   6.916  0.00  0.00    -0.078 C 
ATOM     23  N   UNL     1       0.742   8.234   5.871  0.00  0.00    +0.382 N 
ATOM     24  H   UNL     1      -0.084   8.600   5.383  0.00  0.00    -0.081 HD
ENDBRANCH  15  23
ENDBRANCH   8  10
BRANCH   7  25
ATOM     25  N   UNL     1       3.548   3.999   0.005  0.00  0.00    -0.282 N 
ATOM     26  C   UNL     1       4.049   2.763   0.202  0.00  0.00    +0.220 C 
ATOM     27  O   UNL     1       3.300   1.813   0.292  0.00  0.00    -0.275 OA
ATOM     28  H   UNL     1       4.148   4.749  -0.134  0.00  0.00    +0.155 HD
BRANCH  26  29
ATOM     29  C   UNL     1       5.538   2.562   0.309  0.00  0.00    +0.075 C 
ATOM     30  C   UNL     1       6.211   3.032  -0.983  0.00  0.00    +0.013 C 
ATOM     31  C   UNL     1       7.723   2.827  -0.874  0.00  0.00    +0.001 C 
ATOM     32  C   UNL     1       8.023   1.343  -0.653  0.00  0.00    +0.000 C 
ATOM     33  C   UNL     1       7.350   0.873   0.638  0.00  0.00    +0.001 C 
ATOM     34  C   UNL     1       5.838   1.078   0.529  0.00  0.00    +0.013 C 
ENDBRANCH  26  29
ENDBRANCH   7  25
TORSDOF 4
