REMARK  Name = ZINC67318087
REMARK  6 active torsions:
REMARK  status: ('A' for Active; 'I' for Inactive)
REMARK    1  A    between atoms: C_1  and  C_2
REMARK    2  A    between atoms: C_7  and  C_11
REMARK    3  A    between atoms: C_11  and  N_12
REMARK    4  A    between atoms: N_15  and  C_16
REMARK    5  A    between atoms: C_20  and  S_22
REMARK    6  A    between atoms: S_22  and  C_25
REMARK                            x       y       z     vdW  Elec       q    Type
REMARK                         _______ _______ _______ _____ _____    ______ ____
ROOT
ATOM      1  N   UNL     1       1.471  -5.971   2.487  0.00  0.00    -0.294 N 
ATOM      2  C   UNL     1       1.735  -7.129   3.123  0.00  0.00    +0.304 C 
ATOM      3  O   UNL     1       0.826  -7.787   3.592  0.00  0.00    -0.252 OA
ATOM      4  N   UNL     1       3.007  -7.559   3.241  0.00  0.00    -0.269 N 
ATOM      5  H   UNL     1       2.196  -5.447   2.113  0.00  0.00    +0.151 HD
ATOM      6  H   UNL     1       3.726  -7.070   2.810  0.00  0.00    +0.156 HD
ENDROOT
BRANCH   4   7
ATOM      7  C   UNL     1       3.292  -8.710   3.985  0.00  0.00    +0.037 A 
ATOM      8  C   UNL     1       2.401  -9.775   3.985  0.00  0.00    +0.023 A 
ATOM      9  C   UNL     1       2.685 -10.910   4.720  0.00  0.00    +0.004 A 
ATOM     10  C   UNL     1       3.854 -10.985   5.455  0.00  0.00    +0.027 A 
ATOM     11  C   UNL     1       4.742  -9.926   5.456  0.00  0.00    +0.096 A 
ATOM     12  C   UNL     1       4.467  -8.791   4.719  0.00  0.00    +0.050 A 
BRANCH  11  13
ATOM     13  S   UNL     1       6.230 -10.026   6.395  0.00  0.00    +0.058 S 
ATOM     14  O   UNL     1       6.567  -8.677   6.686  0.00  0.00    -0.164 OA
ATOM     15  O   UNL     1       5.937 -10.942   7.441  0.00  0.00    -0.164 OA
BRANCH  13  16
ATOM     16  C   UNL     1       7.450 -10.743   5.260  0.00  0.00    +0.485 C 
ATOM     17  F   UNL     1       7.014 -12.006   4.844  0.00  0.00    -0.183 F 
ATOM     18  F   UNL     1       7.596  -9.910   4.146  0.00  0.00    -0.183 F 
ENDBRANCH  13  16
ENDBRANCH  11  13
ENDBRANCH   4   7
BRANCH   1  19
ATOM     19  C   UNL     1       0.088  -5.505   2.359  0.00  0.00    +0.160 C 
BRANCH  19  26
ATOM     20  C   UNL     1      -0.018   1.486  -0.037  0.00  0.00    +0.045 C 
ATOM     21  C   UNL     1       0.001  -0.021  -0.036  0.00  0.00    -0.034 A 
ATOM     22  C   UNL     1       0.001  -0.721  -1.254  0.00  0.00    +0.008 A 
ATOM     23  C   UNL     1       0.018  -2.081  -1.249  0.00  0.00    +0.045 A 
ATOM     24  C   UNL     1       0.036  -2.767  -0.018  0.00  0.00    +0.115 A 
ATOM     25  N   UNL     1       0.054  -4.057   0.284  0.00  0.00    -0.342 N 
ATOM     26  C   UNL     1       0.066  -4.196   1.612  0.00  0.00    +0.051 A 
ATOM     27  C   UNL     1       0.055  -2.967   2.174  0.00  0.00    +0.115 A 
ATOM     28  N   UNL     1       0.036  -2.056   1.154  0.00  0.00    -0.308 N 
ATOM     29  C   UNL     1       0.024  -0.692   1.135  0.00  0.00    +0.096 A 
ATOM     30  H   UNL     1       0.058  -4.785  -0.357  0.00  0.00    +0.167 HD
ENDBRANCH  19  26
ENDBRANCH   1  19
TORSDOF 5
