REMARK  Name = ZINC63865121
REMARK  13 active torsions:
REMARK  status: ('A' for Active; 'I' for Inactive)
REMARK    1  A    between atoms: C_1  and  C_2
REMARK    2  A    between atoms: C_2  and  C_3
REMARK    3  A    between atoms: C_2  and  C_4
REMARK    4  A    between atoms: C_6  and  C_27
REMARK    5  A    between atoms: C_7  and  N_9
REMARK    6  A    between atoms: N_9  and  N_10
REMARK    7  A    between atoms: C_11  and  C_13
REMARK    8  A    between atoms: C_13  and  N_14
REMARK    9  A    between atoms: C_15  and  C_17
REMARK   10  A    between atoms: C_20  and  C_23
REMARK   11  A    between atoms: C_23  and  C_24
REMARK   12  A    between atoms: C_23  and  C_25
REMARK   13  A    between atoms: C_23  and  C_26
REMARK                            x       y       z     vdW  Elec       q    Type
REMARK                         _______ _______ _______ _____ _____    ______ ____
ROOT
ATOM      1  N   UNL     1      -3.753  -2.936  -2.501  0.00  0.00    -0.233 N 
ATOM      2  C   UNL     1      -4.637  -3.685  -3.188  0.00  0.00    +0.246 C 
ATOM      3  O   UNL     1      -5.761  -3.843  -2.760  0.00  0.00    -0.273 OA
ATOM      4  H   UNL     1      -2.854  -2.810  -2.843  0.00  0.00    +0.173 HD
ENDROOT
BRANCH   1   5
ATOM      5  N   UNL     1      -4.132  -2.338  -1.292  0.00  0.00    -0.232 N 
ATOM      6  H   UNL     1      -5.031  -2.464  -0.950  0.00  0.00    +0.173 HD
BRANCH   5  10
ATOM      7  C   UNL     1      -1.412  -0.526   0.013  0.00  0.00    +0.202 A 
ATOM      8  N   UNL     1      -2.289  -0.286   0.939  0.00  0.00    -0.200 NA
ATOM      9  C   UNL     1      -3.451  -0.919   0.613  0.00  0.00    +0.202 A 
ATOM     10  C   UNL     1      -3.227  -1.570  -0.589  0.00  0.00    +0.241 A 
ATOM     11  O   UNL     1      -1.956  -1.303  -0.938  0.00  0.00    -0.423 OA
BRANCH   7  13
ATOM     12  C   UNL     1      -0.019   1.526   0.010  0.00  0.00    +0.017 C 
ATOM     13  C   UNL     1       0.002  -0.004   0.002  0.00  0.00    +0.069 C 
ATOM     14  C   UNL     1       0.742  -0.511   1.242  0.00  0.00    +0.017 C 
ENDBRANCH   7  13
BRANCH   9  15
ATOM     15  C   UNL     1      -4.668  -0.912   1.367  0.00  0.00    +0.124 C 
ATOM     16  N   UNL     1      -5.634  -0.907   1.965  0.00  0.00    -0.189 NA
ENDBRANCH   9  15
ENDBRANCH   5  10
ENDBRANCH   1   5
BRANCH   2  17
ATOM     17  C   UNL     1      -4.229  -4.328  -4.489  0.00  0.00    +0.202 C 
BRANCH  17  18
ATOM     18  N   UNL     1      -5.359  -5.084  -5.035  0.00  0.00    -0.303 N 
ATOM     19  C   UNL     1      -5.226  -5.747  -6.201  0.00  0.00    +0.244 C 
ATOM     20  O   UNL     1      -4.168  -5.718  -6.799  0.00  0.00    -0.270 OA
ATOM     21  H   UNL     1      -6.203  -5.107  -4.558  0.00  0.00    +0.150 HD
BRANCH  19  22
ATOM     22  C   UNL     1      -6.366  -6.509  -6.753  0.00  0.00    +0.037 A 
ATOM     23  C   UNL     1      -7.584  -6.540  -6.072  0.00  0.00    +0.013 A 
ATOM     24  C   UNL     1      -8.644  -7.253  -6.592  0.00  0.00    +0.005 A 
ATOM     25  C   UNL     1      -8.502  -7.937  -7.787  0.00  0.00    -0.042 A 
ATOM     26  C   UNL     1      -7.297  -7.911  -8.466  0.00  0.00    +0.005 A 
ATOM     27  C   UNL     1      -6.231  -7.197  -7.960  0.00  0.00    +0.013 A 
BRANCH  25  28
ATOM     28  C   UNL     1      -9.664  -8.714  -8.349  0.00  0.00    -0.013 C 
ATOM     29  C   UNL     1     -10.837  -7.765  -8.602  0.00  0.00    +0.015 C 
ATOM     30  C   UNL     1      -9.248  -9.373  -9.666  0.00  0.00    +0.015 C 
ATOM     31  C   UNL     1     -10.087  -9.793  -7.350  0.00  0.00    +0.015 C 
ENDBRANCH  25  28
ENDBRANCH  19  22
ENDBRANCH  17  18
ENDBRANCH   2  17
TORSDOF 8
