REMARK  Name = ZINC64580647
REMARK  9 active torsions:
REMARK  status: ('A' for Active; 'I' for Inactive)
REMARK    1  A    between atoms: C_1  and  C_2
REMARK    2  A    between atoms: C_7  and  C_12
REMARK    3  A    between atoms: C_12  and  N_13
REMARK    4  A    between atoms: C_14  and  C_16
REMARK    5  A    between atoms: C_16  and  N_17
REMARK    6  A    between atoms: C_21  and  S_29
REMARK    7  A    between atoms: C_24  and  C_27
REMARK    8  A    between atoms: C_24  and  C_28
REMARK    9  A    between atoms: S_29  and  N_32
REMARK                            x       y       z     vdW  Elec       q    Type
REMARK                         _______ _______ _______ _____ _____    ______ ____
ROOT
ATOM      1  N   UNL     1      -6.024  -4.896   1.833  0.00  0.00    -0.262 N 
ATOM      2  C   UNL     1      -6.649  -5.851   1.030  0.00  0.00    +0.041 A 
ATOM      3  C   UNL     1      -6.345  -6.303  -0.253  0.00  0.00    +0.026 A 
ATOM      4  C   UNL     1      -7.126  -7.271  -0.849  0.00  0.00    +0.030 A 
ATOM      5  C   UNL     1      -8.215  -7.801  -0.180  0.00  0.00    +0.106 A 
ATOM      6  C   UNL     1      -8.523  -7.357   1.094  0.00  0.00    +0.035 A 
ATOM      7  C   UNL     1      -7.745  -6.391   1.691  0.00  0.00    -0.010 A 
ATOM      8  C   UNL     1      -7.809  -5.706   3.037  0.00  0.00    +0.069 C 
ATOM      9  C   UNL     1      -6.633  -4.754   3.022  0.00  0.00    +0.230 C 
ATOM     10  O   UNL     1      -6.303  -4.002   3.915  0.00  0.00    -0.274 OA
ATOM     11  C   UNL     1      -7.653  -6.728   4.165  0.00  0.00    +0.025 C 
ATOM     12  C   UNL     1      -9.124  -4.939   3.186  0.00  0.00    +0.025 C 
ENDROOT
BRANCH   5  13
ATOM     13  S   UNL     1      -9.207  -9.037  -0.949  0.00  0.00    +0.061 S 
ATOM     14  O   UNL     1     -10.485  -8.975  -0.330  0.00  0.00    -0.153 OA
ATOM     15  O   UNL     1      -9.032  -8.886  -2.351  0.00  0.00    -0.153 OA
BRANCH  13  16
ATOM     16  N   UNL     1      -8.557 -10.507  -0.547  0.00  0.00    -0.177 NA
ATOM     17  C   UNL     1      -7.520 -11.221  -1.305  0.00  0.00    +0.109 C 
ATOM     18  C   UNL     1      -7.250 -12.551  -0.570  0.00  0.00    +0.018 C 
ATOM     19  C   UNL     1      -8.551 -12.768   0.245  0.00  0.00    +0.018 C 
ATOM     20  C   UNL     1      -8.919 -11.312   0.633  0.00  0.00    +0.109 C 
ENDBRANCH  13  16
ENDBRANCH   5  13
BRANCH   1  21
ATOM     21  C   UNL     1      -4.835  -4.141   1.428  0.00  0.00    +0.209 C 
BRANCH  21  23
ATOM     22  N   UNL     1      -2.378  -4.389   1.567  0.00  0.00    -0.310 N 
ATOM     23  C   UNL     1      -3.597  -4.897   1.838  0.00  0.00    +0.231 C 
ATOM     24  O   UNL     1      -3.697  -5.961   2.411  0.00  0.00    -0.274 OA
ATOM     25  H   UNL     1      -2.298  -3.538   1.108  0.00  0.00    +0.149 HD
BRANCH  22  26
ATOM     26  C   UNL     1      -1.174  -5.123   1.965  0.00  0.00    +0.151 C 
BRANCH  26  33
ATOM     27  C   UNL     1      -0.018   1.503   0.010  0.00  0.00    +0.044 C 
ATOM     28  C   UNL     1       0.002  -0.004   0.002  0.00  0.00    -0.048 A 
ATOM     29  C   UNL     1       0.005  -0.672  -1.235  0.00  0.00    +0.005 A 
ATOM     30  C   UNL     1       0.022  -2.017  -1.335  0.00  0.00    +0.027 A 
ATOM     31  C   UNL     1       0.040  -2.834  -0.114  0.00  0.00    +0.060 A 
ATOM     32  N   UNL     1       0.057  -4.120   0.090  0.00  0.00    -0.362 N 
ATOM     33  C   UNL     1       0.067  -4.335   1.542  0.00  0.00    +0.191 C 
ATOM     34  N   UNL     1       0.053  -3.002   2.159  0.00  0.00    -0.362 N 
ATOM     35  C   UNL     1       0.037  -2.127   1.195  0.00  0.00    +0.060 A 
ATOM     36  C   UNL     1       0.022  -0.657   1.181  0.00  0.00    +0.030 A 
ATOM     37  H   UNL     1       0.062  -4.809  -0.593  0.00  0.00    +0.162 HD
ATOM     38  H   UNL     1       0.055  -2.810   3.109  0.00  0.00    +0.162 HD
ENDBRANCH  26  33
ENDBRANCH  22  26
ENDBRANCH  21  23
ENDBRANCH   1  21
TORSDOF 6
