REMARK  Name = ZINC39656988
REMARK  6 active torsions:
REMARK  status: ('A' for Active; 'I' for Inactive)
REMARK    1  A    between atoms: C_1  and  C_2
REMARK    2  A    between atoms: C_6  and  C_9
REMARK    3  A    between atoms: C_13  and  C_22
REMARK    4  A    between atoms: N_24  and  C_25
REMARK    5  A    between atoms: C_25  and  C_27
REMARK    6  A    between atoms: C_25  and  C_28
REMARK                            x       y       z     vdW  Elec       q    Type
REMARK                         _______ _______ _______ _____ _____    ______ ____
ROOT
ATOM      1  C   UNL     1      -0.088  -2.611   2.279  0.00  0.00    +0.252 C 
ATOM      2  O   UNL     1       1.017  -2.828   2.738  0.00  0.00    -0.270 OA
ATOM      3  N   UNL     1      -1.185  -3.053   2.926  0.00  0.00    -0.296 N 
ATOM      4  C   UNL     1      -2.602  -2.893   2.525  0.00  0.00    +0.121 C 
ATOM      5  C   UNL     1      -3.264  -4.243   2.884  0.00  0.00    +0.100 C 
ATOM      6  C   UNL     1      -2.370  -4.838   3.985  0.00  0.00    -0.004 C 
ATOM      7  C   UNL     1      -1.245  -3.814   4.197  0.00  0.00    +0.115 C 
ATOM      8  C   UNL     1      -1.783  -6.170   3.527  0.00  0.00    -0.010 C 
ATOM      9  C   UNL     1      -0.945  -6.769   4.660  0.00  0.00    -0.082 C 
ATOM     10  N   UNL     1      -1.788  -6.964   5.845  0.00  0.00    +0.379 N 
ATOM     11  C   UNL     1      -2.273  -5.668   6.334  0.00  0.00    -0.082 C 
ATOM     12  C   UNL     1      -3.168  -5.022   5.272  0.00  0.00    -0.010 C 
ATOM     13  H   UNL     1      -2.576  -7.547   5.604  0.00  0.00    -0.086 HD
ATOM     14  H   UNL     1      -1.249  -7.415   6.569  0.00  0.00    -0.086 HD
ENDROOT
BRANCH   1  20
ATOM     15  C   UNL     1      -0.611   1.724  -0.142  0.00  0.00    +0.047 C 
ATOM     16  C   UNL     1      -0.480   0.223  -0.158  0.00  0.00    -0.014 A 
ATOM     17  C   UNL     1      -0.493  -0.459  -1.361  0.00  0.00    +0.009 A 
ATOM     18  C   UNL     1      -0.375  -1.836  -1.387  0.00  0.00    +0.039 A 
ATOM     19  C   UNL     1      -0.243  -2.544  -0.207  0.00  0.00    +0.138 A 
ATOM     20  C   UNL     1      -0.229  -1.863   1.015  0.00  0.00    +0.107 A 
ATOM     21  C   UNL     1      -0.343  -0.469   1.031  0.00  0.00    +0.141 A 
ATOM     22  F   UNL     1      -0.325   0.199   2.205  0.00  0.00    -0.204 F 
ATOM     23  F   UNL     1      -0.128  -3.890  -0.234  0.00  0.00    -0.205 F 
ENDBRANCH   1  20
BRANCH   5  24
ATOM     24  C   UNL     1      -3.292  -5.150   1.681  0.00  0.00    +0.219 C 
ATOM     25  O   UNL     1      -2.423  -5.068   0.839  0.00  0.00    -0.275 OA
ATOM     26  N   UNL     1      -4.283  -6.052   1.540  0.00  0.00    -0.308 N 
ATOM     27  H   UNL     1      -4.979  -6.118   2.213  0.00  0.00    +0.149 HD
BRANCH  26  28
ATOM     28  C   UNL     1      -4.311  -6.934   0.370  0.00  0.00    +0.100 C 
ATOM     29  C   UNL     1      -4.998  -6.216  -0.793  0.00  0.00    +0.033 C 
BRANCH  28  30
ATOM     30  C   UNL     1      -5.073  -8.190   0.706  0.00  0.00    -0.027 A 
ATOM     31  C   UNL     1      -6.224  -8.117   1.468  0.00  0.00    +0.006 A 
ATOM     32  C   UNL     1      -6.923  -9.269   1.776  0.00  0.00    +0.015 A 
ATOM     33  C   UNL     1      -6.471 -10.494   1.321  0.00  0.00    +0.018 A 
ATOM     34  C   UNL     1      -5.320 -10.567   0.558  0.00  0.00    +0.015 A 
ATOM     35  C   UNL     1      -4.624  -9.414   0.246  0.00  0.00    +0.006 A 
ATOM     36 BR   UNL     1      -7.428 -12.071   1.742  0.00  0.00    -0.050 Br
ENDBRANCH  28  30
ENDBRANCH  26  28
ENDBRANCH   5  24
TORSDOF 4
