REMARK  Name = ZINC65195987
REMARK  7 active torsions:
REMARK  status: ('A' for Active; 'I' for Inactive)
REMARK    1  A    between atoms: C_1  and  C_2
REMARK    2  A    between atoms: N_4  and  C_5
REMARK    3  A    between atoms: C_8  and  C_11
REMARK    4  A    between atoms: N_13  and  C_14
REMARK    5  A    between atoms: C_14  and  C_15
REMARK    6  A    between atoms: C_18  and  C_20
REMARK    7  A    between atoms: C_22  and  C_25
REMARK                            x       y       z     vdW  Elec       q    Type
REMARK                         _______ _______ _______ _____ _____    ______ ____
ROOT
ATOM      1  C   UNL     1       0.739  -8.796  -4.127  0.00  0.00    +0.008 A 
ATOM      2  C   UNL     1       1.854  -8.958  -4.878  0.00  0.00    +0.013 A 
ATOM      3  C   UNL     1       1.725  -9.363  -6.187  0.00  0.00    +0.021 A 
ATOM      4  C   UNL     1       0.429  -9.574  -6.627  0.00  0.00    +0.077 A 
ATOM      5  S   UNL     1      -0.520  -9.193  -5.167  0.00  0.00    -0.087 S 
ENDROOT
BRANCH   4   6
ATOM      6  C   UNL     1      -0.042 -10.003  -7.950  0.00  0.00    +0.265 A 
ATOM      7  N   UNL     1      -1.297 -10.179  -8.304  0.00  0.00    -0.187 NA
ATOM      8  C   UNL     1      -1.360 -10.574  -9.584  0.00  0.00    +0.202 A 
ATOM      9  N   UNL     1      -0.142 -10.654 -10.064  0.00  0.00    -0.056 NA
ATOM     10  O   UNL     1       0.736 -10.280  -9.013  0.00  0.00    -0.332 OA
BRANCH   8  11
ATOM     11  C   UNL     1      -2.604 -10.871 -10.336  0.00  0.00    +0.023 A 
ATOM     12  C   UNL     1      -3.844 -10.742  -9.713  0.00  0.00    +0.014 A 
ATOM     13  C   UNL     1      -4.999 -11.019 -10.416  0.00  0.00    +0.039 A 
ATOM     14  C   UNL     1      -4.927 -11.425 -11.739  0.00  0.00    +0.123 A 
ATOM     15  C   UNL     1      -3.696 -11.555 -12.361  0.00  0.00    +0.039 A 
ATOM     16  C   UNL     1      -2.537 -11.274 -11.668  0.00  0.00    +0.014 A 
ATOM     17  F   UNL     1      -6.060 -11.694 -12.423  0.00  0.00    -0.205 F 
ENDBRANCH   8  11
ENDBRANCH   4   6
BRANCH   1  18
ATOM     18  C   UNL     1       0.648  -8.364  -2.686  0.00  0.00    +0.147 C 
BRANCH  18  21
ATOM     19  C   UNL     1       0.438  -6.290  -1.424  0.00  0.00    +0.244 C 
ATOM     20  O   UNL     1       0.448  -6.946  -0.401  0.00  0.00    -0.270 OA
ATOM     21  N   UNL     1       0.533  -6.905  -2.620  0.00  0.00    -0.307 N 
ATOM     22  H   UNL     1       0.526  -6.382  -3.436  0.00  0.00    +0.149 HD
BRANCH  19  26
ATOM     23  C   UNL     1       0.108  -2.060  -1.232  0.00  0.00    +0.033 A 
ATOM     24  C   UNL     1       0.118  -2.810  -0.060  0.00  0.00    +0.024 A 
ATOM     25  C   UNL     1       0.225  -4.181  -0.118  0.00  0.00    +0.015 A 
ATOM     26  C   UNL     1       0.323  -4.820  -1.357  0.00  0.00    +0.037 A 
ATOM     27  C   UNL     1       0.313  -4.064  -2.533  0.00  0.00    +0.015 A 
ATOM     28  C   UNL     1       0.201  -2.694  -2.467  0.00  0.00    +0.024 A 
BRANCH  23  32
ATOM     29  C   UNL     1       0.558   1.512  -0.148  0.00  0.00    +0.109 C 
ATOM     30  C   UNL     1       0.586   0.005  -0.161  0.00  0.00    +0.214 C 
ATOM     31  O   UNL     1       1.136  -0.599   0.735  0.00  0.00    -0.276 OA
ATOM     32  N   UNL     1       0.000  -0.672  -1.169  0.00  0.00    -0.286 N 
ATOM     33  H   UNL     1      -0.497  -0.193  -1.850  0.00  0.00    +0.155 HD
ENDBRANCH  23  32
ENDBRANCH  19  26
ENDBRANCH  18  21
ENDBRANCH   1  18
TORSDOF 6
