REMARK  Name = ZINC14478139
REMARK  7 active torsions:
REMARK  status: ('A' for Active; 'I' for Inactive)
REMARK    1  A    between atoms: C_1  and  C_2
REMARK    2  A    between atoms: C_2  and  C_3
REMARK    3  A    between atoms: C_3  and  N_4
REMARK    4  A    between atoms: N_4  and  S_5
REMARK    5  A    between atoms: S_5  and  C_8
REMARK    6  A    between atoms: C_21  and  C_24
REMARK    7  A    between atoms: C_29  and  N_30
REMARK                            x       y       z     vdW  Elec       q    Type
REMARK                         _______ _______ _______ _____ _____    ______ ____
ROOT
ATOM      1  C   UNL     1       2.856  -2.178  -2.087  0.00  0.00    +0.106 A 
ATOM      2  C   UNL     1       1.796  -2.817  -1.469  0.00  0.00    +0.030 A 
ATOM      3  C   UNL     1       0.836  -2.083  -0.805  0.00  0.00    +0.025 A 
ATOM      4  C   UNL     1       0.924  -0.697  -0.752  0.00  0.00    +0.031 A 
ATOM      5  C   UNL     1       1.990  -0.056  -1.393  0.00  0.00    -0.018 A 
ATOM      6  C   UNL     1       2.949  -0.799  -2.047  0.00  0.00    +0.034 A 
ATOM      7  C   UNL     1       2.019   1.422  -1.356  0.00  0.00    +0.049 C 
ATOM      8  C   UNL     1       3.286   2.188  -1.475  0.00  0.00    -0.023 C 
ATOM      9  C   UNL     1       3.167   3.314  -0.781  0.00  0.00    -0.030 C 
ATOM     10  C   UNL     1       1.795   3.369  -0.106  0.00  0.00    +0.033 C 
ATOM     11  C   UNL     1       1.453   1.879   0.022  0.00  0.00    +0.029 C 
ATOM     12  C   UNL     1      -0.018   1.504  -0.002  0.00  0.00    +0.107 C 
ATOM     13  N   UNL     1      -0.053   0.026  -0.058  0.00  0.00    -0.336 N 
ATOM     14  H   UNL     1      -0.766  -0.451   0.395  0.00  0.00    +0.147 HD
ENDROOT
BRANCH  12  15
ATOM     15  C   UNL     1      -0.700   1.993   1.250  0.00  0.00    +0.003 A 
ATOM     16  C   UNL     1       0.055   2.431   2.322  0.00  0.00    +0.008 A 
ATOM     17  C   UNL     1      -0.570   2.885   3.469  0.00  0.00    +0.000 A 
ATOM     18  C   UNL     1      -1.950   2.890   3.547  0.00  0.00    +0.002 A 
ATOM     19  C   UNL     1      -2.705   2.447   2.478  0.00  0.00    +0.033 A 
ATOM     20  C   UNL     1      -2.080   1.998   1.329  0.00  0.00    +0.131 A 
BRANCH  20  21
ATOM     21  N   UNL     1      -2.888   1.523   0.184  0.00  0.00    +0.057 N 
ATOM     22  O   UNL     1      -4.102   1.625   0.211  0.00  0.00    -0.126 OA
ATOM     23  O   UNL     1      -2.340   1.032  -0.786  0.00  0.00    -0.126 OA
ENDBRANCH  20  21
ENDBRANCH  12  15
BRANCH   1  24
ATOM     24  S   UNL     1       4.086  -3.121  -2.925  0.00  0.00    +0.058 S 
ATOM     25  O   UNL     1       3.479  -4.354  -3.284  0.00  0.00    -0.153 OA
ATOM     26  O   UNL     1       4.678  -2.255  -3.884  0.00  0.00    -0.153 OA
BRANCH  24  27
ATOM     27  N   UNL     1       5.266  -3.478  -1.819  0.00  0.00    -0.190 NA
ATOM     28  H   UNL     1       6.160  -3.117  -1.929  0.00  0.00    +0.148 HD
BRANCH  27  29
ATOM     29  C   UNL     1       4.961  -4.341  -0.675  0.00  0.00    +0.105 C 
BRANCH  29  31
ATOM     30  C   UNL     1       5.946  -5.716   1.163  0.00  0.00    +0.005 C 
ATOM     31  C   UNL     1       6.265  -4.815  -0.031  0.00  0.00    +0.013 C 
ENDBRANCH  29  31
ENDBRANCH  27  29
ENDBRANCH  24  27
ENDBRANCH   1  24
TORSDOF 6
