REMARK  Name = ZINC24481414
REMARK  3 active torsions:
REMARK  status: ('A' for Active; 'I' for Inactive)
REMARK    1  A    between atoms: C_6  and  N_7
REMARK    2  A    between atoms: C_11  and  C_20
REMARK    3  A    between atoms: N_22  and  C_23
REMARK                            x       y       z     vdW  Elec       q    Type
REMARK                         _______ _______ _______ _____ _____    ______ ____
ROOT
ATOM      1  C   UNL     1      -0.017   1.379   0.010  0.00  0.00    +0.034 A 
ATOM      2  C   UNL     1       1.168   2.083   0.002  0.00  0.00    +0.025 A 
ATOM      3  C   UNL     1       2.391   1.410  -0.014  0.00  0.00    +0.033 A 
ATOM      4  C   UNL     1       2.404   0.026  -0.026  0.00  0.00    -0.023 A 
ATOM      5  C   UNL     1       1.209  -0.675  -0.015  0.00  0.00    +0.038 A 
ATOM      6  C   UNL     1       0.002  -0.004   0.002  0.00  0.00    +0.127 A 
ATOM      7  C   UNL     1       3.690  -0.760  -0.059  0.00  0.00    +0.051 C 
ATOM      8  C   UNL     1       4.858   0.149   0.332  0.00  0.00    +0.100 C 
ATOM      9  C   UNL     1       4.736   1.450  -0.468  0.00  0.00    +0.086 C 
ATOM     10  N   UNL     1       3.552   2.179  -0.014  0.00  0.00    -0.326 N 
ATOM     11  C   UNL     1       3.367   3.425  -0.770  0.00  0.00    +0.105 C 
ATOM     12  C   UNL     1       4.575   4.339  -0.552  0.00  0.00    +0.019 C 
ATOM     13  C   UNL     1       5.845   3.618  -1.015  0.00  0.00    +0.003 C 
ATOM     14  C   UNL     1       5.987   2.303  -0.243  0.00  0.00    +0.023 C 
ENDROOT
BRANCH   8  15
ATOM     15  C   UNL     1       4.796   0.451   1.807  0.00  0.00    +0.218 C 
ATOM     16  O   UNL     1       4.667   1.595   2.187  0.00  0.00    -0.275 OA
ATOM     17  N   UNL     1       4.884  -0.551   2.704  0.00  0.00    -0.312 N 
ATOM     18  H   UNL     1       5.001  -1.589   2.360  0.00  0.00    +0.149 HD
BRANCH  17  19
ATOM     19  C   UNL     1       4.824  -0.258   4.138  0.00  0.00    +0.073 C 
ATOM     20  C   UNL     1       6.219   0.118   4.641  0.00  0.00    +0.022 C 
ATOM     21  C   UNL     1       6.157   0.425   6.139  0.00  0.00    +0.002 C 
ATOM     22  C   UNL     1       5.659  -0.811   6.892  0.00  0.00    +0.000 C 
ATOM     23  C   UNL     1       4.264  -1.187   6.389  0.00  0.00    +0.002 C 
ATOM     24  C   UNL     1       4.327  -1.493   4.891  0.00  0.00    +0.022 C 
ENDBRANCH  17  19
ENDBRANCH   8  15
BRANCH   6  25
ATOM     25  N   UNL     1      -1.269  -0.763   0.012  0.00  0.00    +0.056 N 
ATOM     26  O   UNL     1      -2.332  -0.170   0.027  0.00  0.00    -0.126 OA
ATOM     27  O   UNL     1      -1.251  -1.981   0.005  0.00  0.00    -0.126 OA
ENDBRANCH   6  25
TORSDOF 3
