REMARK  Name = ZINC61700526
REMARK  9 active torsions:
REMARK  status: ('A' for Active; 'I' for Inactive)
REMARK    1  A    between atoms: C_1  and  C_2
REMARK    2  A    between atoms: C_2  and  C_4
REMARK    3  A    between atoms: C_2  and  N_22
REMARK    4  A    between atoms: C_7  and  S_11
REMARK    5  A    between atoms: S_11  and  C_12
REMARK    6  A    between atoms: N_18  and  C_19
REMARK    7  A    between atoms: C_19  and  C_20
REMARK    8  A    between atoms: C_19  and  C_21
REMARK    9  A    between atoms: N_22  and  C_23
REMARK                            x       y       z     vdW  Elec       q    Type
REMARK                         _______ _______ _______ _____ _____    ______ ____
ROOT
ATOM      1  C   UNL     1      -1.414  -0.520   0.002  0.00  0.00    -0.061 A 
ATOM      2  C   UNL     1      -2.187  -0.449  -1.142  0.00  0.00    +0.003 A 
ATOM      3  C   UNL     1      -3.483  -0.927  -1.133  0.00  0.00    +0.016 A 
ATOM      4  C   UNL     1      -4.009  -1.481   0.027  0.00  0.00    +0.030 A 
ATOM      5  C   UNL     1      -3.229  -1.551   1.176  0.00  0.00    +0.032 A 
ATOM      6  C   UNL     1      -1.932  -1.075   1.158  0.00  0.00    +0.018 A 
ATOM      7 BR   UNL     1      -3.940  -2.303   2.759  0.00  0.00    -0.049 Br
ENDROOT
BRANCH   1   9
ATOM      8  C   UNL     1      -0.019   1.525   0.147  0.00  0.00    -0.009 C 
ATOM      9  C   UNL     1      -0.001   0.004  -0.012  0.00  0.00    -0.044 C 
BRANCH   9  10
ATOM     10  N   UNL     1       0.639  -0.348  -1.287  0.00  0.00    +0.382 N 
ATOM     11  C   UNL     1       2.051   0.056  -1.254  0.00  0.00    -0.100 C 
ATOM     12  H   UNL     1       0.578  -1.345  -1.430  0.00  0.00    -0.085 HD
ATOM     13  H   UNL     1       0.170   0.130  -2.041  0.00  0.00    -0.085 HD
ENDBRANCH   9  10
ENDBRANCH   1   9
BRANCH   4  14
ATOM     14  S   UNL     1      -5.662  -2.093   0.043  0.00  0.00    -0.049 S 
BRANCH  14  15
ATOM     15  C   UNL     1      -6.567  -0.852   0.906  0.00  0.00    +0.197 A 
ATOM     16  N   UNL     1      -6.091   0.289   1.315  0.00  0.00    -0.144 NA
ATOM     17  N   UNL     1      -7.126   0.987   1.954  0.00  0.00    -0.226 N 
ATOM     18  H   UNL     1      -7.061   1.866   2.358  0.00  0.00    +0.194 HD
ATOM     19  C   UNL     1      -8.228   0.210   1.904  0.00  0.00    +0.345 A 
ATOM     20  O   UNL     1      -9.324   0.485   2.358  0.00  0.00    -0.245 OA
ATOM     21  N   UNL     1      -7.897  -0.925   1.256  0.00  0.00    -0.268 N 
BRANCH  21  22
ATOM     22  C   UNL     1      -8.797  -2.045   0.973  0.00  0.00    +0.088 C 
ATOM     23  C   UNL     1      -9.335  -2.611   2.289  0.00  0.00    +0.031 C 
ATOM     24  C   UNL     1      -9.965  -1.557   0.113  0.00  0.00    +0.031 C 
ENDBRANCH  21  22
ENDBRANCH  14  15
ENDBRANCH   4  14
TORSDOF 5
