REMARK  Name = ZINC09442936
REMARK  10 active torsions:
REMARK  status: ('A' for Active; 'I' for Inactive)
REMARK    1  A    between atoms: C_1  and  C_2
REMARK    2  A    between atoms: C_2  and  C_3
REMARK    3  A    between atoms: C_4  and  C_31
REMARK    4  A    between atoms: C_6  and  C_8
REMARK    5  A    between atoms: N_10  and  N_11
REMARK    6  A    between atoms: C_12  and  C_14
REMARK    7  A    between atoms: C_14  and  N_15
REMARK    8  A    between atoms: C_20  and  C_27
REMARK    9  A    between atoms: C_23  and  C_25
REMARK   10  A    between atoms: C_23  and  C_26
REMARK                            x       y       z     vdW  Elec       q    Type
REMARK                         _______ _______ _______ _____ _____    ______ ____
ROOT
ATOM      1  C   UNL     1      -1.227  -0.867   0.199  0.00  0.00    +0.215 C 
ENDROOT
BRANCH   1   2
ATOM      2  N   UNL     1      -0.028  -0.027   0.144  0.00  0.00    -0.215 N 
ATOM      3  C   UNL     1      -0.047   1.322   0.127  0.00  0.00    +0.247 C 
ATOM      4  O   UNL     1      -1.022   2.043   0.149  0.00  0.00    -0.273 OA
ATOM      5  C   UNL     1       1.403   1.746   0.069  0.00  0.00    +0.113 C 
ATOM      6  C   UNL     1       1.675   2.535  -1.207  0.00  0.00    +0.038 C 
ATOM      7  C   UNL     1       3.153   2.930  -1.261  0.00  0.00    -0.011 C 
ATOM      8  C   UNL     1       3.498   3.776  -0.034  0.00  0.00    +0.009 C 
ATOM      9  C   UNL     1       3.244   2.962   1.236  0.00  0.00    -0.032 C 
ATOM     10  C   UNL     1       1.766   2.568   1.300  0.00  0.00    +0.041 C 
ATOM     11  C   UNL     1       3.600   3.806   2.462  0.00  0.00    +0.011 C 
ATOM     12  C   UNL     1       4.109   1.701   1.216  0.00  0.00    +0.011 C 
ATOM     13  C   UNL     1       3.419   3.740  -2.531  0.00  0.00    +0.007 C 
ATOM     14  N   UNL     1       2.145   0.478   0.058  0.00  0.00    -0.285 N 
ATOM     15  C   UNL     1       1.223  -0.503   0.105  0.00  0.00    +0.310 C 
ATOM     16  O   UNL     1       1.496  -1.687   0.111  0.00  0.00    -0.252 OA
ATOM     17  H   UNL     1       3.108   0.369   0.025  0.00  0.00    +0.151 HD
ENDBRANCH   1   2
BRANCH   1  19
ATOM     18  N   UNL     1      -2.784  -1.936  -1.399  0.00  0.00    -0.233 N 
ATOM     19  C   UNL     1      -1.690  -1.173  -1.202  0.00  0.00    +0.247 C 
ATOM     20  O   UNL     1      -1.079  -0.733  -2.153  0.00  0.00    -0.273 OA
ATOM     21  H   UNL     1      -3.273  -2.287  -0.638  0.00  0.00    +0.173 HD
BRANCH  18  24
ATOM     22  C   UNL     1      -4.308  -2.983  -2.898  0.00  0.00    +0.267 C 
ATOM     23  O   UNL     1      -4.922  -3.424  -1.944  0.00  0.00    -0.268 OA
ATOM     24  N   UNL     1      -3.215  -2.220  -2.701  0.00  0.00    -0.230 N 
ATOM     25  H   UNL     1      -2.725  -1.869  -3.462  0.00  0.00    +0.173 HD
BRANCH  22  29
ATOM     26  C   UNL     1      -5.180  -3.541  -6.882  0.00  0.00    -0.007 A 
ATOM     27  C   UNL     1      -6.041  -4.155  -6.029  0.00  0.00    -0.040 A 
ATOM     28  C   UNL     1      -5.845  -4.036  -4.676  0.00  0.00    +0.024 A 
ATOM     29  C   UNL     1      -4.759  -3.281  -4.260  0.00  0.00    +0.076 A 
ATOM     30  S   UNL     1      -4.057  -2.761  -5.816  0.00  0.00    -0.088 S 
ATOM     31  C   UNL     1      -7.199  -4.959  -6.563  0.00  0.00    +0.044 C 
BRANCH  26  33
ATOM     32  C   UNL     1      -6.033  -2.351  -8.883  0.00  0.00    +0.009 C 
ATOM     33  C   UNL     1      -5.199  -3.535  -8.389  0.00  0.00    +0.039 C 
ENDBRANCH  26  33
ENDBRANCH  22  29
ENDBRANCH  18  24
ENDBRANCH   1  19
TORSDOF 5
