REMARK  Name = ZINC39600452
REMARK  8 active torsions:
REMARK  status: ('A' for Active; 'I' for Inactive)
REMARK    1  A    between atoms: C_1  and  S_2
REMARK    2  A    between atoms: S_2  and  C_3
REMARK    3  A    between atoms: C_3  and  C_4
REMARK    4  A    between atoms: C_4  and  C_5
REMARK    5  A    between atoms: C_9  and  C_18
REMARK    6  A    between atoms: N_20  and  C_21
REMARK    7  A    between atoms: C_21  and  C_22
REMARK    8  A    between atoms: C_24  and  C_29
REMARK                            x       y       z     vdW  Elec       q    Type
REMARK                         _______ _______ _______ _____ _____    ______ ____
ROOT
ATOM      1  C   UNL     1       1.647  -2.356  -2.638  0.00  0.00    +0.216 C 
ATOM      2  O   UNL     1       2.042  -1.409  -3.285  0.00  0.00    -0.276 OA
ATOM      3  N   UNL     1       1.863  -3.611  -3.079  0.00  0.00    -0.300 N 
ATOM      4  C   UNL     1       1.454  -4.882  -2.437  0.00  0.00    +0.121 C 
ATOM      5  C   UNL     1       1.009  -5.786  -3.608  0.00  0.00    +0.100 C 
ATOM      6  C   UNL     1       1.743  -5.224  -4.838  0.00  0.00    -0.004 C 
ATOM      7  C   UNL     1       2.559  -4.031  -4.318  0.00  0.00    +0.115 C 
ATOM      8  C   UNL     1       0.737  -4.751  -5.883  0.00  0.00    -0.010 C 
ATOM      9  C   UNL     1       1.489  -4.249  -7.119  0.00  0.00    -0.082 C 
ATOM     10  N   UNL     1       2.318  -5.332  -7.662  0.00  0.00    +0.379 N 
ATOM     11  C   UNL     1       3.343  -5.718  -6.684  0.00  0.00    -0.082 C 
ATOM     12  C   UNL     1       2.669  -6.281  -5.430  0.00  0.00    -0.010 C 
ATOM     13  H   UNL     1       1.735  -6.130  -7.868  0.00  0.00    -0.086 HD
ATOM     14  H   UNL     1       2.765  -5.018  -8.510  0.00  0.00    -0.086 HD
ENDROOT
BRANCH   5  15
ATOM     15  C   UNL     1      -0.483  -5.700  -3.800  0.00  0.00    +0.218 C 
ATOM     16  O   UNL     1      -1.073  -4.678  -3.519  0.00  0.00    -0.275 OA
ATOM     17  N   UNL     1      -1.163  -6.758  -4.284  0.00  0.00    -0.311 N 
ATOM     18  H   UNL     1      -0.691  -7.576  -4.509  0.00  0.00    +0.149 HD
BRANCH  17  19
ATOM     19  C   UNL     1      -2.613  -6.675  -4.471  0.00  0.00    +0.139 C 
BRANCH  19  20
ATOM     20  C   UNL     1      -3.125  -7.982  -5.020  0.00  0.00    -0.027 A 
ATOM     21  C   UNL     1      -3.188  -8.180  -6.387  0.00  0.00    +0.017 A 
ATOM     22  C   UNL     1      -3.658  -9.378  -6.891  0.00  0.00    +0.058 A 
ATOM     23  C   UNL     1      -4.065 -10.379  -6.030  0.00  0.00    +0.050 A 
ATOM     24  C   UNL     1      -4.003 -10.182  -4.661  0.00  0.00    +0.124 A 
ATOM     25  C   UNL     1      -3.526  -8.983  -4.157  0.00  0.00    +0.043 A 
ATOM     26  F   UNL     1      -4.401 -11.160  -3.818  0.00  0.00    -0.205 F 
BRANCH  22  27
ATOM     27  C   UNL     1      -3.725  -9.592  -8.382  0.00  0.00    +0.418 C 
ATOM     28  F   UNL     1      -2.520 -10.145  -8.829  0.00  0.00    -0.166 F 
ATOM     29  F   UNL     1      -4.778 -10.465  -8.680  0.00  0.00    -0.166 F 
ATOM     30  F   UNL     1      -3.941  -8.366  -9.020  0.00  0.00    -0.166 F 
ENDBRANCH  22  27
ENDBRANCH  19  20
ENDBRANCH  17  19
ENDBRANCH   5  15
BRANCH   1  31
ATOM     31  C   UNL     1       0.913  -2.128  -1.341  0.00  0.00    +0.106 C 
BRANCH  31  32
ATOM     32  C   UNL     1       0.803  -0.626  -1.074  0.00  0.00    +0.078 C 
BRANCH  32  34
ATOM     33  C   UNL     1      -0.126   1.453   0.655  0.00  0.00    +0.084 C 
ATOM     34  S   UNL     1      -0.080  -0.352   0.487  0.00  0.00    -0.164 S 
ENDBRANCH  32  34
ENDBRANCH  31  32
ENDBRANCH   1  31
TORSDOF 7
