REMARK  Name = ZINC39639030
REMARK  5 active torsions:
REMARK  status: ('A' for Active; 'I' for Inactive)
REMARK    1  A    between atoms: C_5  and  C_7
REMARK    2  A    between atoms: C_7  and  C_8
REMARK    3  A    between atoms: C_8  and  N_9
REMARK    4  A    between atoms: C_10  and  C_12
REMARK    5  A    between atoms: C_23  and  C_25
REMARK                            x       y       z     vdW  Elec       q    Type
REMARK                         _______ _______ _______ _____ _____    ______ ____
ROOT
ATOM      1  C   UNL     1       1.536  -6.353   2.551  0.00  0.00    +0.100 C 
ATOM      2  C   UNL     1       2.691  -6.871   1.664  0.00  0.00    +0.121 C 
ATOM      3  N   UNL     1       3.809  -7.110   2.607  0.00  0.00    -0.296 N 
ATOM      4  C   UNL     1       3.160  -7.685   3.810  0.00  0.00    +0.115 C 
ATOM      5  C   UNL     1       1.846  -6.893   3.958  0.00  0.00    -0.004 C 
ATOM      6  C   UNL     1       0.725  -7.814   4.429  0.00  0.00    -0.010 C 
ATOM      7  C   UNL     1       1.027  -8.291   5.853  0.00  0.00    -0.082 C 
ATOM      8  N   UNL     1       1.143  -7.132   6.745  0.00  0.00    +0.379 N 
ATOM      9  C   UNL     1       2.283  -6.300   6.340  0.00  0.00    -0.082 C 
ATOM     10  C   UNL     1       2.034  -5.738   4.937  0.00  0.00    -0.010 C 
ATOM     11  C   UNL     1       5.120  -6.861   2.415  0.00  0.00    +0.252 C 
ATOM     12  O   UNL     1       5.922  -7.115   3.292  0.00  0.00    -0.270 OA
ATOM     13  H   UNL     1       0.296  -6.585   6.697  0.00  0.00    -0.086 HD
ATOM     14  H   UNL     1       1.282  -7.451   7.692  0.00  0.00    -0.086 HD
ENDROOT
BRANCH  11  15
ATOM     15  C   UNL     1       5.580  -6.280   1.139  0.00  0.00    +0.108 A 
ATOM     16  C   UNL     1       5.661  -4.892   0.987  0.00  0.00    +0.138 A 
ATOM     17  C   UNL     1       6.094  -4.356  -0.211  0.00  0.00    +0.041 A 
ATOM     18  C   UNL     1       6.447  -5.187  -1.258  0.00  0.00    +0.026 A 
ATOM     19  C   UNL     1       6.371  -6.562  -1.117  0.00  0.00    +0.077 A 
ATOM     20  C   UNL     1       5.945  -7.115   0.077  0.00  0.00    +0.156 A 
ATOM     21  F   UNL     1       5.876  -8.457   0.216  0.00  0.00    -0.203 F 
ATOM     22 CL   UNL     1       6.816  -7.595  -2.439  0.00  0.00    -0.081 Cl
ATOM     23  F   UNL     1       5.316  -4.077   2.008  0.00  0.00    -0.205 F 
ENDBRANCH  11  15
BRANCH   1  25
ATOM     24  N   UNL     1       0.356  -4.189   2.754  0.00  0.00    -0.315 N 
ATOM     25  C   UNL     1       1.516  -4.847   2.560  0.00  0.00    +0.218 C 
ATOM     26  O   UNL     1       2.544  -4.225   2.393  0.00  0.00    -0.275 OA
ATOM     27  H   UNL     1      -0.467  -4.686   2.887  0.00  0.00    +0.149 HD
BRANCH  24  28
ATOM     28  C   UNL     1       0.336  -2.724   2.762  0.00  0.00    +0.109 C 
BRANCH  28  29
ATOM     29  C   UNL     1      -1.094  -2.235   3.000  0.00  0.00    +0.056 C 
BRANCH  29  34
ATOM     30  C   UNL     1      -1.052   1.340   4.214  0.00  0.00    +0.000 A 
ATOM     31  C   UNL     1      -1.152   2.038   3.025  0.00  0.00    +0.003 A 
ATOM     32  C   UNL     1      -1.233   1.355   1.827  0.00  0.00    +0.038 A 
ATOM     33  C   UNL     1      -1.214  -0.030   1.817  0.00  0.00    +0.127 A 
ATOM     34  C   UNL     1      -1.114  -0.728   3.009  0.00  0.00    -0.011 A 
ATOM     35  C   UNL     1      -1.033  -0.042   4.206  0.00  0.00    +0.006 A 
ATOM     36  F   UNL     1      -1.294  -0.699   0.646  0.00  0.00    -0.205 F 
ENDBRANCH  29  34
ENDBRANCH  28  29
ENDBRANCH  24  28
ENDBRANCH   1  25
TORSDOF 5
