REMARK  Name = ZINC04735232
REMARK  5 active torsions:
REMARK  status: ('A' for Active; 'I' for Inactive)
REMARK    1  A    between atoms: C_6  and  C_7
REMARK    2  A    between atoms: C_7  and  C_8
REMARK    3  A    between atoms: N_10  and  N_11
REMARK    4  A    between atoms: C_12  and  C_13
REMARK    5  A    between atoms: C_17  and  N_19
REMARK                            x       y       z     vdW  Elec       q    Type
REMARK                         _______ _______ _______ _____ _____    ______ ____
ROOT
ATOM      1  C   UNL     1      -0.742   1.585  -1.213  0.00  0.00    +0.237 C 
ATOM      2  O   UNL     1      -1.736   2.268  -1.088  0.00  0.00    -0.274 OA
ATOM      3  N   UNL     1      -0.288   1.272  -2.443  0.00  0.00    -0.207 N 
ATOM      4  H   UNL     1       0.507   0.726  -2.543  0.00  0.00    +0.177 HD
ENDROOT
BRANCH   3   5
ATOM      5  N   UNL     1      -0.966   1.736  -3.578  0.00  0.00    -0.188 NA
ATOM      6  C   UNL     1      -0.530   1.435  -4.763  0.00  0.00    +0.138 C 
BRANCH   6   7
ATOM      7  C   UNL     1      -1.243   1.924  -5.957  0.00  0.00    -0.003 A 
ATOM      8  C   UNL     1      -2.392   2.706  -5.816  0.00  0.00    +0.013 A 
ATOM      9  C   UNL     1      -3.052   3.165  -6.935  0.00  0.00    +0.054 A 
ATOM     10  C   UNL     1      -2.583   2.842  -8.202  0.00  0.00    +0.209 A 
ATOM     11  C   UNL     1      -1.445   2.059  -8.347  0.00  0.00    +0.173 A 
ATOM     12  C   UNL     1      -0.775   1.601  -7.233  0.00  0.00    +0.046 A 
ATOM     13  O   UNL     1      -3.240   3.292  -9.303  0.00  0.00    -0.285 OA
BRANCH  11  14
ATOM     14  N   UNL     1      -0.950   1.718  -9.700  0.00  0.00    +0.060 N 
ATOM     15  O   UNL     1       0.049   1.033  -9.828  0.00  0.00    -0.126 OA
ATOM     16  O   UNL     1      -1.541   2.123 -10.685  0.00  0.00    -0.126 OA
ENDBRANCH  11  14
ENDBRANCH   6   7
ENDBRANCH   3   5
BRANCH   1  17
ATOM     17  C   UNL     1      -0.013   1.086   0.008  0.00  0.00    +0.132 C 
BRANCH  17  23
ATOM     18  C   UNL     1      -0.360   2.779   1.819  0.00  0.00    +0.005 A 
ATOM     19  C   UNL     1      -1.010   3.227   2.953  0.00  0.00    +0.015 A 
ATOM     20  C   UNL     1      -2.012   2.463   3.523  0.00  0.00    +0.018 A 
ATOM     21  C   UNL     1      -2.366   1.253   2.955  0.00  0.00    +0.015 A 
ATOM     22  C   UNL     1      -1.719   0.808   1.818  0.00  0.00    +0.005 A 
ATOM     23  C   UNL     1      -0.718   1.572   1.248  0.00  0.00    -0.039 A 
ATOM     24 BR   UNL     1      -2.897   3.073   5.079  0.00  0.00    -0.050 Br
ENDBRANCH  17  23
ENDBRANCH   1  17
TORSDOF 5
