REMARK  Name = ZINC31045696
REMARK  6 active torsions:
REMARK  status: ('A' for Active; 'I' for Inactive)
REMARK    1  A    between atoms: C_4  and  N_16
REMARK    2  A    between atoms: C_5  and  C_7
REMARK    3  A    between atoms: C_17  and  C_19
REMARK    4  A    between atoms: N_24  and  C_26
REMARK    5  A    between atoms: C_26  and  C_27
REMARK    6  A    between atoms: C_29  and  C_32
REMARK                            x       y       z     vdW  Elec       q    Type
REMARK                         _______ _______ _______ _____ _____    ______ ____
ROOT
ATOM      1  C   UNL     1      -3.624  -0.589  -1.055  0.00  0.00    +0.059 C 
ATOM      2  C   UNL     1      -3.924  -1.692  -0.037  0.00  0.00    +0.009 C 
ATOM      3  C   UNL     1      -5.230  -2.392  -0.423  0.00  0.00    -0.018 C 
ATOM      4  C   UNL     1      -6.358  -1.359  -0.484  0.00  0.00    -0.078 C 
ATOM      5  N   UNL     1      -6.024  -0.326  -1.472  0.00  0.00    +0.386 N 
ATOM      6  C   UNL     1      -4.799   0.392  -1.098  0.00  0.00    -0.065 C 
ATOM      7  H   UNL     1      -5.838  -0.828  -2.433  0.00  0.00    -0.081 HD
ENDROOT
BRANCH   1   9
ATOM      8  N   UNL     1      -1.205  -0.523  -0.546  0.00  0.00    -0.285 N 
ATOM      9  C   UNL     1      -2.372   0.144  -0.650  0.00  0.00    +0.219 C 
ATOM     10  O   UNL     1      -2.413   1.334  -0.418  0.00  0.00    -0.275 OA
ATOM     11  H   UNL     1      -1.183  -1.616  -0.667  0.00  0.00    +0.155 HD
BRANCH   8  15
ATOM     12  C   UNL     1       2.322   1.560   0.237  0.00  0.00    +0.001 A 
ATOM     13  C   UNL     1       1.302   2.159  -0.485  0.00  0.00    +0.002 A 
ATOM     14  C   UNL     1       0.134   1.472  -0.746  0.00  0.00    +0.024 A 
ATOM     15  C   UNL     1      -0.026   0.172  -0.284  0.00  0.00    +0.046 A 
ATOM     16  C   UNL     1       1.004  -0.437   0.447  0.00  0.00    +0.058 A 
ATOM     17  C   UNL     1       2.180   0.271   0.703  0.00  0.00    +0.015 A 
BRANCH  16  18
ATOM     18  C   UNL     1       0.845  -1.817   0.944  0.00  0.00    +0.248 C 
ATOM     19  O   UNL     1      -0.049  -2.084   1.724  0.00  0.00    -0.270 OA
ATOM     20  N   UNL     1       1.692  -2.782   0.533  0.00  0.00    -0.297 N 
ATOM     21  C   UNL     1       2.809  -2.413  -0.306  0.00  0.00    +0.108 C 
ATOM     22  C   UNL     1       2.393  -2.472  -1.791  0.00  0.00    +0.019 C 
ATOM     23  C   UNL     1       2.219  -3.869  -2.217  0.00  0.00    +0.002 C 
ATOM     24  C   UNL     1       1.111  -4.617  -1.483  0.00  0.00    +0.002 C 
ATOM     25  C   UNL     1       1.656  -5.177  -0.192  0.00  0.00    +0.019 C 
ATOM     26  C   UNL     1       1.436  -4.174   0.954  0.00  0.00    +0.108 C 
ENDBRANCH  16  18
ENDBRANCH   8  15
ENDBRANCH   1   9
BRANCH   5  27
ATOM     27  C   UNL     1      -7.144   0.607  -1.658  0.00  0.00    +0.022 C 
BRANCH  27  28
ATOM     28  C   UNL     1      -8.427  -0.171  -1.798  0.00  0.00    +0.211 A 
ATOM     29  N   UNL     1      -9.225  -0.536  -0.825  0.00  0.00    -0.193 NA
ATOM     30  C   UNL     1     -10.240  -1.203  -1.420  0.00  0.00    +0.202 A 
ATOM     31  N   UNL     1      -9.997  -1.211  -2.704  0.00  0.00    -0.056 NA
ATOM     32  O   UNL     1      -8.961  -0.624  -2.936  0.00  0.00    -0.340 OA
BRANCH  30  33
ATOM     33  C   UNL     1     -11.409  -1.816  -0.740  0.00  0.00    +0.023 A 
ATOM     34  C   UNL     1     -11.535  -1.733   0.645  0.00  0.00    +0.013 A 
ATOM     35  C   UNL     1     -12.627  -2.298   1.271  0.00  0.00    +0.021 A 
ATOM     36  C   UNL     1     -13.589  -2.959   0.527  0.00  0.00    +0.041 A 
ATOM     37  C   UNL     1     -13.465  -3.049  -0.849  0.00  0.00    +0.021 A 
ATOM     38  C   UNL     1     -12.380  -2.481  -1.485  0.00  0.00    +0.013 A 
ATOM     39 CL   UNL     1     -14.957  -3.675   1.321  0.00  0.00    -0.084 Cl
ENDBRANCH  30  33
ENDBRANCH  27  28
ENDBRANCH   5  27
TORSDOF 6
