REMARK  Name = ZINC36573306
REMARK  12 active torsions:
REMARK  status: ('A' for Active; 'I' for Inactive)
REMARK    1  A    between atoms: C_1  and  C_2
REMARK    2  A    between atoms: C_2  and  C_3
REMARK    3  A    between atoms: C_3  and  N_4
REMARK    4  A    between atoms: N_4  and  C_5
REMARK    5  A    between atoms: C_5  and  C_7
REMARK    6  A    between atoms: C_5  and  C_14
REMARK    7  A    between atoms: C_12  and  O_13
REMARK    8  A    between atoms: N_16  and  C_17
REMARK    9  A    between atoms: C_17  and  S_18
REMARK   10  A    between atoms: S_18  and  C_21
REMARK   11  A    between atoms: C_24  and  C_27
REMARK   12  A    between atoms: C_28  and  C_30
REMARK                            x       y       z     vdW  Elec       q    Type
REMARK                         _______ _______ _______ _____ _____    ______ ____
ROOT
ATOM      1  C   UNL     1      -0.388  -2.833  -1.938  0.00  0.00    +0.196 C 
ENDROOT
BRANCH   1   2
ATOM      2  C   UNL     1      -1.784  -2.451  -1.517  0.00  0.00    +0.023 A 
ATOM      3  C   UNL     1      -2.071  -1.141  -1.184  0.00  0.00    +0.009 A 
ATOM      4  C   UNL     1      -3.352  -0.790  -0.798  0.00  0.00    +0.001 A 
ATOM      5  C   UNL     1      -4.347  -1.749  -0.744  0.00  0.00    +0.004 A 
ATOM      6  C   UNL     1      -4.065  -3.059  -1.076  0.00  0.00    +0.046 A 
ATOM      7  C   UNL     1      -2.782  -3.413  -1.470  0.00  0.00    +0.122 A 
BRANCH   7   8
ATOM      8  O   UNL     1      -2.503  -4.701  -1.802  0.00  0.00    -0.506 OA
ATOM      9  H   UNL     1      -2.216  -5.246  -1.057  0.00  0.00    +0.292 HD
ENDBRANCH   7   8
ENDBRANCH   1   2
BRANCH   1  10
ATOM     10  C   UNL     1      -0.257  -2.690  -3.432  0.00  0.00    +0.239 C 
ATOM     11  O   UNL     1       0.623  -1.998  -3.900  0.00  0.00    -0.273 OA
ATOM     12  N   UNL     1      -1.117  -3.331  -4.248  0.00  0.00    -0.294 N 
ATOM     13  H   UNL     1      -1.820  -3.884  -3.874  0.00  0.00    +0.150 HD
BRANCH  12  14
ATOM     14  C   UNL     1      -0.989  -3.192  -5.701  0.00  0.00    +0.278 C 
BRANCH  14  15
ATOM     15  S   UNL     1      -0.013  -4.573  -6.357  0.00  0.00    +0.013 S 
ATOM     16  O   UNL     1       0.067  -4.487  -7.774  0.00  0.00    -0.168 OA
ATOM     17  O   UNL     1       1.159  -4.759  -5.576  0.00  0.00    -0.168 OA
BRANCH  15  18
ATOM     18  C   UNL     1      -0.991  -6.005  -6.048  0.00  0.00    +0.090 A 
ATOM     19  C   UNL     1      -0.849  -6.696  -4.859  0.00  0.00    +0.027 A 
ATOM     20  C   UNL     1      -1.617  -7.820  -4.617  0.00  0.00    +0.005 A 
ATOM     21  C   UNL     1      -2.526  -8.253  -5.564  0.00  0.00    -0.050 A 
ATOM     22  C   UNL     1      -2.669  -7.562  -6.752  0.00  0.00    +0.005 A 
ATOM     23  C   UNL     1      -1.905  -6.436  -6.993  0.00  0.00    +0.027 A 
ATOM     24  C   UNL     1      -3.362  -9.479  -5.300  0.00  0.00    +0.044 C 
ENDBRANCH  15  18
ENDBRANCH  14  15
ENDBRANCH  12  14
ENDBRANCH   1  10
BRANCH   1  25
ATOM     25  N   UNL     1       0.579  -1.954  -1.276  0.00  0.00    -0.282 N 
ATOM     26  C   UNL     1       0.783  -2.054   0.052  0.00  0.00    +0.247 C 
ATOM     27  O   UNL     1       1.655  -1.396   0.585  0.00  0.00    -0.270 OA
BRANCH  26  28
ATOM     28  C   UNL     1      -0.055  -2.965   0.862  0.00  0.00    +0.037 A 
ATOM     29  C   UNL     1      -0.984  -3.800   0.240  0.00  0.00    +0.013 A 
ATOM     30  C   UNL     1      -1.762  -4.648   1.001  0.00  0.00    +0.001 A 
ATOM     31  C   UNL     1      -1.623  -4.671   2.377  0.00  0.00    +0.000 A 
ATOM     32  C   UNL     1      -0.704  -3.846   3.000  0.00  0.00    +0.001 A 
ATOM     33  C   UNL     1       0.085  -2.998   2.250  0.00  0.00    +0.013 A 
ENDBRANCH  26  28
BRANCH  25  34
ATOM     34  C   UNL     1       1.325  -0.965  -2.059  0.00  0.00    +0.109 C 
BRANCH  34  36
ATOM     35  C   UNL     1       3.276  -0.629  -3.583  0.00  0.00    +0.005 C 
ATOM     36  C   UNL     1       2.565  -1.625  -2.665  0.00  0.00    +0.016 C 
ENDBRANCH  34  36
ENDBRANCH  25  34
ENDBRANCH   1  25
TORSDOF 10
