REMARK  Name = ZINC25523538
REMARK  4 active torsions:
REMARK  status: ('A' for Active; 'I' for Inactive)
REMARK    1  A    between atoms: C_1  and  C_2
REMARK    2  A    between atoms: C_9  and  S_12
REMARK    3  A    between atoms: S_12  and  C_13
REMARK    4  A    between atoms: C_17  and  C_19
REMARK                            x       y       z     vdW  Elec       q    Type
REMARK                         _______ _______ _______ _____ _____    ______ ____
ROOT
ATOM      1  S   UNL     1      -1.577   6.181   0.047  0.00  0.00    -0.030 S 
ENDROOT
BRANCH   1  10
ATOM      2  C   UNL     1       3.671   3.283  -0.015  0.00  0.00    +0.068 C 
ATOM      3  C   UNL     1       2.316   3.942   0.000  0.00  0.00    +0.068 A 
ATOM      4  C   UNL     1       1.144   3.163   0.008  0.00  0.00    +0.007 A 
ATOM      5  C   UNL     1       1.165   1.763   0.000  0.00  0.00    +0.010 A 
ATOM      6  C   UNL     1      -0.013   1.076   0.008  0.00  0.00    +0.001 A 
ATOM      7  C   UNL     1      -1.234   1.744   0.017  0.00  0.00    +0.001 A 
ATOM      8  C   UNL     1      -1.290   3.107   0.030  0.00  0.00    +0.011 A 
ATOM      9  C   UNL     1      -0.101   3.844   0.023  0.00  0.00    +0.018 A 
ATOM     10  C   UNL     1      -0.077   5.257   0.029  0.00  0.00    +0.134 A 
ATOM     11  N   UNL     1       1.093   5.873   0.021  0.00  0.00    -0.142 NA
ATOM     12  N   UNL     1       2.213   5.251   0.007  0.00  0.00    -0.153 NA
ENDBRANCH   1  10
BRANCH   1  13
ATOM     13  C   UNL     1      -0.927   7.819   0.049  0.00  0.00    +0.173 A 
ATOM     14  N   UNL     1      -1.663   8.965   0.061  0.00  0.00    -0.339 N 
ATOM     15  H   UNL     1      -2.762   8.913   0.071  0.00  0.00    +0.167 HD
ATOM     16  C   UNL     1      -0.780  10.016   0.058  0.00  0.00    +0.113 A 
ATOM     17  C   UNL     1       0.467   9.482   0.044  0.00  0.00    +0.090 A 
ATOM     18  N   UNL     1       0.344   8.137   0.044  0.00  0.00    -0.222 NA
BRANCH  17  19
ATOM     19  C   UNL     1       1.740  10.242   0.035  0.00  0.00    +0.002 A 
ATOM     20  C   UNL     1       1.724  11.635   0.035  0.00  0.00    +0.010 A 
ATOM     21  C   UNL     1       2.912  12.337   0.031  0.00  0.00    +0.001 A 
ATOM     22  C   UNL     1       4.118  11.659   0.017  0.00  0.00    +0.000 A 
ATOM     23  C   UNL     1       4.141  10.276   0.012  0.00  0.00    +0.001 A 
ATOM     24  C   UNL     1       2.959   9.564   0.021  0.00  0.00    +0.010 A 
ENDBRANCH  17  19
ENDBRANCH   1  13
TORSDOF 3
