REMARK  Name = ZINC66342784
REMARK  7 active torsions:
REMARK  status: ('A' for Active; 'I' for Inactive)
REMARK    1  A    between atoms: C_1  and  C_2
REMARK    2  A    between atoms: C_4  and  C_8
REMARK    3  A    between atoms: C_5  and  C_7
REMARK    4  A    between atoms: N_10  and  N_11
REMARK    5  A    between atoms: N_14  and  C_15
REMARK    6  A    between atoms: C_15  and  C_16
REMARK    7  A    between atoms: N_20  and  C_22
REMARK                            x       y       z     vdW  Elec       q    Type
REMARK                         _______ _______ _______ _____ _____    ______ ____
ROOT
ATOM      1  N   UNL     1      -3.464  -4.540  -0.007  0.00  0.00    -0.218 N 
ATOM      2  C   UNL     1      -4.811  -4.480  -0.001  0.00  0.00    +0.316 C 
ATOM      3  O   UNL     1      -5.465  -5.505  -0.003  0.00  0.00    -0.251 OA
ATOM      4  N   UNL     1      -5.432  -3.284   0.008  0.00  0.00    -0.298 N 
ATOM      5  H   UNL     1      -3.017  -5.400  -0.013  0.00  0.00    +0.174 HD
ATOM      6  H   UNL     1      -4.910  -2.466   0.010  0.00  0.00    +0.150 HD
ENDROOT
BRANCH   1   9
ATOM      7  C   UNL     1      -1.364  -3.418  -0.010  0.00  0.00    +0.263 C 
ATOM      8  O   UNL     1      -0.804  -4.497  -0.018  0.00  0.00    -0.269 OA
ATOM      9  N   UNL     1      -2.711  -3.358  -0.004  0.00  0.00    -0.229 N 
ATOM     10  H   UNL     1      -3.158  -2.498   0.002  0.00  0.00    +0.173 HD
BRANCH   7  14
ATOM     11  C   UNL     1      -0.018   1.503   0.010  0.00  0.00    +0.086 C 
ATOM     12  C   UNL     1       0.002  -0.004   0.002  0.00  0.00    +0.103 A 
ATOM     13  C   UNL     1      -1.081  -0.797   0.003  0.00  0.00    +0.057 A 
ATOM     14  C   UNL     1      -0.571  -2.176  -0.007  0.00  0.00    +0.079 A 
ATOM     15  C   UNL     1       0.788  -2.066  -0.013  0.00  0.00    +0.114 A 
ATOM     16  O   UNL     1       1.106  -0.767  -0.013  0.00  0.00    -0.464 OA
ATOM     17  C   UNL     1       1.766  -3.212  -0.024  0.00  0.00    +0.087 C 
ENDBRANCH   7  14
ENDBRANCH   1   9
BRANCH   4  18
ATOM     18  C   UNL     1      -6.896  -3.219   0.015  0.00  0.00    +0.111 C 
BRANCH  18  19
ATOM     19  C   UNL     1      -7.341  -1.755   0.024  0.00  0.00    +0.025 C 
ATOM     20  C   UNL     1      -7.014  -1.083   1.384  0.00  0.00    +0.025 C 
ATOM     21  C   UNL     1      -8.069   0.039   1.478  0.00  0.00    +0.105 C 
ATOM     22  N   UNL     1      -9.185  -0.337   0.598  0.00  0.00    -0.330 N 
ATOM     23  C   UNL     1      -8.886  -1.644  -0.015  0.00  0.00    +0.110 C 
BRANCH  22  24
ATOM     24  C   UNL     1     -10.341   0.420   0.379  0.00  0.00    +0.030 A 
ATOM     25  C   UNL     1     -11.329  -0.052  -0.475  0.00  0.00    +0.026 A 
ATOM     26  C   UNL     1     -12.470   0.697  -0.689  0.00  0.00    +0.040 A 
ATOM     27  C   UNL     1     -12.629   1.917  -0.054  0.00  0.00    +0.124 A 
ATOM     28  C   UNL     1     -11.644   2.389   0.798  0.00  0.00    +0.040 A 
ATOM     29  C   UNL     1     -10.504   1.641   1.020  0.00  0.00    +0.026 A 
ATOM     30  F   UNL     1     -13.745   2.647  -0.265  0.00  0.00    -0.205 F 
ENDBRANCH  22  24
ENDBRANCH  18  19
ENDBRANCH   4  18
TORSDOF 5
