REMARK  Name = ZINC20923395
REMARK  10 active torsions:
REMARK  status: ('A' for Active; 'I' for Inactive)
REMARK    1  A    between atoms: C_1  and  C_2
REMARK    2  A    between atoms: C_5  and  N_9
REMARK    3  A    between atoms: C_6  and  C_8
REMARK    4  A    between atoms: N_9  and  C_10
REMARK    5  A    between atoms: N_9  and  S_21
REMARK    6  A    between atoms: C_10  and  C_11
REMARK    7  A    between atoms: N_13  and  C_14
REMARK    8  A    between atoms: C_19  and  C_20
REMARK    9  A    between atoms: S_21  and  C_24
REMARK   10  A    between atoms: C_28  and  N_30
REMARK                            x       y       z     vdW  Elec       q    Type
REMARK                         _______ _______ _______ _____ _____    ______ ____
ROOT
ATOM      1  N   UNL     1       2.687   0.717  -0.365  0.00  0.00    -0.194 N 
ENDROOT
BRANCH   1   6
ATOM      2  C   UNL     1      -1.687   4.239  -1.151  0.00  0.00    +0.044 C 
ATOM      3  C   UNL     1      -0.525   3.303  -0.943  0.00  0.00    -0.050 A 
ATOM      4  C   UNL     1       0.770   3.764  -1.098  0.00  0.00    +0.005 A 
ATOM      5  C   UNL     1       1.837   2.908  -0.912  0.00  0.00    +0.025 A 
ATOM      6  C   UNL     1       1.610   1.584  -0.559  0.00  0.00    +0.055 A 
ATOM      7  C   UNL     1       0.309   1.125  -0.399  0.00  0.00    -0.028 A 
ATOM      8  C   UNL     1      -0.754   1.985  -0.592  0.00  0.00    +0.008 A 
ATOM      9  C   UNL     1       0.057  -0.311  -0.016  0.00  0.00    +0.046 C 
ENDBRANCH   1   6
BRANCH   1  10
ATOM     10  S   UNL     1       3.304   0.490   1.155  0.00  0.00    +0.075 S 
ATOM     11  O   UNL     1       4.693   0.237   0.996  0.00  0.00    -0.150 OA
ATOM     12  O   UNL     1       2.811   1.556   1.956  0.00  0.00    -0.150 OA
BRANCH  10  13
ATOM     13  C   UNL     1       2.592  -0.990   1.792  0.00  0.00    +0.111 A 
ATOM     14  C   UNL     1       1.494  -0.924   2.630  0.00  0.00    +0.030 A 
ATOM     15  C   UNL     1       0.932  -2.085   3.126  0.00  0.00    +0.024 A 
ATOM     16  C   UNL     1       1.474  -3.313   2.792  0.00  0.00    +0.071 A 
ATOM     17  C   UNL     1       2.576  -3.378   1.958  0.00  0.00    +0.146 A 
ATOM     18  C   UNL     1       3.134  -2.217   1.459  0.00  0.00    +0.063 A 
ATOM     19 CL   UNL     1       0.773  -4.772   3.420  0.00  0.00    -0.081 Cl
BRANCH  17  20
ATOM     20  N   UNL     1       3.157  -4.692   1.601  0.00  0.00    +0.058 N 
ATOM     21  O   UNL     1       4.127  -4.749   0.866  0.00  0.00    -0.126 OA
ATOM     22  O   UNL     1       2.665  -5.715   2.041  0.00  0.00    -0.126 OA
ENDBRANCH  17  20
ENDBRANCH  10  13
ENDBRANCH   1  10
BRANCH   1  23
ATOM     23  C   UNL     1       3.271   0.007  -1.505  0.00  0.00    +0.227 C 
BRANCH  23  24
ATOM     24  C   UNL     1       4.296   0.886  -2.173  0.00  0.00    +0.236 C 
ATOM     25  O   UNL     1       4.470   2.021  -1.780  0.00  0.00    -0.274 OA
ATOM     26  N   UNL     1       5.019   0.413  -3.207  0.00  0.00    -0.284 N 
ATOM     27  H   UNL     1       4.809  -0.587  -3.613  0.00  0.00    +0.155 HD
BRANCH  26  28
ATOM     28  C   UNL     1       6.038   1.194  -3.764  0.00  0.00    +0.036 A 
ATOM     29  C   UNL     1       5.963   2.579  -3.708  0.00  0.00    +0.023 A 
ATOM     30  C   UNL     1       6.972   3.347  -4.254  0.00  0.00    +0.002 A 
ATOM     31  C   UNL     1       8.053   2.738  -4.865  0.00  0.00    +0.000 A 
ATOM     32  C   UNL     1       8.129   1.359  -4.927  0.00  0.00    +0.005 A 
ATOM     33  C   UNL     1       7.125   0.585  -4.378  0.00  0.00    -0.029 A 
ATOM     34  C   UNL     1       7.207  -0.918  -4.447  0.00  0.00    +0.045 C 
ENDBRANCH  26  28
ENDBRANCH  23  24
ENDBRANCH   1  23
TORSDOF 7
