REMARK  Name = ZINC39685032
REMARK  6 active torsions:
REMARK  status: ('A' for Active; 'I' for Inactive)
REMARK    1  A    between atoms: C_5  and  O_7
REMARK    2  A    between atoms: O_7  and  C_8
REMARK    3  A    between atoms: C_8  and  C_9
REMARK    4  A    between atoms: C_9  and  N_10
REMARK    5  A    between atoms: C_11  and  C_13
REMARK    6  A    between atoms: C_24  and  C_26
REMARK                            x       y       z     vdW  Elec       q    Type
REMARK                         _______ _______ _______ _____ _____    ______ ____
ROOT
ATOM      1  C   UNL     1       1.834  -6.340   2.711  0.00  0.00    +0.100 C 
ATOM      2  C   UNL     1       0.985  -5.923   3.932  0.00  0.00    +0.121 C 
ATOM      3  N   UNL     1       0.184  -7.126   4.260  0.00  0.00    -0.296 N 
ATOM      4  C   UNL     1       1.118  -8.258   4.053  0.00  0.00    +0.115 C 
ATOM      5  C   UNL     1       1.922  -7.873   2.795  0.00  0.00    -0.004 C 
ATOM      6  C   UNL     1       3.376  -8.311   2.943  0.00  0.00    -0.010 C 
ATOM      7  C   UNL     1       3.443  -9.841   2.966  0.00  0.00    -0.082 C 
ATOM      8  N   UNL     1       2.873 -10.377   1.724  0.00  0.00    +0.379 N 
ATOM      9  C   UNL     1       1.450 -10.029   1.636  0.00  0.00    -0.082 C 
ATOM     10  C   UNL     1       1.298  -8.507   1.556  0.00  0.00    -0.010 C 
ATOM     11  C   UNL     1      -1.103  -7.178   4.656  0.00  0.00    +0.252 C 
ATOM     12  O   UNL     1      -1.624  -8.252   4.889  0.00  0.00    -0.270 OA
ATOM     13  H   UNL     1       3.364  -9.985   0.934  0.00  0.00    -0.086 HD
ATOM     14  H   UNL     1       2.974 -11.381   1.715  0.00  0.00    -0.086 HD
ENDROOT
BRANCH  11  15
ATOM     15  C   UNL     1      -1.880  -5.933   4.807  0.00  0.00    +0.107 A 
ATOM     16  C   UNL     1      -2.607  -5.422   3.726  0.00  0.00    +0.138 A 
ATOM     17  C   UNL     1      -3.333  -4.255   3.877  0.00  0.00    +0.039 A 
ATOM     18  C   UNL     1      -3.341  -3.593   5.090  0.00  0.00    +0.006 A 
ATOM     19  C   UNL     1      -2.624  -4.090   6.164  0.00  0.00    +0.039 A 
ATOM     20  C   UNL     1      -1.898  -5.260   6.033  0.00  0.00    +0.138 A 
ATOM     21  F   UNL     1      -1.204  -5.747   7.084  0.00  0.00    -0.205 F 
ATOM     22  F   UNL     1      -2.600  -6.068   2.539  0.00  0.00    -0.205 F 
ENDBRANCH  11  15
BRANCH   1  24
ATOM     23  N   UNL     1       1.888  -5.653   0.335  0.00  0.00    -0.312 N 
ATOM     24  C   UNL     1       1.154  -5.923   1.432  0.00  0.00    +0.218 C 
ATOM     25  O   UNL     1      -0.055  -5.831   1.391  0.00  0.00    -0.275 OA
ATOM     26  H   UNL     1       2.855  -5.727   0.368  0.00  0.00    +0.149 HD
BRANCH  23  27
ATOM     27  C   UNL     1       1.227  -5.248  -0.908  0.00  0.00    +0.145 C 
BRANCH  27  28
ATOM     28  C   UNL     1       2.280  -5.004  -1.990  0.00  0.00    +0.248 C 
BRANCH  28  29
ATOM     29  O   UNL     1       2.942  -6.233  -2.297  0.00  0.00    -0.488 OA
BRANCH  29  34
ATOM     30  C   UNL     1       5.212  -4.950  -4.835  0.00  0.00    +0.004 A 
ATOM     31  C   UNL     1       5.893  -6.103  -5.180  0.00  0.00    +0.003 A 
ATOM     32  C   UNL     1       5.587  -7.301  -4.561  0.00  0.00    +0.042 A 
ATOM     33  C   UNL     1       4.598  -7.348  -3.595  0.00  0.00    +0.165 A 
ATOM     34  C   UNL     1       3.914  -6.190  -3.247  0.00  0.00    +0.156 A 
ATOM     35  C   UNL     1       4.224  -4.991  -3.870  0.00  0.00    +0.048 A 
ATOM     36  F   UNL     1       4.298  -8.519  -2.990  0.00  0.00    -0.202 F 
ENDBRANCH  29  34
ENDBRANCH  28  29
ENDBRANCH  27  28
ENDBRANCH  23  27
ENDBRANCH   1  24
TORSDOF 6
