REMARK  Name = ZINC66437679
REMARK  8 active torsions:
REMARK  status: ('A' for Active; 'I' for Inactive)
REMARK    1  A    between atoms: C_1  and  O_2
REMARK    2  A    between atoms: O_2  and  C_3
REMARK    3  A    between atoms: C_6  and  C_9
REMARK    4  A    between atoms: C_9  and  N_11
REMARK    5  A    between atoms: N_13  and  C_14
REMARK    6  A    between atoms: N_21  and  C_22
REMARK    7  A    between atoms: C_22  and  C_23
REMARK    8  A    between atoms: C_23  and  C_24
REMARK                            x       y       z     vdW  Elec       q    Type
REMARK                         _______ _______ _______ _____ _____    ______ ____
ROOT
ATOM      1  N   UNL     1      -4.906  -5.022  -0.377  0.00  0.00    -0.143 NA
ATOM      2  C   UNL     1      -6.110  -4.510  -0.581  0.00  0.00    +0.194 C 
ATOM      3  N   UNL     1      -6.531  -3.441   0.157  0.00  0.00    -0.328 N 
ATOM      4  N   UNL     1      -6.929  -5.049  -1.529  0.00  0.00    -0.357 N 
ATOM      5  H   UNL     1      -5.999  -2.630   0.183  0.00  0.00    +0.169 HD
ATOM      6  H   UNL     1      -6.645  -5.832  -2.027  0.00  0.00    +0.162 HD
ENDROOT
BRANCH   3   7
ATOM      7  C   UNL     1      -7.730  -3.516   0.875  0.00  0.00    +0.042 A 
ATOM      8  C   UNL     1      -8.105  -4.708   1.480  0.00  0.00    +0.028 A 
ATOM      9  C   UNL     1      -9.288  -4.779   2.189  0.00  0.00    +0.040 A 
ATOM     10  C   UNL     1     -10.101  -3.663   2.296  0.00  0.00    +0.124 A 
ATOM     11  C   UNL     1      -9.729  -2.473   1.694  0.00  0.00    +0.040 A 
ATOM     12  C   UNL     1      -8.543  -2.396   0.989  0.00  0.00    +0.028 A 
ATOM     13  F   UNL     1     -11.258  -3.735   2.989  0.00  0.00    -0.205 F 
ENDBRANCH   3   7
BRANCH   1  14
ATOM     14  C   UNL     1      -4.156  -4.585   0.644  0.00  0.00    +0.270 C 
ATOM     15  O   UNL     1      -4.543  -3.655   1.329  0.00  0.00    -0.268 OA
BRANCH  14  19
ATOM     16  C   UNL     1      -0.430  -6.444   1.492  0.00  0.00    +0.120 A 
ATOM     17  C   UNL     1      -0.869  -5.382   2.274  0.00  0.00    +0.046 A 
ATOM     18  C   UNL     1      -2.076  -4.777   2.002  0.00  0.00    +0.017 A 
ATOM     19  C   UNL     1      -2.859  -5.231   0.939  0.00  0.00    +0.039 A 
ATOM     20  C   UNL     1      -2.415  -6.298   0.155  0.00  0.00    +0.017 A 
ATOM     21  C   UNL     1      -1.204  -6.895   0.429  0.00  0.00    +0.046 A 
BRANCH  16  23
ATOM     22  C   UNL     1       1.505  -6.523   2.868  0.00  0.00    +0.277 C 
ATOM     23  O   UNL     1       0.760  -7.037   1.762  0.00  0.00    -0.495 OA
ENDBRANCH  16  23
ENDBRANCH  14  19
ENDBRANCH   1  14
BRANCH   4  24
ATOM     24  C   UNL     1      -8.238  -4.447  -1.795  0.00  0.00    +0.120 C 
BRANCH  24  25
ATOM     25  C   UNL     1      -8.948  -5.235  -2.898  0.00  0.00    +0.058 C 
BRANCH  25  26
ATOM     26  C   UNL     1     -10.240  -4.547  -3.255  0.00  0.00    -0.021 A 
ATOM     27  C   UNL     1     -11.462  -4.854  -2.793  0.00  0.00    +0.087 A 
ATOM     28  N   UNL     1     -12.392  -4.012  -3.340  0.00  0.00    -0.360 N 
ATOM     29  H   UNL     1     -13.344  -4.039  -3.157  0.00  0.00    +0.165 HD
ATOM     30  C   UNL     1     -11.775  -3.120  -4.189  0.00  0.00    +0.047 A 
ATOM     31  C   UNL     1     -10.399  -3.412  -4.168  0.00  0.00    +0.003 A 
ATOM     32  C   UNL     1      -9.515  -2.656  -4.939  0.00  0.00    +0.010 A 
ATOM     33  C   UNL     1      -9.991  -1.632  -5.709  0.00  0.00    +0.001 A 
ATOM     34  C   UNL     1     -11.347  -1.337  -5.730  0.00  0.00    +0.002 A 
ATOM     35  C   UNL     1     -12.238  -2.077  -4.983  0.00  0.00    +0.026 A 
ENDBRANCH  25  26
ENDBRANCH  24  25
ENDBRANCH   4  24
TORSDOF 7
