REMARK  Name = ZINC39676134
REMARK  6 active torsions:
REMARK  status: ('A' for Active; 'I' for Inactive)
REMARK    1  A    between atoms: C_4  and  C_7
REMARK    2  A    between atoms: C_7  and  N_8
REMARK    3  A    between atoms: C_10  and  C_13
REMARK    4  A    between atoms: C_13  and  N_14
REMARK    5  A    between atoms: C_15  and  C_17
REMARK    6  A    between atoms: C_28  and  C_30
REMARK                            x       y       z     vdW  Elec       q    Type
REMARK                         _______ _______ _______ _____ _____    ______ ____
ROOT
ATOM      1  C   UNL     1       8.824  -4.261   4.778  0.00  0.00    +0.100 C 
ATOM      2  C   UNL     1       9.230  -4.865   3.415  0.00  0.00    +0.121 C 
ATOM      3  N   UNL     1      10.346  -5.787   3.732  0.00  0.00    -0.295 N 
ATOM      4  C   UNL     1       9.946  -6.425   5.010  0.00  0.00    +0.115 C 
ATOM      5  C   UNL     1       9.295  -5.287   5.822  0.00  0.00    -0.004 C 
ATOM      6  C   UNL     1       8.105  -5.820   6.613  0.00  0.00    -0.010 C 
ATOM      7  C   UNL     1       8.604  -6.795   7.684  0.00  0.00    -0.082 C 
ATOM      8  N   UNL     1       9.543  -6.105   8.577  0.00  0.00    +0.379 N 
ATOM      9  C   UNL     1      10.728  -5.677   7.824  0.00  0.00    -0.082 C 
ATOM     10  C   UNL     1      10.318  -4.655   6.760  0.00  0.00    -0.010 C 
ATOM     11  C   UNL     1      11.471  -5.998   3.020  0.00  0.00    +0.265 C 
ATOM     12  O   UNL     1      12.260  -6.853   3.370  0.00  0.00    -0.268 OA
ATOM     13  H   UNL     1       9.091  -5.296   8.978  0.00  0.00    -0.086 HD
ATOM     14  H   UNL     1       9.823  -6.731   9.316  0.00  0.00    -0.086 HD
ENDROOT
BRANCH  11  15
ATOM     15  C   UNL     1      11.746  -5.186   1.810  0.00  0.00    +0.126 A 
ATOM     16  C   UNL     1      12.861  -5.494   1.017  0.00  0.00    +0.033 A 
ATOM     17  C   UNL     1      13.125  -4.755  -0.099  0.00  0.00    +0.012 A 
ATOM     18  C   UNL     1      12.254  -3.696  -0.418  0.00  0.00    +0.000 A 
ATOM     19  C   UNL     1      12.465  -2.895  -1.552  0.00  0.00    +0.010 A 
ATOM     20  C   UNL     1      11.601  -1.879  -1.829  0.00  0.00    +0.001 A 
ATOM     21  C   UNL     1      10.509  -1.622  -1.002  0.00  0.00    +0.002 A 
ATOM     22  C   UNL     1      10.273  -2.377   0.104  0.00  0.00    +0.028 A 
ATOM     23  C   UNL     1      11.143  -3.437   0.426  0.00  0.00    +0.072 A 
ATOM     24  N   UNL     1      10.932  -4.195   1.501  0.00  0.00    -0.242 NA
ENDBRANCH  11  15
BRANCH   1  26
ATOM     25  N   UNL     1       6.793  -3.219   5.731  0.00  0.00    -0.311 N 
ATOM     26  C   UNL     1       7.329  -4.087   4.850  0.00  0.00    +0.218 C 
ATOM     27  O   UNL     1       6.608  -4.728   4.116  0.00  0.00    -0.275 OA
ATOM     28  H   UNL     1       7.370  -2.706   6.319  0.00  0.00    +0.149 HD
BRANCH  25  29
ATOM     29  C   UNL     1       5.340  -3.050   5.801  0.00  0.00    +0.142 C 
BRANCH  29  32
ATOM     30  N   UNL     1       4.572  -0.137   7.856  0.00  0.00    -0.267 N 
ATOM     31  C   UNL     1       4.881  -0.696   6.667  0.00  0.00    +0.113 A 
ATOM     32  C   UNL     1       5.003  -2.030   6.859  0.00  0.00    +0.007 A 
ATOM     33  C   UNL     1       4.760  -2.295   8.210  0.00  0.00    +0.139 A 
ATOM     34  N   UNL     1       4.508  -1.160   8.810  0.00  0.00    -0.179 NA
BRANCH  30  35
ATOM     35  C   UNL     1       4.350   1.290   8.106  0.00  0.00    +0.178 C 
BRANCH  35  39
ATOM     36  C   UNL     1       0.533   1.837   9.944  0.00  0.00    +0.000 A 
ATOM     37  C   UNL     1       1.655   1.637  10.727  0.00  0.00    +0.000 A 
ATOM     38  C   UNL     1       2.890   1.460  10.132  0.00  0.00    +0.005 A 
ATOM     39  C   UNL     1       3.003   1.482   8.754  0.00  0.00    -0.026 A 
ATOM     40  C   UNL     1       1.881   1.681   7.972  0.00  0.00    +0.005 A 
ATOM     41  C   UNL     1       0.647   1.860   8.567  0.00  0.00    +0.000 A 
ENDBRANCH  35  39
ENDBRANCH  30  35
ENDBRANCH  29  32
ENDBRANCH  25  29
ENDBRANCH   1  26
TORSDOF 6
