REMARK  Name = ZINC36531024
REMARK  9 active torsions:
REMARK  status: ('A' for Active; 'I' for Inactive)
REMARK    1  A    between atoms: C_1  and  N_2
REMARK    2  A    between atoms: N_2  and  C_3
REMARK    3  A    between atoms: C_3  and  C_5
REMARK    4  A    between atoms: C_3  and  C_12
REMARK    5  A    between atoms: C_10  and  O_11
REMARK    6  A    between atoms: N_14  and  C_15
REMARK    7  A    between atoms: C_21  and  C_23
REMARK    8  A    between atoms: C_24  and  O_30
REMARK    9  A    between atoms: C_28  and  O_29
REMARK                            x       y       z     vdW  Elec       q    Type
REMARK                         _______ _______ _______ _____ _____    ______ ____
ROOT
ATOM      1  C   UNL     1       0.135  -0.742   1.261  0.00  0.00    +0.196 C 
ENDROOT
BRANCH   1   2
ATOM      2  C   UNL     1       1.368  -0.274   1.989  0.00  0.00    +0.023 A 
ATOM      3  C   UNL     1       1.247   0.463   3.151  0.00  0.00    +0.009 A 
ATOM      4  C   UNL     1       2.378   0.892   3.820  0.00  0.00    +0.001 A 
ATOM      5  C   UNL     1       3.634   0.585   3.328  0.00  0.00    +0.004 A 
ATOM      6  C   UNL     1       3.760  -0.152   2.167  0.00  0.00    +0.046 A 
ATOM      7  C   UNL     1       2.626  -0.589   1.497  0.00  0.00    +0.122 A 
BRANCH   7   8
ATOM      8  O   UNL     1       2.748  -1.319   0.357  0.00  0.00    -0.506 OA
ATOM      9  H   UNL     1       2.783  -0.787  -0.449  0.00  0.00    +0.292 HD
ENDBRANCH   7   8
ENDBRANCH   1   2
BRANCH   1  11
ATOM     10  C   UNL     1      -0.185   1.562   0.246  0.00  0.00    +0.133 C 
ATOM     11  N   UNL     1      -0.092   0.108   0.089  0.00  0.00    -0.285 N 
ATOM     12  C   UNL     1      -0.215  -0.447  -1.133  0.00  0.00    +0.254 C 
ATOM     13  O   UNL     1      -0.138  -1.654  -1.263  0.00  0.00    -0.270 OA
BRANCH  12  14
ATOM     14  C   UNL     1      -0.443   0.407  -2.310  0.00  0.00    +0.119 A 
ATOM     15  C   UNL     1       0.645   0.907  -3.041  0.00  0.00    +0.133 A 
ATOM     16  C   UNL     1       0.419   1.710  -4.148  0.00  0.00    +0.046 A 
ATOM     17  C   UNL     1      -0.873   2.019  -4.532  0.00  0.00    +0.007 A 
ATOM     18  C   UNL     1      -1.952   1.532  -3.817  0.00  0.00    +0.046 A 
ATOM     19  C   UNL     1      -1.749   0.723  -2.711  0.00  0.00    +0.133 A 
BRANCH  19  20
ATOM     20  O   UNL     1      -2.810   0.242  -2.016  0.00  0.00    -0.506 OA
ATOM     21  H   UNL     1      -3.103   0.818  -1.298  0.00  0.00    +0.292 HD
ENDBRANCH  19  20
BRANCH  15  22
ATOM     22  O   UNL     1       1.913   0.606  -2.666  0.00  0.00    -0.506 OA
ATOM     23  H   UNL     1       2.263  -0.199  -3.074  0.00  0.00    +0.292 HD
ENDBRANCH  15  22
ENDBRANCH  12  14
ENDBRANCH   1  11
BRANCH   1  24
ATOM     24  C   UNL     1      -1.055  -0.656   2.182  0.00  0.00    +0.238 C 
ATOM     25  O   UNL     1      -2.000   0.046   1.888  0.00  0.00    -0.273 OA
ATOM     26  N   UNL     1      -1.070  -1.360   3.331  0.00  0.00    -0.311 N 
ATOM     27  H   UNL     1      -0.315  -1.921   3.566  0.00  0.00    +0.149 HD
BRANCH  26  28
ATOM     28  C   UNL     1      -2.227  -1.276   4.226  0.00  0.00    +0.073 C 
ATOM     29  C   UNL     1      -2.076  -0.061   5.143  0.00  0.00    +0.022 C 
ATOM     30  C   UNL     1      -3.284   0.026   6.078  0.00  0.00    +0.002 C 
ATOM     31  C   UNL     1      -3.365  -1.246   6.925  0.00  0.00    +0.000 C 
ATOM     32  C   UNL     1      -3.517  -2.461   6.008  0.00  0.00    +0.002 C 
ATOM     33  C   UNL     1      -2.308  -2.548   5.073  0.00  0.00    +0.022 C 
ENDBRANCH  26  28
ENDBRANCH   1  24
TORSDOF 8
