REMARK  Name = ZINC08640245
REMARK  5 active torsions:
REMARK  status: ('A' for Active; 'I' for Inactive)
REMARK    1  A    between atoms: C_3  and  C_6
REMARK    2  A    between atoms: N_8  and  N_9
REMARK    3  A    between atoms: C_10  and  C_12
REMARK    4  A    between atoms: C_12  and  S_13
REMARK    5  A    between atoms: S_13  and  C_14
REMARK                            x       y       z     vdW  Elec       q    Type
REMARK                         _______ _______ _______ _____ _____    ______ ____
ROOT
ATOM      1  S   UNL     1       4.766   4.481  -0.020  0.00  0.00    -0.078 S 
ENDROOT
BRANCH   1   2
ATOM      2  C   UNL     1       3.766   3.030  -0.018  0.00  0.00    +0.170 A 
ATOM      3  N   UNL     1       4.378   1.814  -0.031  0.00  0.00    -0.301 N 
ATOM      4  H   UNL     1       5.348   1.784  -0.041  0.00  0.00    +0.171 HD
ATOM      5  C   UNL     1       3.696   0.645  -0.030  0.00  0.00    +0.261 A 
ATOM      6  O   UNL     1       4.262  -0.435  -0.041  0.00  0.00    -0.267 OA
ATOM      7  C   UNL     1       2.267   0.755  -0.015  0.00  0.00    +0.075 A 
ATOM      8  C   UNL     1       1.312  -0.341  -0.012  0.00  0.00    -0.023 A 
ATOM      9  C   UNL     1       0.002  -0.004   0.002  0.00  0.00    -0.004 A 
ATOM     10  S   UNL     1      -0.022   1.771   0.012  0.00  0.00    -0.073 S 
ATOM     11  C   UNL     1       1.719   2.058  -0.003  0.00  0.00    +0.117 A 
ATOM     12  N   UNL     1       2.447   3.168  -0.004  0.00  0.00    -0.216 NA
ATOM     13  C   UNL     1      -1.173  -0.932   0.007  0.00  0.00    +0.043 C 
ATOM     14  C   UNL     1      -0.687  -2.336  -0.379  0.00  0.00    +0.005 C 
ATOM     15  C   UNL     1       0.560  -2.666   0.446  0.00  0.00    +0.005 C 
ATOM     16  C   UNL     1       1.735  -1.808  -0.023  0.00  0.00    +0.037 C 
ENDBRANCH   1   2
BRANCH   1  17
ATOM     17  C   UNL     1       3.478   5.752   0.000  0.00  0.00    +0.174 C 
BRANCH  17  19
ATOM     18  N   UNL     1       3.348   8.222   0.016  0.00  0.00    -0.233 N 
ATOM     19  C   UNL     1       4.118   7.116   0.002  0.00  0.00    +0.239 C 
ATOM     20  O   UNL     1       5.327   7.219  -0.009  0.00  0.00    -0.273 OA
ATOM     21  H   UNL     1       2.381   8.139   0.025  0.00  0.00    +0.173 HD
BRANCH  18  24
ATOM     22  C   UNL     1       3.172  10.596   0.031  0.00  0.00    +0.295 C 
ATOM     23  O   UNL     1       1.960  10.492   0.042  0.00  0.00    -0.265 OA
ATOM     24  N   UNL     1       3.943   9.490   0.017  0.00  0.00    -0.228 N 
ATOM     25  H   UNL     1       4.909   9.572   0.008  0.00  0.00    +0.173 HD
BRANCH  22  28
ATOM     26  C   UNL     1       4.118  14.122   0.043  0.00  0.00    +0.042 A 
ATOM     27  C   UNL     1       3.136  13.119   0.046  0.00  0.00    +0.054 A 
ATOM     28  C   UNL     1       3.795  11.924   0.033  0.00  0.00    +0.190 A 
ATOM     29  O   UNL     1       5.120  12.178   0.027  0.00  0.00    -0.458 OA
ATOM     30  C   UNL     1       5.319  13.502   0.028  0.00  0.00    +0.196 A 
ENDBRANCH  22  28
ENDBRANCH  18  24
ENDBRANCH  17  19
ENDBRANCH   1  17
TORSDOF 5
