REMARK  Name = ZINC63743446
REMARK  8 active torsions:
REMARK  status: ('A' for Active; 'I' for Inactive)
REMARK    1  A    between atoms: C_1  and  C_2
REMARK    2  A    between atoms: C_5  and  C_8
REMARK    3  A    between atoms: N_10  and  C_11
REMARK    4  A    between atoms: C_16  and  N_21
REMARK    5  A    between atoms: N_21  and  S_22
REMARK    6  A    between atoms: S_22  and  C_25
REMARK    7  A    between atoms: C_26  and  C_32
REMARK    8  A    between atoms: C_29  and  C_31
REMARK                            x       y       z     vdW  Elec       q    Type
REMARK                         _______ _______ _______ _____ _____    ______ ____
ROOT
ATOM      1  C   UNL     1       0.093  -6.396   1.134  0.00  0.00    +0.224 C 
ATOM      2  N   UNL     1      -0.169  -6.936   2.475  0.00  0.00    -0.316 N 
ATOM      3  C   UNL     1       0.835  -7.699   3.071  0.00  0.00    +0.045 A 
ATOM      4  C   UNL     1       0.763  -8.293   4.343  0.00  0.00    +0.050 A 
ATOM      5  C   UNL     1       1.815  -9.032   4.846  0.00  0.00    +0.076 A 
ATOM      6  C   UNL     1       2.978  -9.212   4.109  0.00  0.00    +0.028 A 
ATOM      7  C   UNL     1       3.071  -8.636   2.853  0.00  0.00    +0.018 A 
ATOM      8  C   UNL     1       2.020  -7.900   2.356  0.00  0.00    +0.032 A 
ATOM      9  S   UNL     1       1.788  -7.033   0.818  0.00  0.00    -0.082 S 
ATOM     10  H   UNL     1      -1.009  -6.768   2.930  0.00  0.00    +0.149 HD
ENDROOT
BRANCH   1  13
ATOM     11  C   UNL     1       0.059  -4.251  -0.021  0.00  0.00    +0.246 C 
ATOM     12  O   UNL     1       0.062  -4.853  -1.077  0.00  0.00    -0.270 OA
ATOM     13  N   UNL     1       0.074  -4.931   1.142  0.00  0.00    -0.284 N 
ATOM     14  H   UNL     1       0.072  -4.451   1.985  0.00  0.00    +0.152 HD
BRANCH  11  19
ATOM     15  C   UNL     1      -0.018   1.503   0.010  0.00  0.00    +0.044 C 
ATOM     16  C   UNL     1       0.002  -0.004   0.002  0.00  0.00    -0.050 A 
ATOM     17  C   UNL     1       0.006  -0.686  -1.202  0.00  0.00    +0.004 A 
ATOM     18  C   UNL     1       0.024  -2.066  -1.216  0.00  0.00    +0.013 A 
ATOM     19  C   UNL     1       0.040  -2.773  -0.013  0.00  0.00    +0.037 A 
ATOM     20  C   UNL     1       0.036  -2.079   1.198  0.00  0.00    +0.013 A 
ATOM     21  C   UNL     1       0.023  -0.699   1.198  0.00  0.00    +0.004 A 
ENDBRANCH  11  19
ENDBRANCH   1  13
BRANCH   5  22
ATOM     22  N   UNL     1       1.708  -9.608   6.117  0.00  0.00    -0.098 NA
BRANCH  22  23
ATOM     23  S   UNL     1       2.962 -10.498   6.732  0.00  0.00    +0.092 S 
ATOM     24  O   UNL     1       3.078 -11.655   5.916  0.00  0.00    -0.149 OA
ATOM     25  O   UNL     1       4.041  -9.594   6.931  0.00  0.00    -0.149 OA
BRANCH  23  26
ATOM     26  C   UNL     1       2.472 -11.055   8.330  0.00  0.00    +0.136 C 
ATOM     27  C   UNL     1       2.870 -10.598   9.519  0.00  0.00    +0.085 C 
ATOM     28  N   UNL     1       2.272 -11.280  10.521  0.00  0.00    -0.157 NA
ATOM     29  N   UNL     1       1.498 -12.165  10.147  0.00  0.00    -0.178 NA
ATOM     30  C   UNL     1       1.492 -12.164   8.674  0.00  0.00    +0.176 C 
ATOM     31  C   UNL     1       0.097 -11.839   8.136  0.00  0.00    +0.041 C 
ATOM     32  C   UNL     1       3.854  -9.474   9.717  0.00  0.00    +0.069 C 
ENDBRANCH  23  26
ENDBRANCH  22  23
ENDBRANCH   5  22
TORSDOF 5
