REMARK  Name = ZINC37360818
REMARK  7 active torsions:
REMARK  status: ('A' for Active; 'I' for Inactive)
REMARK    1  A    between atoms: C_1  and  O_2
REMARK    2  A    between atoms: O_2  and  C_3
REMARK    3  A    between atoms: C_3  and  C_4
REMARK    4  A    between atoms: C_4  and  N_5
REMARK    5  A    between atoms: C_13  and  C_28
REMARK    6  A    between atoms: C_15  and  N_27
REMARK    7  A    between atoms: N_16  and  C_20
REMARK                            x       y       z     vdW  Elec       q    Type
REMARK                         _______ _______ _______ _____ _____    ______ ____
ROOT
ATOM      1  N   UNL     1      -0.203  -2.805  -1.785  0.00  0.00    +0.383 N 
ATOM      2  C   UNL     1      -0.967  -2.442  -2.985  0.00  0.00    -0.059 C 
ATOM      3  C   UNL     1      -2.459  -2.680  -2.731  0.00  0.00    +0.089 C 
ATOM      4  N   UNL     1      -2.641  -4.073  -2.293  0.00  0.00    -0.303 N 
ATOM      5  C   UNL     1      -1.795  -4.571  -1.197  0.00  0.00    +0.089 C 
ATOM      6  C   UNL     1      -0.334  -4.244  -1.524  0.00  0.00    -0.059 C 
ATOM      7  C   UNL     1      -3.581  -4.890  -2.894  0.00  0.00    +0.220 A 
ATOM      8  N   UNL     1      -3.703  -6.138  -2.452  0.00  0.00    -0.213 NA
ATOM      9  C   UNL     1      -4.580  -6.989  -2.972  0.00  0.00    +0.091 A 
ATOM     10  C   UNL     1      -5.403  -6.539  -4.029  0.00  0.00    +0.086 A 
ATOM     11  C   UNL     1      -6.405  -7.093  -4.814  0.00  0.00    +0.131 A 
ATOM     12  N   UNL     1      -6.818  -6.143  -5.675  0.00  0.00    -0.216 N 
ATOM     13  N   UNL     1      -6.095  -4.963  -5.465  0.00  0.00    -0.144 NA
ATOM     14  C   UNL     1      -5.234  -5.148  -4.488  0.00  0.00    +0.189 A 
ATOM     15  N   UNL     1      -4.310  -4.388  -3.870  0.00  0.00    -0.193 NA
ATOM     16  H   UNL     1      -0.557  -2.287  -0.994  0.00  0.00    -0.082 HD
ENDROOT
BRANCH   9  17
ATOM     17  C   UNL     1      -4.692  -8.372  -2.458  0.00  0.00    +0.039 A 
ATOM     18  C   UNL     1      -4.516  -9.456  -3.320  0.00  0.00    +0.013 A 
ATOM     19  C   UNL     1      -4.621 -10.743  -2.836  0.00  0.00    +0.004 A 
ATOM     20  C   UNL     1      -4.900 -10.964  -1.498  0.00  0.00    +0.041 A 
ATOM     21  C   UNL     1      -5.076  -9.896  -0.636  0.00  0.00    +0.159 A 
ATOM     22  C   UNL     1      -4.968  -8.598  -1.108  0.00  0.00    +0.168 A 
ATOM     23  F   UNL     1      -5.134  -7.555  -0.266  0.00  0.00    -0.202 F 
ATOM     24  F   UNL     1      -5.348 -10.120   0.668  0.00  0.00    -0.202 F 
ENDBRANCH   9  17
BRANCH  12  25
ATOM     25  C   UNL     1      -7.821  -6.310  -6.638  0.00  0.00    +0.068 A 
ATOM     26  C   UNL     1      -7.976  -7.535  -7.275  0.00  0.00    +0.029 A 
ATOM     27  C   UNL     1      -8.966  -7.697  -8.224  0.00  0.00    +0.022 A 
ATOM     28  C   UNL     1      -9.803  -6.642  -8.541  0.00  0.00    +0.041 A 
ATOM     29  C   UNL     1      -9.651  -5.421  -7.908  0.00  0.00    +0.022 A 
ATOM     30  C   UNL     1      -8.666  -5.254  -6.954  0.00  0.00    +0.029 A 
ATOM     31 CL   UNL     1     -11.047  -6.850  -9.734  0.00  0.00    -0.084 Cl
ENDBRANCH  12  25
BRANCH  11  32
ATOM     32  N   UNL     1      -6.891  -8.385  -4.729  0.00  0.00    -0.342 N 
ATOM     33  H   UNL     1      -6.519  -9.000  -4.077  0.00  0.00    +0.144 HD
ATOM     34  H   UNL     1      -7.602  -8.676  -5.320  0.00  0.00    +0.144 HD
ENDBRANCH  11  32
BRANCH   1  35
ATOM     35  C   UNL     1       1.214  -2.473  -1.989  0.00  0.00    -0.050 C 
BRANCH  35  36
ATOM     36  C   UNL     1       1.367  -0.958  -2.137  0.00  0.00    +0.141 C 
BRANCH  36  38
ATOM     37  C   UNL     1       1.111   1.104  -0.942  0.00  0.00    +0.193 C 
ATOM     38  O   UNL     1       1.003  -0.321  -0.911  0.00  0.00    -0.385 OA
ENDBRANCH  36  38
ENDBRANCH  35  36
ENDBRANCH   1  35
TORSDOF 6
