REMARK  Name = ZINC53554699
REMARK  8 active torsions:
REMARK  status: ('A' for Active; 'I' for Inactive)
REMARK    1  A    between atoms: C_1  and  N_2
REMARK    2  A    between atoms: C_3  and  C_5
REMARK    3  A    between atoms: C_8  and  S_14
REMARK    4  A    between atoms: C_9  and  N_11
REMARK    5  A    between atoms: S_14  and  C_15
REMARK    6  A    between atoms: C_18  and  C_23
REMARK    7  A    between atoms: N_19  and  C_20
REMARK    8  A    between atoms: C_20  and  C_21
REMARK                            x       y       z     vdW  Elec       q    Type
REMARK                         _______ _______ _______ _____ _____    ______ ____
ROOT
ATOM      1  S   UNL     1      -0.829  -6.767  -0.264  0.00  0.00    -0.048 S 
ENDROOT
BRANCH   1   5
ATOM      2  C   UNL     1      -1.134  -2.259  -0.558  0.00  0.00    +0.039 A 
ATOM      3  C   UNL     1      -1.342  -2.900   0.666  0.00  0.00    +0.014 A 
ATOM      4  C   UNL     1      -1.249  -4.260   0.751  0.00  0.00    +0.018 A 
ATOM      5  C   UNL     1      -0.948  -5.013  -0.381  0.00  0.00    +0.046 A 
ATOM      6  C   UNL     1      -0.739  -4.383  -1.605  0.00  0.00    +0.141 A 
ATOM      7  C   UNL     1      -0.837  -3.013  -1.698  0.00  0.00    +0.047 A 
BRANCH   2  10
ATOM      8  C   UNL     1      -1.622   1.394   0.358  0.00  0.00    +0.128 C 
ATOM      9  N   UNL     1      -1.522  -0.064   0.449  0.00  0.00    -0.314 N 
ATOM     10  C   UNL     1      -1.235  -0.790  -0.650  0.00  0.00    +0.244 C 
ATOM     11  O   UNL     1      -1.059  -0.234  -1.717  0.00  0.00    -0.270 OA
ATOM     12  H   UNL     1      -1.662  -0.508   1.300  0.00  0.00    +0.149 HD
ENDBRANCH   2  10
BRANCH   6  13
ATOM     13  N   UNL     1      -0.418  -5.186  -2.809  0.00  0.00    +0.058 N 
ATOM     14  O   UNL     1      -0.237  -4.638  -3.871  0.00  0.00    -0.126 OA
ATOM     15  O   UNL     1      -0.337  -6.390  -2.728  0.00  0.00    -0.126 OA
ENDBRANCH   6  13
ENDBRANCH   1   5
BRANCH   1  16
ATOM     16  C   UNL     1       0.905  -7.079  -0.269  0.00  0.00    +0.197 A 
ATOM     17  N   UNL     1       1.859  -6.175  -0.246  0.00  0.00    -0.122 NA
ATOM     18  N   UNL     1       3.010  -6.748  -0.258  0.00  0.00    -0.128 NA
ATOM     19  C   UNL     1       2.860  -8.052  -0.289  0.00  0.00    +0.165 A 
ATOM     20  N   UNL     1       1.508  -8.304  -0.292  0.00  0.00    -0.298 N 
BRANCH  19  21
ATOM     21  C   UNL     1       3.941  -9.060  -0.312  0.00  0.00    +0.019 A 
ATOM     22  C   UNL     1       3.679 -10.360  -0.750  0.00  0.00    +0.011 A 
ATOM     23  C   UNL     1       4.693 -11.296  -0.768  0.00  0.00    +0.001 A 
ATOM     24  C   UNL     1       5.966 -10.949  -0.354  0.00  0.00    +0.000 A 
ATOM     25  C   UNL     1       6.233  -9.662   0.081  0.00  0.00    +0.001 A 
ATOM     26  C   UNL     1       5.230  -8.716   0.099  0.00  0.00    +0.011 A 
ENDBRANCH  19  21
BRANCH  20  27
ATOM     27  C   UNL     1       0.852  -9.613  -0.318  0.00  0.00    +0.152 C 
BRANCH  27  28
ATOM     28  C   UNL     1       0.500  -9.972  -1.738  0.00  0.00    -0.013 C 
ATOM     29  C   UNL     1       0.889 -11.117  -2.240  0.00  0.00    +0.005 C 
ENDBRANCH  27  28
ENDBRANCH  20  27
ENDBRANCH   1  16
TORSDOF 7
