REMARK  Name = ZINC00782160
REMARK  15 active torsions:
REMARK  status: ('A' for Active; 'I' for Inactive)
REMARK    1  A    between atoms: C_1  and  C_2
REMARK    2  A    between atoms: C_2  and  C_3
REMARK    3  A    between atoms: C_10  and  C_15
REMARK    4  A    between atoms: C_15  and  C_17
REMARK    5  A    between atoms: C_15  and  N_26
REMARK    6  A    between atoms: N_21  and  C_22
REMARK    7  A    between atoms: C_22  and  C_23
REMARK    8  A    between atoms: C_22  and  C_24
REMARK    9  A    between atoms: C_22  and  C_25
REMARK   10  A    between atoms: N_26  and  C_27
REMARK   11  A    between atoms: N_26  and  C_36
REMARK   12  A    between atoms: C_27  and  C_28
REMARK   13  A    between atoms: C_32  and  O_34
REMARK   14  A    between atoms: O_34  and  C_35
REMARK   15  A    between atoms: C_36  and  C_37
REMARK                            x       y       z     vdW  Elec       q    Type
REMARK                         _______ _______ _______ _____ _____    ______ ____
ROOT
ATOM      1  C   UNL     1      -5.939  -1.506  -4.006  0.00  0.00    +0.163 C 
ENDROOT
BRANCH   1   9
ATOM      2  C   UNL     1      -5.339   1.923   1.110  0.00  0.00    -0.047 A 
ATOM      3  C   UNL     1      -4.351   1.148   1.702  0.00  0.00    +0.005 A 
ATOM      4  C   UNL     1      -3.872   0.019   1.073  0.00  0.00    +0.026 A 
ATOM      5  C   UNL     1      -4.381  -0.348  -0.168  0.00  0.00    +0.049 A 
ATOM      6  C   UNL     1      -5.382   0.440  -0.765  0.00  0.00    -0.001 A 
ATOM      7  C   UNL     1      -5.857   1.579  -0.106  0.00  0.00    +0.013 A 
ATOM      8  C   UNL     1      -5.912   0.045  -2.072  0.00  0.00    +0.021 A 
ATOM      9  C   UNL     1      -5.416  -1.071  -2.661  0.00  0.00    +0.042 A 
ATOM     10  C   UNL     1      -4.412  -1.827  -2.019  0.00  0.00    +0.254 A 
ATOM     11  O   UNL     1      -3.981  -2.827  -2.566  0.00  0.00    -0.268 OA
ATOM     12  N   UNL     1      -3.920  -1.472  -0.820  0.00  0.00    -0.322 N 
ATOM     13  H   UNL     1      -3.229  -2.015  -0.407  0.00  0.00    +0.169 HD
BRANCH   2  15
ATOM     14  C   UNL     1      -7.029   2.774   2.712  0.00  0.00    +0.009 C 
ATOM     15  C   UNL     1      -5.847   3.153   1.817  0.00  0.00    +0.032 C 
ENDBRANCH   2  15
ENDBRANCH   1   9
BRANCH   1  16
ATOM     16  C   UNL     1      -7.092  -0.621  -4.406  0.00  0.00    +0.174 A 
ATOM     17  N   UNL     1      -8.209  -0.442  -3.743  0.00  0.00    -0.111 NA
ATOM     18  N   UNL     1      -8.938   0.385  -4.409  0.00  0.00    -0.023 NA
ATOM     19  N   UNL     1      -8.316   0.739  -5.479  0.00  0.00    -0.043 NA
ATOM     20  N   UNL     1      -7.172   0.144  -5.511  0.00  0.00    -0.222 N 
BRANCH  20  21
ATOM     21  C   UNL     1      -6.152   0.274  -6.554  0.00  0.00    +0.059 C 
ATOM     22  C   UNL     1      -5.899  -1.093  -7.193  0.00  0.00    +0.036 C 
ATOM     23  C   UNL     1      -6.639   1.255  -7.624  0.00  0.00    +0.036 C 
ATOM     24  C   UNL     1      -4.854   0.797  -5.937  0.00  0.00    +0.036 C 
ENDBRANCH  20  21
ENDBRANCH   1  16
BRANCH   1  25
ATOM     25  N   UNL     1      -6.397  -2.899  -3.926  0.00  0.00    -0.282 NA
BRANCH  25  26
ATOM     26  C   UNL     1      -6.593  -3.466  -5.267  0.00  0.00    +0.120 C 
BRANCH  26  27
ATOM     27  C   UNL     1      -6.858  -4.946  -5.153  0.00  0.00    -0.030 A 
ATOM     28  C   UNL     1      -5.801  -5.831  -5.045  0.00  0.00    +0.005 A 
ATOM     29  C   UNL     1      -6.042  -7.188  -4.940  0.00  0.00    +0.004 A 
ATOM     30  C   UNL     1      -7.339  -7.663  -4.943  0.00  0.00    +0.045 A 
ATOM     31  C   UNL     1      -8.401  -6.777  -5.051  0.00  0.00    +0.120 A 
ATOM     32  C   UNL     1      -8.157  -5.415  -5.150  0.00  0.00    +0.050 A 
BRANCH  31  33
ATOM     33  O   UNL     1      -9.678  -7.242  -5.054  0.00  0.00    -0.495 OA
ATOM     34  C   UNL     1      -9.860  -8.642  -4.827  0.00  0.00    +0.277 C 
ENDBRANCH  31  33
ENDBRANCH  26  27
ENDBRANCH  25  26
BRANCH  25  35
ATOM     35  C   UNL     1      -7.623  -3.006  -3.125  0.00  0.00    +0.117 C 
BRANCH  35  36
ATOM     36  C   UNL     1      -7.272  -2.916  -1.639  0.00  0.00    +0.132 C 
ATOM     37  C   UNL     1      -8.529  -3.176  -0.771  0.00  0.00    +0.035 C 
ATOM     38  C   UNL     1      -7.879  -3.674   0.548  0.00  0.00    +0.031 C 
ATOM     39  C   UNL     1      -6.640  -4.439   0.035  0.00  0.00    +0.160 C 
ATOM     40  O   UNL     1      -6.346  -3.954  -1.282  0.00  0.00    -0.375 OA
ENDBRANCH  35  36
ENDBRANCH  25  35
ENDBRANCH   1  25
TORSDOF 10
