REMARK  Name = ZINC35354807
REMARK  5 active torsions:
REMARK  status: ('A' for Active; 'I' for Inactive)
REMARK    1  A    between atoms: C_3  and  S_9
REMARK    2  A    between atoms: C_6  and  N_7
REMARK    3  A    between atoms: N_7  and  N_8
REMARK    4  A    between atoms: S_9  and  N_12
REMARK    5  A    between atoms: N_12  and  C_13
REMARK                            x       y       z     vdW  Elec       q    Type
REMARK                         _______ _______ _______ _____ _____    ______ ____
ROOT
ATOM      1  S   UNL     1       3.890   2.319  -0.024  0.00  0.00    +0.059 S 
ATOM      2  O   UNL     1       4.872   1.461  -0.589  0.00  0.00    -0.153 OA
ATOM      3  O   UNL     1       3.595   3.599  -0.566  0.00  0.00    -0.153 OA
ENDROOT
BRANCH   1   6
ATOM      4  C   UNL     1      -0.017   1.385   0.010  0.00  0.00    +0.026 A 
ATOM      5  C   UNL     1       1.171   2.090   0.002  0.00  0.00    +0.030 A 
ATOM      6  C   UNL     1       2.377   1.415  -0.013  0.00  0.00    +0.105 A 
ATOM      7  C   UNL     1       2.400   0.032  -0.021  0.00  0.00    +0.030 A 
ATOM      8  C   UNL     1       1.216  -0.679  -0.014  0.00  0.00    +0.026 A 
ATOM      9  C   UNL     1       0.002  -0.004   0.002  0.00  0.00    +0.041 A 
BRANCH   9  10
ATOM     10  N   UNL     1      -1.197  -0.720   0.010  0.00  0.00    -0.283 N 
ATOM     11  H   UNL     1      -2.044  -0.248   0.021  0.00  0.00    +0.166 HD
BRANCH  10  12
ATOM     12  N   UNL     1      -1.177  -2.086   0.003  0.00  0.00    -0.257 NA
ATOM     13  H   UNL     1      -0.637  -2.444   0.777  0.00  0.00    +0.140 HD
ATOM     14  H   UNL     1      -2.113  -2.462   0.010  0.00  0.00    +0.140 HD
ENDBRANCH  10  12
ENDBRANCH   9  10
ENDBRANCH   1   6
BRANCH   1  15
ATOM     15  N   UNL     1       4.326   2.562   1.555  0.00  0.00    -0.187 NA
ATOM     16  H   UNL     1       4.354   3.461   1.917  0.00  0.00    +0.148 HD
BRANCH  15  17
ATOM     17  C   UNL     1       4.671   1.419   2.404  0.00  0.00    +0.077 C 
ATOM     18  C   UNL     1       6.164   1.232   2.419  0.00  0.00    +0.020 C 
ATOM     19  C   UNL     1       6.572  -0.250   2.521  0.00  0.00    +0.002 C 
ATOM     20  C   UNL     1       5.706  -1.041   3.520  0.00  0.00    +0.000 C 
ATOM     21  C   UNL     1       5.432  -0.267   4.782  0.00  0.00    +0.000 C 
ATOM     22  C   UNL     1       4.081   0.460   4.627  0.00  0.00    +0.002 C 
ATOM     23  C   UNL     1       4.196   1.683   3.847  0.00  0.00    +0.020 C 
ENDBRANCH  15  17
ENDBRANCH   1  15
TORSDOF 5
