REMARK  Name = ZINC20263440
REMARK  8 active torsions:
REMARK  status: ('A' for Active; 'I' for Inactive)
REMARK    1  A    between atoms: C_1  and  C_2
REMARK    2  A    between atoms: C_16  and  O_17
REMARK    3  A    between atoms: C_24  and  O_25
REMARK    4  A    between atoms: N_26  and  C_27
REMARK    5  A    between atoms: C_27  and  C_28
REMARK    6  A    between atoms: C_28  and  C_29
REMARK    7  A    between atoms: C_29  and  N_30
REMARK    8  A    between atoms: C_34  and  C_37
REMARK                            x       y       z     vdW  Elec       q    Type
REMARK                         _______ _______ _______ _____ _____    ______ ____
ROOT
ATOM      1  C   UNL     1      -2.538   9.553   0.079  0.00  0.00    +0.046 C 
ATOM      2  C   UNL     1      -1.218  10.281   0.100  0.00  0.00    -0.021 A 
ATOM      3  C   UNL     1      -1.191  11.664   0.135  0.00  0.00    +0.005 A 
ATOM      4  C   UNL     1       0.018  12.334   0.155  0.00  0.00    +0.004 A 
ATOM      5  C   UNL     1       1.206  11.627   0.138  0.00  0.00    +0.048 A 
ATOM      6  C   UNL     1       1.190  10.242   0.102  0.00  0.00    +0.154 A 
ATOM      7  C   UNL     1      -0.030   9.567   0.083  0.00  0.00    +0.110 A 
ATOM      8  N   UNL     1      -0.049   8.168   0.047  0.00  0.00    -0.240 NA
ATOM      9  C   UNL     1       1.154   7.480   0.032  0.00  0.00    +0.118 A 
ATOM     10  C   UNL     1       2.366   8.195   0.052  0.00  0.00    +0.156 A 
ATOM     11  O   UNL     1       2.357   9.550   0.087  0.00  0.00    -0.452 OA
ATOM     12  C   UNL     1       3.570   7.519   0.038  0.00  0.00    +0.074 A 
ATOM     13  C   UNL     1       3.600   6.125   0.001  0.00  0.00    +0.050 A 
ATOM     14  C   UNL     1       2.403   5.397  -0.020  0.00  0.00    +0.053 A 
ATOM     15  C   UNL     1       1.166   6.085  -0.005  0.00  0.00    +0.059 A 
ATOM     16  C   UNL     1      -0.095   5.331  -0.027  0.00  0.00    +0.135 A 
ATOM     17  C   UNL     1      -0.069   3.854  -0.065  0.00  0.00    +0.028 A 
ATOM     18  C   UNL     1      -1.258   3.130  -0.085  0.00  0.00    +0.012 A 
ATOM     19  C   UNL     1      -1.223   1.749  -0.126  0.00  0.00    +0.001 A 
ATOM     20  C   UNL     1      -0.013   1.078  -0.135  0.00  0.00    +0.001 A 
ATOM     21  C   UNL     1       1.177   1.780  -0.115  0.00  0.00    +0.012 A 
ATOM     22  C   UNL     1       1.161   3.173  -0.080  0.00  0.00    +0.028 A 
ATOM     23  C   UNL     1       2.428   3.932  -0.059  0.00  0.00    +0.134 A 
ATOM     24  N   UNL     1       4.815   5.459  -0.013  0.00  0.00    -0.384 N 
ATOM     25  H   UNL     1       4.842   4.362   0.064  0.00  0.00    +0.160 HD
ENDROOT
BRANCH  16  26
ATOM     26  O   UNL     1      -1.159   5.921  -0.014  0.00  0.00    -0.505 OA
ATOM     27  H   UNL     1      -2.102   5.355  -0.030  0.00  0.00    +0.292 HD
ENDBRANCH  16  26
BRANCH  23  28
ATOM     28  O   UNL     1       3.493   3.341  -0.072  0.00  0.00    -0.505 OA
ATOM     29  H   UNL     1       3.511   2.242  -0.101  0.00  0.00    +0.292 HD
ENDBRANCH  23  28
BRANCH  24  30
ATOM     30  C   UNL     1       6.064   6.216  -0.130  0.00  0.00    +0.111 C 
BRANCH  30  31
ATOM     31  C   UNL     1       7.249   5.249  -0.121  0.00  0.00    +0.002 C 
BRANCH  31  32
ATOM     32  C   UNL     1       8.553   6.039  -0.244  0.00  0.00    -0.077 C 
BRANCH  32  33
ATOM     33  N   UNL     1       9.691   5.111  -0.235  0.00  0.00    +0.380 N 
ATOM     34  C   UNL     1       9.808   4.433   1.062  0.00  0.00    -0.079 C 
ATOM     35  C   UNL     1      10.908   3.372   0.988  0.00  0.00    -0.018 C 
ATOM     36  C   UNL     1      12.235   4.043   0.621  0.00  0.00    -0.001 C 
ATOM     37  C   UNL     1      12.072   4.783  -0.710  0.00  0.00    -0.031 C 
ATOM     38  C   UNL     1      10.938   5.803  -0.587  0.00  0.00    -0.076 C 
ATOM     39  C   UNL     1      13.375   5.507  -1.055  0.00  0.00    +0.005 C 
ATOM     40  H   UNL     1       9.508   4.341  -1.000  0.00  0.00    -0.082 HD
ENDBRANCH  32  33
ENDBRANCH  31  32
ENDBRANCH  30  31
ENDBRANCH  24  30
TORSDOF 6
