REMARK  Name = ZINC48245100
REMARK  6 active torsions:
REMARK  status: ('A' for Active; 'I' for Inactive)
REMARK    1  A    between atoms: C_6  and  N_7
REMARK    2  A    between atoms: C_8  and  C_10
REMARK    3  A    between atoms: C_10  and  N_11
REMARK    4  A    between atoms: C_17  and  C_19
REMARK    5  A    between atoms: C_23  and  N_26
REMARK    6  A    between atoms: C_24  and  N_25
REMARK                            x       y       z     vdW  Elec       q    Type
REMARK                         _______ _______ _______ _____ _____    ______ ____
ROOT
ATOM      1  N   UNL     1      -1.686  -4.776   0.308  0.00  0.00    -0.291 NA
ATOM      2  C   UNL     1      -1.113  -4.894  -1.039  0.00  0.00    +0.104 C 
ATOM      3  C   UNL     1      -0.808  -6.367  -1.333  0.00  0.00    +0.123 C 
ATOM      4  N   UNL     1      -2.030  -7.152  -1.105  0.00  0.00    -0.295 N 
ATOM      5  C   UNL     1      -2.739  -6.982   0.172  0.00  0.00    +0.123 C 
ATOM      6  C   UNL     1      -2.968  -5.486   0.407  0.00  0.00    +0.104 C 
ATOM      7  C   UNL     1      -2.489  -8.005  -2.043  0.00  0.00    +0.249 C 
ATOM      8  O   UNL     1      -1.855  -8.184  -3.065  0.00  0.00    -0.270 OA
ENDROOT
BRANCH   7   9
ATOM      9  C   UNL     1      -3.760  -8.720  -1.829  0.00  0.00    +0.062 A 
ATOM     10  C   UNL     1      -3.968  -9.449  -0.655  0.00  0.00    +0.053 A 
ATOM     11  C   UNL     1      -5.160 -10.116  -0.462  0.00  0.00    +0.126 A 
ATOM     12  C   UNL     1      -6.154 -10.068  -1.428  0.00  0.00    +0.073 A 
ATOM     13  C   UNL     1      -5.962  -9.353  -2.592  0.00  0.00    +0.150 A 
ATOM     14  C   UNL     1      -4.771  -8.669  -2.801  0.00  0.00    +0.068 A 
ATOM     15  F   UNL     1      -5.360 -10.820   0.674  0.00  0.00    -0.205 F 
BRANCH  14  16
ATOM     16  N   UNL     1      -4.579  -7.943  -3.971  0.00  0.00    -0.356 N 
ATOM     17  H   UNL     1      -5.061  -8.185  -4.777  0.00  0.00    +0.142 HD
ATOM     18  H   UNL     1      -3.962  -7.194  -3.981  0.00  0.00    +0.142 HD
ENDBRANCH  14  16
BRANCH  13  19
ATOM     19  N   UNL     1      -7.029  -9.309  -3.618  0.00  0.00    +0.058 N 
ATOM     20  O   UNL     1      -8.096  -9.835  -3.402  0.00  0.00    -0.126 OA
ATOM     21  O   UNL     1      -6.833  -8.747  -4.670  0.00  0.00    -0.126 OA
ENDBRANCH  13  19
ENDBRANCH   7   9
BRANCH   1  22
ATOM     22  C   UNL     1      -1.833  -3.366   0.695  0.00  0.00    +0.180 C 
BRANCH  22  24
ATOM     23  N   UNL     1      -0.359  -1.437   1.167  0.00  0.00    -0.284 N 
ATOM     24  C   UNL     1      -0.471  -2.734   0.820  0.00  0.00    +0.231 C 
ATOM     25  O   UNL     1       0.525  -3.393   0.607  0.00  0.00    -0.274 OA
ATOM     26  H   UNL     1      -1.152  -0.925   1.392  0.00  0.00    +0.155 HD
BRANCH  23  32
ATOM     27  C   UNL     1       1.042   0.500   0.824  0.00  0.00    +0.026 A 
ATOM     28  C   UNL     1       2.287   1.099   0.861  0.00  0.00    +0.040 A 
ATOM     29  C   UNL     1       3.392   0.376   1.276  0.00  0.00    +0.124 A 
ATOM     30  C   UNL     1       3.253  -0.948   1.655  0.00  0.00    +0.040 A 
ATOM     31  C   UNL     1       2.011  -1.551   1.619  0.00  0.00    +0.026 A 
ATOM     32  C   UNL     1       0.901  -0.828   1.204  0.00  0.00    +0.034 A 
ATOM     33  F   UNL     1       4.608   0.964   1.311  0.00  0.00    -0.205 F 
ENDBRANCH  23  32
ENDBRANCH  22  24
ENDBRANCH   1  22
TORSDOF 6
