REMARK  Name = ZINC17072186
REMARK  5 active torsions:
REMARK  status: ('A' for Active; 'I' for Inactive)
REMARK    1  A    between atoms: C_4  and  C_8
REMARK    2  A    between atoms: N_9  and  N_10
REMARK    3  A    between atoms: C_11  and  C_13
REMARK    4  A    between atoms: C_16  and  C_18
REMARK    5  A    between atoms: C_18  and  N_19
REMARK                            x       y       z     vdW  Elec       q    Type
REMARK                         _______ _______ _______ _____ _____    ______ ____
ROOT
ATOM      1  N   UNL     1      -0.002   0.969  -0.135  0.00  0.00    -0.200 N 
ATOM      2  C   UNL     1      -1.174   1.629  -0.217  0.00  0.00    +0.299 C 
ATOM      3  O   UNL     1      -1.187   2.846  -0.238  0.00  0.00    -0.265 OA
ATOM      4  H   UNL     1       0.008  -0.001  -0.118  0.00  0.00    +0.178 HD
ENDROOT
BRANCH   2   5
ATOM      5  C   UNL     1      -2.434   0.882  -0.279  0.00  0.00    +0.191 A 
ATOM      6  C   UNL     1      -3.685   1.423  -0.363  0.00  0.00    +0.055 A 
ATOM      7  C   UNL     1      -4.588   0.349  -0.399  0.00  0.00    +0.047 A 
ATOM      8  C   UNL     1      -3.858  -0.787  -0.336  0.00  0.00    +0.127 A 
ATOM      9  O   UNL     1      -2.560  -0.462  -0.270  0.00  0.00    -0.453 OA
BRANCH   8  10
ATOM     10  C   UNL     1      -4.412  -2.188  -0.346  0.00  0.00    +0.217 C 
BRANCH  10  11
ATOM     11  N   UNL     1      -4.508  -2.665  -1.728  0.00  0.00    -0.264 N 
ATOM     12  C   UNL     1      -3.956  -3.795  -2.218  0.00  0.00    +0.109 A 
ATOM     13  C   UNL     1      -4.279  -3.876  -3.530  0.00  0.00    +0.041 A 
ATOM     14  C   UNL     1      -5.047  -2.753  -3.854  0.00  0.00    +0.134 A 
ATOM     15  N   UNL     1      -5.185  -2.026  -2.775  0.00  0.00    -0.179 NA
ENDBRANCH  10  11
ENDBRANCH   8  10
ENDBRANCH   2   5
BRANCH   1  17
ATOM     16  C   UNL     1       2.324   1.052   0.084  0.00  0.00    +0.142 C 
ATOM     17  N   UNL     1       1.202   1.683  -0.082  0.00  0.00    -0.187 NA
BRANCH  16  21
ATOM     18  C   UNL     1       2.395  -3.193   0.061  0.00  0.00    +0.004 A 
ATOM     19  C   UNL     1       1.866  -2.509  -1.018  0.00  0.00    +0.039 A 
ATOM     20  C   UNL     1       1.834  -1.128  -1.017  0.00  0.00    +0.133 A 
ATOM     21  C   UNL     1       2.349  -0.422   0.076  0.00  0.00    +0.048 A 
ATOM     22  C   UNL     1       2.882  -1.121   1.162  0.00  0.00    +0.052 A 
ATOM     23  C   UNL     1       2.901  -2.502   1.147  0.00  0.00    +0.021 A 
ATOM     24 CL   UNL     1       3.518  -0.257   2.526  0.00  0.00    -0.083 Cl
ATOM     25  F   UNL     1       1.312  -0.461  -2.070  0.00  0.00    -0.205 F 
ENDBRANCH  16  21
ENDBRANCH   1  17
TORSDOF 5
