REMARK  Name = ZINC20898079
REMARK  7 active torsions:
REMARK  status: ('A' for Active; 'I' for Inactive)
REMARK    1  A    between atoms: C_4  and  C_7
REMARK    2  A    between atoms: C_7  and  C_8
REMARK    3  A    between atoms: C_8  and  N_9
REMARK    4  A    between atoms: N_9  and  C_10
REMARK    5  A    between atoms: C_13  and  C_19
REMARK    6  A    between atoms: C_15  and  N_16
REMARK    7  A    between atoms: C_21  and  C_24
REMARK                            x       y       z     vdW  Elec       q    Type
REMARK                         _______ _______ _______ _____ _____    ______ ____
ROOT
ATOM      1  C   UNL     1      -1.604  -1.885   0.057  0.00  0.00    +0.058 A 
ATOM      2  C   UNL     1      -0.539  -2.772  -0.069  0.00  0.00    +0.026 A 
ATOM      3  C   UNL     1      -0.773  -4.128  -0.118  0.00  0.00    +0.015 A 
ATOM      4  C   UNL     1      -2.082  -4.613  -0.053  0.00  0.00    +0.042 A 
ATOM      5  C   UNL     1      -3.149  -3.720   0.068  0.00  0.00    +0.048 A 
ATOM      6  C   UNL     1      -2.909  -2.365   0.122  0.00  0.00    +0.148 A 
ENDROOT
BRANCH   4   7
ATOM      7  C   UNL     1      -2.336  -6.066  -0.111  0.00  0.00    +0.259 A 
ATOM      8  N   UNL     1      -1.430  -7.020  -0.224  0.00  0.00    -0.186 NA
ATOM      9  C   UNL     1      -2.123  -8.177  -0.236  0.00  0.00    +0.221 A 
ATOM     10  N   UNL     1      -3.392  -7.873  -0.132  0.00  0.00    -0.054 NA
ATOM     11  O   UNL     1      -3.533  -6.671  -0.053  0.00  0.00    -0.332 OA
BRANCH   9  12
ATOM     12  C   UNL     1      -1.552  -9.543  -0.347  0.00  0.00    +0.111 A 
ATOM     13  C   UNL     1      -2.400 -10.648  -0.346  0.00  0.00    +0.031 A 
ATOM     14  C   UNL     1      -1.854 -11.916  -0.451  0.00  0.00    +0.004 A 
ATOM     15  C   UNL     1      -0.475 -12.036  -0.554  0.00  0.00    +0.020 A 
ATOM     16  C   UNL     1       0.307 -10.895  -0.549  0.00  0.00    +0.111 A 
ATOM     17  N   UNL     1      -0.240  -9.701  -0.453  0.00  0.00    -0.252 NA
ENDBRANCH   9  12
ENDBRANCH   4   7
BRANCH   6  18
ATOM     18  N   UNL     1      -4.039  -1.418   0.251  0.00  0.00    +0.058 N 
ATOM     19  O   UNL     1      -4.997  -1.704   0.945  0.00  0.00    -0.126 OA
ATOM     20  O   UNL     1      -4.010  -0.352  -0.338  0.00  0.00    -0.126 OA
ENDBRANCH   6  18
BRANCH   1  21
ATOM     21  N   UNL     1      -1.364  -0.515   0.112  0.00  0.00    -0.342 N 
ATOM     22  H   UNL     1      -2.193   0.181   0.308  0.00  0.00    +0.146 HD
BRANCH  21  23
ATOM     23  C   UNL     1      -0.008   0.000  -0.092  0.00  0.00    +0.106 C 
BRANCH  23  24
ATOM     24  C   UNL     1      -0.020   1.526   0.018  0.00  0.00    +0.054 C 
BRANCH  24  28
ATOM     25  C   UNL     1       3.935   3.028  -0.577  0.00  0.00    +0.000 A 
ATOM     26  C   UNL     1       3.086   2.868  -1.657  0.00  0.00    +0.000 A 
ATOM     27  C   UNL     1       1.807   2.382  -1.464  0.00  0.00    +0.004 A 
ATOM     28  C   UNL     1       1.375   2.056  -0.192  0.00  0.00    -0.046 A 
ATOM     29  C   UNL     1       2.222   2.220   0.888  0.00  0.00    +0.004 A 
ATOM     30  C   UNL     1       3.504   2.701   0.695  0.00  0.00    +0.000 A 
ENDBRANCH  24  28
ENDBRANCH  23  24
ENDBRANCH  21  23
ENDBRANCH   1  21
TORSDOF 7
