REMARK  Name = ZINC38799981
REMARK  7 active torsions:
REMARK  status: ('A' for Active; 'I' for Inactive)
REMARK    1  A    between atoms: C_1  and  C_2
REMARK    2  A    between atoms: C_5  and  C_38
REMARK    3  A    between atoms: C_6  and  N_8
REMARK    4  A    between atoms: C_9  and  C_11
REMARK    5  A    between atoms: N_23  and  N_27
REMARK    6  A    between atoms: C_24  and  N_26
REMARK    7  A    between atoms: C_28  and  C_29
REMARK                            x       y       z     vdW  Elec       q    Type
REMARK                         _______ _______ _______ _____ _____    ______ ____
ROOT
ATOM      1  C   UNL     1       0.293  -2.908   4.861  0.00  0.00    +0.132 C 
ATOM      2  C   UNL     1      -0.948  -3.740   5.092  0.00  0.00    +0.095 A 
ATOM      3  C   UNL     1      -1.553  -3.305   6.283  0.00  0.00    +0.162 A 
ATOM      4  N   UNL     1      -2.670  -3.889   6.702  0.00  0.00    -0.227 NA
ATOM      5  C   UNL     1      -3.213  -4.883   5.995  0.00  0.00    +0.091 A 
ATOM      6  C   UNL     1      -4.396  -5.514   6.421  0.00  0.00    +0.030 A 
ATOM      7  C   UNL     1      -4.927  -6.524   5.680  0.00  0.00    +0.002 A 
ATOM      8  C   UNL     1      -4.317  -6.945   4.500  0.00  0.00    +0.002 A 
ATOM      9  C   UNL     1      -3.171  -6.359   4.057  0.00  0.00    +0.030 A 
ATOM     10  C   UNL     1      -2.593  -5.313   4.796  0.00  0.00    +0.090 A 
ATOM     11  N   UNL     1      -1.468  -4.716   4.386  0.00  0.00    -0.246 NA
ATOM     12  N   UNL     1      -0.839  -2.269   6.865  0.00  0.00    -0.219 N 
ATOM     13  C   UNL     1       0.339  -1.941   6.055  0.00  0.00    +0.058 C 
ENDROOT
BRANCH   1  15
ATOM     14  N   UNL     1       0.090  -2.804   2.398  0.00  0.00    -0.285 N 
ATOM     15  C   UNL     1       0.180  -2.142   3.568  0.00  0.00    +0.226 C 
ATOM     16  O   UNL     1       0.169  -0.929   3.581  0.00  0.00    -0.275 OA
ATOM     17  H   UNL     1       0.016  -3.771   2.393  0.00  0.00    +0.155 HD
BRANCH  14  23
ATOM     18  C   UNL     1       1.351   1.213  -0.140  0.00  0.00    +0.044 C 
ATOM     19  C   UNL     1       0.707  -0.147  -0.068  0.00  0.00    -0.049 A 
ATOM     20  C   UNL     1       0.126  -0.698  -1.196  0.00  0.00    +0.004 A 
ATOM     21  C   UNL     1      -0.466  -1.946  -1.134  0.00  0.00    +0.005 A 
ATOM     22  C   UNL     1      -0.479  -2.647   0.056  0.00  0.00    -0.029 A 
ATOM     23  C   UNL     1       0.102  -2.097   1.191  0.00  0.00    +0.037 A 
ATOM     24  C   UNL     1       0.701  -0.845   1.124  0.00  0.00    +0.027 A 
ATOM     25  C   UNL     1      -1.125  -4.006   0.123  0.00  0.00    +0.045 C 
ENDBRANCH  14  23
ENDBRANCH   1  15
BRANCH  13  26
ATOM     26  N   UNL     1       1.568  -2.151   6.833  0.00  0.00    +0.392 N 
ATOM     27  H   UNL     1       2.369  -2.068   6.225  0.00  0.00    -0.087 HD
ATOM     28  H   UNL     1       1.627  -1.458   7.563  0.00  0.00    -0.087 HD
ATOM     29  H   UNL     1       1.552  -3.073   7.244  0.00  0.00    -0.087 HD
ENDBRANCH  13  26
BRANCH  12  30
ATOM     30  N   UNL     1      -1.165  -1.677   7.964  0.00  0.00    -0.188 NA
ATOM     31  C   UNL     1      -0.480  -0.637   8.377  0.00  0.00    +0.136 C 
BRANCH  31  32
ATOM     32  C   UNL     1      -0.764  -0.061   9.619  0.00  0.00    +0.000 C 
ATOM     33  C   UNL     1      -0.139   1.043  10.200  0.00  0.00    +0.004 A 
ATOM     34  C   UNL     1       0.907   1.885   9.765  0.00  0.00    +0.010 A 
ATOM     35  C   UNL     1       1.322   2.908  10.556  0.00  0.00    +0.001 A 
ATOM     36  C   UNL     1       0.737   3.153  11.801  0.00  0.00    +0.002 A 
ATOM     37  C   UNL     1      -0.271   2.385  12.281  0.00  0.00    +0.026 A 
ATOM     38  C   UNL     1      -0.758   1.298  11.511  0.00  0.00    +0.043 A 
ATOM     39  N   UNL     1      -1.711   0.418  11.749  0.00  0.00    -0.380 N 
ATOM     40  C   UNL     1      -1.817  -0.501  10.612  0.00  0.00    +0.150 C 
ATOM     41  H   UNL     1      -2.258   0.387  12.549  0.00  0.00    +0.160 HD
ENDBRANCH  31  32
ENDBRANCH  12  30
TORSDOF 5
