REMARK  Name = ZINC22514058
REMARK  8 active torsions:
REMARK  status: ('A' for Active; 'I' for Inactive)
REMARK    1  A    between atoms: C_1  and  O_2
REMARK    2  A    between atoms: O_2  and  C_3
REMARK    3  A    between atoms: C_3  and  C_5
REMARK    4  A    between atoms: C_7  and  N_12
REMARK    5  A    between atoms: C_13  and  C_15
REMARK    6  A    between atoms: C_18  and  N_22
REMARK    7  A    between atoms: N_22  and  S_23
REMARK    8  A    between atoms: S_23  and  C_26
REMARK                            x       y       z     vdW  Elec       q    Type
REMARK                         _______ _______ _______ _____ _____    ______ ____
ROOT
ATOM      1  N   UNL     1      -4.957  -2.112   3.210  0.00  0.00    -0.281 N 
ATOM      2  C   UNL     1      -3.970  -1.599   3.970  0.00  0.00    +0.250 C 
ATOM      3  O   UNL     1      -3.905  -1.880   5.152  0.00  0.00    -0.270 OA
ATOM      4  H   UNL     1      -5.068  -1.792   2.163  0.00  0.00    +0.155 HD
ENDROOT
BRANCH   1   7
ATOM      5  C   UNL     1      -8.043  -4.015   3.877  0.00  0.00    +0.079 A 
ATOM      6  C   UNL     1      -7.164  -3.078   3.334  0.00  0.00    +0.039 A 
ATOM      7  C   UNL     1      -5.843  -3.050   3.752  0.00  0.00    +0.035 A 
ATOM      8  C   UNL     1      -5.396  -3.958   4.705  0.00  0.00    +0.025 A 
ATOM      9  C   UNL     1      -6.266  -4.883   5.248  0.00  0.00    +0.022 A 
ATOM     10  C   UNL     1      -7.585  -4.920   4.839  0.00  0.00    +0.055 A 
ATOM     11 CL   UNL     1      -8.674  -6.089   5.520  0.00  0.00    -0.083 Cl
BRANCH   5  12
ATOM     12  C   UNL     1      -9.453  -4.051   3.438  0.00  0.00    +0.340 C 
ATOM     13  O   UNL     1     -10.216  -4.868   3.912  0.00  0.00    -0.245 OA
BRANCH  12  15
ATOM     14  C   UNL     1     -11.289  -3.271   2.126  0.00  0.00    +0.280 C 
ATOM     15  O   UNL     1      -9.891  -3.178   2.510  0.00  0.00    -0.464 OA
ENDBRANCH  12  15
ENDBRANCH   5  12
ENDBRANCH   1   7
BRANCH   2  16
ATOM     16  C   UNL     1      -2.968  -0.700   3.370  0.00  0.00    +0.055 A 
ATOM     17  C   UNL     1      -3.042  -0.376   2.012  0.00  0.00    +0.016 A 
ATOM     18  C   UNL     1      -2.117   0.462   1.457  0.00  0.00    +0.027 A 
ATOM     19  C   UNL     1      -1.091   0.990   2.238  0.00  0.00    +0.075 A 
ATOM     20  C   UNL     1      -1.009   0.674   3.590  0.00  0.00    +0.047 A 
ATOM     21  C   UNL     1      -1.942  -0.167   4.158  0.00  0.00    +0.055 A 
ATOM     22 CL   UNL     1      -1.844  -0.563   5.846  0.00  0.00    -0.083 Cl
BRANCH  19  23
ATOM     23  N   UNL     1      -0.150   1.838   1.665  0.00  0.00    -0.103 NA
BRANCH  23  24
ATOM     24  S   UNL     1       0.556   1.438   0.222  0.00  0.00    +0.059 S 
ATOM     25  O   UNL     1       1.492   2.478  -0.025  0.00  0.00    -0.154 OA
ATOM     26  O   UNL     1      -0.532   1.216  -0.665  0.00  0.00    -0.154 OA
ATOM     27  C   UNL     1       1.426  -0.121   0.545  0.00  0.00    +0.220 C 
ENDBRANCH  23  24
ENDBRANCH  19  23
ENDBRANCH   2  16
TORSDOF 6
