REMARK  Name = ZINC15935229
REMARK  13 active torsions:
REMARK  status: ('A' for Active; 'I' for Inactive)
REMARK    1  A    between atoms: C_1  and  C_2
REMARK    2  A    between atoms: C_2  and  C_3
REMARK    3  A    between atoms: C_3  and  N_4
REMARK    4  A    between atoms: N_4  and  C_5
REMARK    5  A    between atoms: N_4  and  C_8
REMARK    6  A    between atoms: C_5  and  C_6
REMARK    7  A    between atoms: C_6  and  C_7
REMARK    8  A    between atoms: C_8  and  C_9
REMARK    9  A    between atoms: C_10  and  C_20
REMARK   10  A    between atoms: N_22  and  N_23
REMARK   11  A    between atoms: C_24  and  C_25
REMARK   12  A    between atoms: C_25  and  C_32
REMARK   13  A    between atoms: C_26  and  C_27
REMARK                            x       y       z     vdW  Elec       q    Type
REMARK                         _______ _______ _______ _____ _____    ______ ____
ROOT
ATOM      1  C   UNL     1       0.910  -3.687  -2.463  0.00  0.00    +0.063 A 
ATOM      2  C   UNL     1       1.916  -4.404  -1.880  0.00  0.00    +0.170 A 
ATOM      3  N   UNL     1       1.681  -5.712  -2.086  0.00  0.00    -0.124 NA
ATOM      4  N   UNL     1       0.593  -5.854  -2.759  0.00  0.00    -0.058 NA
ATOM      5  N   UNL     1       0.063  -4.582  -3.018  0.00  0.00    -0.194 N 
ATOM      6  C   UNL     1      -1.114  -4.295  -3.718  0.00  0.00    +0.240 A 
ATOM      7  C   UNL     1      -2.024  -5.281  -4.309  0.00  0.00    +0.206 A 
ATOM      8  N   UNL     1      -3.009  -4.641  -4.877  0.00  0.00    -0.032 NA
ATOM      9  O   UNL     1      -2.792  -3.254  -4.689  0.00  0.00    -0.239 OA
ATOM     10  N   UNL     1      -1.591  -3.105  -3.951  0.00  0.00    -0.027 NA
ATOM     11  N   UNL     1      -1.864  -6.661  -4.270  0.00  0.00    -0.337 N 
ATOM     12  H   UNL     1      -1.095  -7.048  -3.822  0.00  0.00    +0.144 HD
ATOM     13  H   UNL     1      -2.521  -7.238  -4.691  0.00  0.00    +0.144 HD
ENDROOT
BRANCH   2  14
ATOM     14  C   UNL     1       3.066  -3.840  -1.149  0.00  0.00    +0.285 C 
ATOM     15  O   UNL     1       3.175  -2.635  -1.025  0.00  0.00    -0.267 OA
ATOM     16  N   UNL     1       3.995  -4.659  -0.618  0.00  0.00    -0.202 N 
ATOM     17  H   UNL     1       3.907  -5.620  -0.717  0.00  0.00    +0.178 HD
BRANCH  16  18
ATOM     18  N   UNL     1       5.087  -4.123   0.076  0.00  0.00    -0.188 NA
ATOM     19  C   UNL     1       5.986  -4.916   0.590  0.00  0.00    +0.133 C 
BRANCH  19  20
ATOM     20  C   UNL     1       7.089  -4.374   1.291  0.00  0.00    -0.027 C 
ATOM     21  C   UNL     1       8.080  -5.188   1.726  0.00  0.00    +0.051 C 
ATOM     22  C   UNL     1       7.161  -2.892   1.554  0.00  0.00    +0.045 C 
BRANCH  21  23
ATOM     23  C   UNL     1       8.098  -6.595   1.329  0.00  0.00    +0.128 A 
ATOM     24  C   UNL     1       8.961  -7.549   1.792  0.00  0.00    +0.049 A 
ATOM     25  C   UNL     1       8.618  -8.750   1.146  0.00  0.00    +0.042 A 
ATOM     26  C   UNL     1       7.578  -8.480   0.330  0.00  0.00    +0.195 A 
ATOM     27  O   UNL     1       7.263  -7.180   0.446  0.00  0.00    -0.464 OA
ENDBRANCH  21  23
ENDBRANCH  19  20
ENDBRANCH  16  18
ENDBRANCH   2  14
BRANCH   1  28
ATOM     28  C   UNL     1       0.768  -2.186  -2.478  0.00  0.00    -0.020 C 
BRANCH  28  29
ATOM     29  N   UNL     1      -0.130  -1.768  -1.393  0.00  0.00    +0.383 N 
ATOM     30  H   UNL     1      -1.015  -2.243  -1.488  0.00  0.00    -0.081 HD
BRANCH  29  31
ATOM     31  C   UNL     1       0.473  -2.111  -0.098  0.00  0.00    -0.079 C 
BRANCH  31  33
ATOM     32  C   UNL     1       0.114  -2.147   2.374  0.00  0.00    +0.002 C 
ATOM     33  C   UNL     1      -0.514  -1.790   1.025  0.00  0.00    -0.022 C 
ENDBRANCH  31  33
ENDBRANCH  29  31
BRANCH  29  34
ATOM     34  C   UNL     1      -0.342  -0.317  -1.465  0.00  0.00    -0.079 C 
BRANCH  34  35
ATOM     35  C   UNL     1      -1.075   0.028  -2.764  0.00  0.00    -0.022 C 
ATOM     36  C   UNL     1      -1.204   1.547  -2.888  0.00  0.00    +0.002 C 
ENDBRANCH  34  35
ENDBRANCH  29  34
ENDBRANCH  28  29
ENDBRANCH   1  28
TORSDOF 10
