REMARK  Name = ZINC09561918
REMARK  12 active torsions:
REMARK  status: ('A' for Active; 'I' for Inactive)
REMARK    1  A    between atoms: C_1  and  C_2
REMARK    2  A    between atoms: C_5  and  C_34
REMARK    3  A    between atoms: C_6  and  S_8
REMARK    4  A    between atoms: S_8  and  O_11
REMARK    5  A    between atoms: O_11  and  C_12
REMARK    6  A    between atoms: C_15  and  C_20
REMARK    7  A    between atoms: C_17  and  O_18
REMARK    8  A    between atoms: O_18  and  C_19
REMARK    9  A    between atoms: C_22  and  C_29
REMARK   10  A    between atoms: C_23  and  C_28
REMARK   11  A    between atoms: N_31  and  C_32
REMARK   12  A    between atoms: N_31  and  C_33
REMARK                            x       y       z     vdW  Elec       q    Type
REMARK                         _______ _______ _______ _____ _____    ______ ____
ROOT
ATOM      1  C   UNL     1      -0.875  -1.069  -1.496  0.00  0.00    +0.198 A 
ATOM      2  C   UNL     1       0.241  -0.912  -2.302  0.00  0.00    +0.053 A 
ATOM      3  C   UNL     1       0.410  -1.716  -3.414  0.00  0.00    +0.010 A 
ATOM      4  C   UNL     1      -0.539  -2.671  -3.731  0.00  0.00    -0.019 A 
ATOM      5  C   UNL     1      -1.658  -2.829  -2.935  0.00  0.00    +0.055 A 
ATOM      6  C   UNL     1      -1.830  -2.030  -1.816  0.00  0.00    +0.165 A 
ENDROOT
BRANCH   4   7
ATOM      7  C   UNL     1      -0.353  -3.541  -4.948  0.00  0.00    +0.139 C 
ATOM      8  C   UNL     1      -0.796  -2.748  -6.161  0.00  0.00    +0.056 C 
ATOM      9  C   UNL     1       0.105  -2.552  -7.147  0.00  0.00    +0.017 C 
ATOM     10  N   UNL     1       1.372  -3.052  -7.053  0.00  0.00    -0.300 N 
ATOM     11  C   UNL     1       1.816  -3.758  -6.006  0.00  0.00    +0.135 C 
ATOM     12  S   UNL     1       3.431  -4.327  -6.015  0.00  0.00    -0.019 S 
ATOM     13  N   UNL     1       1.034  -4.036  -4.944  0.00  0.00    -0.315 N 
ATOM     14  C   UNL     1      -0.295  -1.770  -8.371  0.00  0.00    +0.061 C 
ATOM     15  H   UNL     1       1.985  -2.886  -7.786  0.00  0.00    +0.154 HD
ATOM     16  H   UNL     1       1.376  -4.549  -4.196  0.00  0.00    +0.149 HD
BRANCH   8  17
ATOM     17  C   UNL     1      -2.111  -2.230  -6.257  0.00  0.00    +0.246 C 
ATOM     18  O   UNL     1      -2.397  -1.186  -5.699  0.00  0.00    -0.270 OA
ATOM     19  N   UNL     1      -3.046  -2.892  -6.967  0.00  0.00    -0.304 N 
ATOM     20  C   UNL     1      -4.368  -2.296  -7.174  0.00  0.00    +0.132 C 
ATOM     21  C   UNL     1      -2.740  -4.209  -7.531  0.00  0.00    +0.132 C 
ENDBRANCH   8  17
ENDBRANCH   4   7
BRANCH   6  22
ATOM     22  O   UNL     1      -2.930  -2.184  -1.031  0.00  0.00    -0.491 OA
ATOM     23  C   UNL     1      -3.869  -3.189  -1.420  0.00  0.00    +0.277 C 
ENDBRANCH   6  22
BRANCH   1  24
ATOM     24  O   UNL     1      -1.040  -0.283  -0.399  0.00  0.00    -0.339 OA
BRANCH  24  25
ATOM     25  S   UNL     1      -0.433  -0.859   0.872  0.00  0.00    +0.151 S 
ATOM     26  O   UNL     1      -0.680  -2.258   0.842  0.00  0.00    -0.131 OA
ATOM     27  O   UNL     1      -0.870  -0.032   1.942  0.00  0.00    -0.131 OA
BRANCH  25  33
ATOM     28  C   UNL     1       3.887   2.043   1.350  0.00  0.00    +0.044 C 
ATOM     29  C   UNL     1       3.259   0.721   0.993  0.00  0.00    -0.049 A 
ATOM     30  C   UNL     1       4.053  -0.330   0.573  0.00  0.00    +0.004 A 
ATOM     31  C   UNL     1       3.476  -1.544   0.246  0.00  0.00    +0.005 A 
ATOM     32  C   UNL     1       2.106  -1.705   0.338  0.00  0.00    -0.022 A 
ATOM     33  C   UNL     1       1.313  -0.654   0.756  0.00  0.00    +0.131 A 
ATOM     34  C   UNL     1       1.889   0.560   1.083  0.00  0.00    +0.034 A 
ATOM     35  C   UNL     1       1.478  -3.028  -0.018  0.00  0.00    +0.046 C 
ENDBRANCH  25  33
ENDBRANCH  24  25
ENDBRANCH   1  24
TORSDOF 6
