REMARK  Name = ZINC55886654
REMARK  10 active torsions:
REMARK  status: ('A' for Active; 'I' for Inactive)
REMARK    1  A    between atoms: C_1  and  C_2
REMARK    2  A    between atoms: C_2  and  C_3
REMARK    3  A    between atoms: C_2  and  C_4
REMARK    4  A    between atoms: C_4  and  N_5
REMARK    5  A    between atoms: C_6  and  C_8
REMARK    6  A    between atoms: C_11  and  N_15
REMARK    7  A    between atoms: N_15  and  C_16
REMARK    8  A    between atoms: C_16  and  C_17
REMARK    9  A    between atoms: N_19  and  C_20
REMARK   10  A    between atoms: C_23  and  C_27
REMARK                            x       y       z     vdW  Elec       q    Type
REMARK                         _______ _______ _______ _____ _____    ______ ____
ROOT
ATOM      1  N   UNL     1      -2.438   0.946   8.276  0.00  0.00    -0.335 N 
ATOM      2  H   UNL     1      -3.267   1.443   8.191  0.00  0.00    +0.147 HD
ENDROOT
BRANCH   1   6
ATOM      3  C   UNL     1      -0.309  -0.131   4.871  0.00  0.00    +0.055 A 
ATOM      4  C   UNL     1      -1.505   0.585   4.757  0.00  0.00    +0.016 A 
ATOM      5  C   UNL     1      -2.201   0.937   5.878  0.00  0.00    +0.024 A 
ATOM      6  C   UNL     1      -1.724   0.585   7.139  0.00  0.00    +0.029 A 
ATOM      7  C   UNL     1      -0.535  -0.127   7.263  0.00  0.00    +0.043 A 
ATOM      8  C   UNL     1       0.170  -0.490   6.135  0.00  0.00    +0.055 A 
ATOM      9 CL   UNL     1       1.650  -1.385   6.284  0.00  0.00    -0.083 Cl
BRANCH   3  11
ATOM     10  N   UNL     1      -0.020  -0.162   2.443  0.00  0.00    -0.311 N 
ATOM     11  C   UNL     1       0.443  -0.510   3.660  0.00  0.00    +0.245 C 
ATOM     12  O   UNL     1       1.480  -1.137   3.760  0.00  0.00    -0.270 OA
ATOM     13  H   UNL     1      -0.847   0.337   2.363  0.00  0.00    +0.149 HD
BRANCH  10  14
ATOM     14  C   UNL     1       0.727  -0.539   1.241  0.00  0.00    +0.107 C 
BRANCH  14  16
ATOM     15  C   UNL     1      -0.018   1.503   0.009  0.00  0.00    +0.009 C 
ATOM     16  C   UNL     1      -0.009  -0.027   0.001  0.00  0.00    -0.000 C 
ATOM     17  C   UNL     1       0.703  -0.526  -1.258  0.00  0.00    +0.009 C 
ENDBRANCH  14  16
ENDBRANCH  10  14
ENDBRANCH   3  11
ENDBRANCH   1   6
BRANCH   1  18
ATOM     18  C   UNL     1      -1.938   0.577   9.603  0.00  0.00    +0.198 C 
BRANCH  18  19
ATOM     19  C   UNL     1      -2.889   1.084  10.657  0.00  0.00    +0.234 C 
ATOM     20  O   UNL     1      -3.885   1.693  10.332  0.00  0.00    -0.274 OA
ATOM     21  N   UNL     1      -2.631   0.860  11.960  0.00  0.00    -0.284 N 
ATOM     22  H   UNL     1      -1.870   0.316  12.218  0.00  0.00    +0.155 HD
BRANCH  21  23
ATOM     23  C   UNL     1      -3.458   1.411  12.940  0.00  0.00    +0.035 A 
ATOM     24  C   UNL     1      -4.826   1.526  12.708  0.00  0.00    +0.024 A 
ATOM     25  C   UNL     1      -5.646   2.069  13.671  0.00  0.00    +0.022 A 
ATOM     26  C   UNL     1      -5.104   2.505  14.884  0.00  0.00    +0.070 A 
ATOM     27  C   UNL     1      -3.729   2.386  15.114  0.00  0.00    +0.060 A 
ATOM     28  C   UNL     1      -2.916   1.837  14.147  0.00  0.00    +0.044 A 
ATOM     29 CL   UNL     1      -3.050   2.926  16.618  0.00  0.00    -0.082 Cl
BRANCH  26  30
ATOM     30  C   UNL     1      -5.954   3.070  15.888  0.00  0.00    +0.101 C 
ATOM     31  N   UNL     1      -6.628   3.519  16.685  0.00  0.00    -0.191 NA
ENDBRANCH  26  30
ENDBRANCH  21  23
ENDBRANCH  18  19
ENDBRANCH   1  18
TORSDOF 8
