REMARK  Name = ZINC01921160
REMARK  8 active torsions:
REMARK  status: ('A' for Active; 'I' for Inactive)
REMARK    1  A    between atoms: C_1  and  O_2
REMARK    2  A    between atoms: O_2  and  C_3
REMARK    3  A    between atoms: C_3  and  C_4
REMARK    4  A    between atoms: C_4  and  N_5
REMARK    5  A    between atoms: C_6  and  N_14
REMARK    6  A    between atoms: C_15  and  C_17
REMARK    7  A    between atoms: C_17  and  S_18
REMARK    8  A    between atoms: S_18  and  C_19
REMARK                            x       y       z     vdW  Elec       q    Type
REMARK                         _______ _______ _______ _____ _____    ______ ____
ROOT
ATOM      1  N   UNL     1       8.709   7.870  -0.059  0.00  0.00    -0.271 N 
ATOM      2  C   UNL     1       7.382   8.092   0.019  0.00  0.00    +0.229 C 
ATOM      3  O   UNL     1       6.960   9.227   0.082  0.00  0.00    -0.275 OA
ATOM      4  H   UNL     1       9.050   6.962  -0.047  0.00  0.00    +0.156 HD
ENDROOT
BRANCH   1   6
ATOM      5  N   UNL     1      10.166   9.453   0.973  0.00  0.00    -0.279 N 
ATOM      6  C   UNL     1       9.581   8.933  -0.155  0.00  0.00    +0.114 A 
ATOM      7  C   UNL     1       9.866   9.481  -1.372  0.00  0.00    +0.112 A 
ATOM      8  C   UNL     1      10.759  10.565  -1.441  0.00  0.00    +0.256 A 
ATOM      9  O   UNL     1      11.028  11.070  -2.517  0.00  0.00    -0.268 OA
ATOM     10  N   UNL     1      11.315  11.041  -0.310  0.00  0.00    -0.275 N 
ATOM     11  H   UNL     1      11.950  11.812  -0.356  0.00  0.00    +0.173 HD
ATOM     12  C   UNL     1      11.022  10.488   0.881  0.00  0.00    +0.331 A 
ATOM     13  O   UNL     1      11.534  10.933   1.890  0.00  0.00    -0.246 OA
BRANCH   5  14
ATOM     14  C   UNL     1       9.861   8.875   2.284  0.00  0.00    +0.156 C 
BRANCH  14  15
ATOM     15  C   UNL     1      10.867   7.766   2.598  0.00  0.00    +0.181 C 
BRANCH  15  17
ATOM     16  C   UNL     1      13.193   7.373   3.025  0.00  0.00    +0.194 C 
ATOM     17  O   UNL     1      12.173   8.330   2.729  0.00  0.00    -0.381 OA
ENDBRANCH  15  17
ENDBRANCH  14  15
ENDBRANCH   5  14
ENDBRANCH   1   6
BRANCH   2  18
ATOM     18  C   UNL     1       6.423   6.930   0.028  0.00  0.00    +0.173 C 
BRANCH  18  19
ATOM     19  S   UNL     1       4.726   7.549   0.139  0.00  0.00    -0.075 S 
BRANCH  19  20
ATOM     20  C   UNL     1       3.843   6.024   0.131  0.00  0.00    +0.212 A 
ATOM     21  N   UNL     1       2.518   6.039   0.201  0.00  0.00    -0.201 NA
ATOM     22  C   UNL     1       1.853   4.888   0.195  0.00  0.00    +0.162 A 
ATOM     23  C   UNL     1       2.592   3.689   0.113  0.00  0.00    +0.137 A 
ATOM     24  C   UNL     1       1.607   2.594   0.125  0.00  0.00    +0.029 A 
ATOM     25  C   UNL     1       1.713   1.206   0.070  0.00  0.00    +0.012 A 
ATOM     26  C   UNL     1       0.575   0.430   0.102  0.00  0.00    +0.001 A 
ATOM     27  C   UNL     1      -0.674   1.027   0.183  0.00  0.00    +0.002 A 
ATOM     28  C   UNL     1      -0.794   2.399   0.244  0.00  0.00    +0.026 A 
ATOM     29  C   UNL     1       0.344   3.199   0.213  0.00  0.00    +0.050 A 
ATOM     30  N   UNL     1       0.518   4.573   0.254  0.00  0.00    -0.338 N 
ATOM     31  H   UNL     1      -0.201   5.221   0.315  0.00  0.00    +0.167 HD
ATOM     32  N   UNL     1       3.914   3.742   0.046  0.00  0.00    -0.143 NA
ATOM     33  N   UNL     1       4.517   4.881   0.055  0.00  0.00    -0.122 NA
ENDBRANCH  19  20
ENDBRANCH  18  19
ENDBRANCH   2  18
TORSDOF 7
