REMARK  Name = ZINC13500543
REMARK  14 active torsions:
REMARK  status: ('A' for Active; 'I' for Inactive)
REMARK    1  A    between atoms: C_1  and  C_2
REMARK    2  A    between atoms: C_12  and  C_14
REMARK    3  A    between atoms: C_14  and  N_67
REMARK    4  A    between atoms: C_15  and  C_16
REMARK    5  A    between atoms: C_15  and  N_67
REMARK    6  A    between atoms: C_16  and  C_17
REMARK    7  A    between atoms: C_17  and  O_18
REMARK    8  A    between atoms: C_19  and  C_21
REMARK    9  A    between atoms: C_19  and  C_33
REMARK   10  A    between atoms: C_19  and  N_67
REMARK   11  A    between atoms: N_25  and  C_26
REMARK   12  A    between atoms: C_26  and  C_27
REMARK   13  A    between atoms: C_33  and  C_34
REMARK   14  A    between atoms: C_33  and  C_35
REMARK                            x       y       z     vdW  Elec       q    Type
REMARK                         _______ _______ _______ _____ _____    ______ ____
ROOT
ATOM      1  N   UNL     1       0.601   1.580   1.434  0.00  0.00    +0.389 N 
ATOM      2  H   UNL     1       1.398   2.226   1.390  0.00  0.00    -0.080 HD
ENDROOT
BRANCH   1   3
ATOM      3  C   UNL     1       1.060   0.224   1.067  0.00  0.00    -0.037 C 
BRANCH   3  15
ATOM      4  C   UNL     1      -3.875  -4.031   1.932  0.00  0.00    +0.046 C 
ATOM      5  C   UNL     1      -3.362  -3.339   0.695  0.00  0.00    -0.026 A 
ATOM      6  C   UNL     1      -3.963  -3.567  -0.524  0.00  0.00    +0.005 A 
ATOM      7  C   UNL     1      -3.501  -2.936  -1.671  0.00  0.00    +0.001 A 
ATOM      8  C   UNL     1      -2.441  -2.076  -1.612  0.00  0.00    +0.010 A 
ATOM      9  C   UNL     1      -1.816  -1.829  -0.385  0.00  0.00    -0.001 A 
ATOM     10  C   UNL     1      -2.282  -2.467   0.780  0.00  0.00    +0.052 A 
ATOM     11  N   UNL     1      -1.662  -2.220   1.986  0.00  0.00    -0.322 N 
ATOM     12  H   UNL     1      -1.984  -2.661   2.788  0.00  0.00    +0.169 HD
ATOM     13  C   UNL     1      -0.615  -1.381   2.067  0.00  0.00    +0.251 A 
ATOM     14  O   UNL     1      -0.088  -1.190   3.149  0.00  0.00    -0.268 OA
ATOM     15  C   UNL     1      -0.113  -0.712   0.930  0.00  0.00    +0.001 A 
ATOM     16  C   UNL     1      -0.679  -0.913  -0.286  0.00  0.00    +0.017 A 
ENDBRANCH   3  15
ENDBRANCH   1   3
BRANCH   1  17
ATOM     17  C   UNL     1      -0.438   2.035   0.487  0.00  0.00    -0.075 C 
BRANCH  17  18
ATOM     18  C   UNL     1       0.205   2.253  -0.884  0.00  0.00    +0.009 C 
BRANCH  18  19
ATOM     19  C   UNL     1      -0.869   2.665  -1.892  0.00  0.00    +0.154 C 
BRANCH  19  20
ATOM     20  O   UNL     1      -0.268   2.868  -3.173  0.00  0.00    -0.395 OA
ATOM     21  H   UNL     1      -0.892   3.133  -3.863  0.00  0.00    +0.209 HD
ENDBRANCH  19  20
ENDBRANCH  18  19
ENDBRANCH  17  18
ENDBRANCH   1  17
BRANCH   1  22
ATOM     22  C   UNL     1       0.062   1.575   2.811  0.00  0.00    +0.006 C 
BRANCH  22  23
ATOM     23  C   UNL     1      -0.532   2.928   3.111  0.00  0.00    +0.138 A 
ATOM     24  N   UNL     1       0.058   4.090   2.972  0.00  0.00    -0.115 NA
ATOM     25  N   UNL     1      -0.776   5.004   3.331  0.00  0.00    -0.023 NA
ATOM     26  N   UNL     1      -1.883   4.455   3.694  0.00  0.00    -0.044 NA
ATOM     27  N   UNL     1      -1.773   3.176   3.568  0.00  0.00    -0.228 N 
BRANCH  27  28
ATOM     28  C   UNL     1      -2.805   2.181   3.868  0.00  0.00    +0.178 C 
BRANCH  28  29
ATOM     29  C   UNL     1      -2.775   1.850   5.362  0.00  0.00    +0.140 C 
ATOM     30  C   UNL     1      -3.804   0.742   5.674  0.00  0.00    +0.035 C 
ATOM     31  C   UNL     1      -4.385   1.206   7.037  0.00  0.00    +0.031 C 
ATOM     32  C   UNL     1      -4.342   2.746   6.867  0.00  0.00    +0.160 C 
ATOM     33  O   UNL     1      -3.141   3.007   6.123  0.00  0.00    -0.375 OA
ENDBRANCH  28  29
ENDBRANCH  27  28
ENDBRANCH  22  23
BRANCH  22  34
ATOM     34  C   UNL     1       1.206   1.293   3.787  0.00  0.00    -0.024 C 
ATOM     35  C   UNL     1       2.288   2.362   3.628  0.00  0.00    +0.006 C 
ATOM     36  C   UNL     1       0.670   1.318   5.220  0.00  0.00    +0.006 C 
ENDBRANCH  22  34
ENDBRANCH   1  22
TORSDOF 11
