REMARK  Name = ZINC06442460
REMARK  7 active torsions:
REMARK  status: ('A' for Active; 'I' for Inactive)
REMARK    1  A    between atoms: C_1  and  C_2
REMARK    2  A    between atoms: C_7  and  C_15
REMARK    3  A    between atoms: C_13  and  C_14
REMARK    4  A    between atoms: C_15  and  C_17
REMARK    5  A    between atoms: C_15  and  N_64
REMARK    6  A    between atoms: N_21  and  C_22
REMARK    7  A    between atoms: C_30  and  O_33
REMARK                            x       y       z     vdW  Elec       q    Type
REMARK                         _______ _______ _______ _____ _____    ______ ____
ROOT
ATOM      1  C   UNL     1       3.510   0.737  -0.027  0.00  0.00    +0.039 C 
ENDROOT
BRANCH   1   8
ATOM      2  C   UNL     1       6.448   1.895  -7.352  0.00  0.00    +0.044 C 
ATOM      3  C   UNL     1       5.987   1.463  -5.983  0.00  0.00    -0.046 A 
ATOM      4  C   UNL     1       6.298   0.191  -5.524  0.00  0.00    +0.004 A 
ATOM      5  C   UNL     1       5.890  -0.221  -4.287  0.00  0.00    +0.010 A 
ATOM      6  C   UNL     1       5.153   0.648  -3.475  0.00  0.00    -0.001 A 
ATOM      7  C   UNL     1       4.705   0.242  -2.142  0.00  0.00    +0.017 A 
ATOM      8  C   UNL     1       3.990   1.125  -1.402  0.00  0.00    +0.011 A 
ATOM      9  C   UNL     1       3.698   2.408  -1.913  0.00  0.00    +0.251 A 
ATOM     10  O   UNL     1       3.058   3.188  -1.229  0.00  0.00    -0.268 OA
ATOM     11  N   UNL     1       4.109   2.791  -3.134  0.00  0.00    -0.322 N 
ATOM     12  H   UNL     1       3.891   3.681  -3.454  0.00  0.00    +0.169 HD
ATOM     13  C   UNL     1       4.835   1.939  -3.938  0.00  0.00    +0.052 A 
ATOM     14  C   UNL     1       5.261   2.335  -5.202  0.00  0.00    -0.024 A 
ATOM     15  C   UNL     1       4.930   3.714  -5.713  0.00  0.00    +0.046 C 
ENDBRANCH   1   8
BRANCH   1  21
ATOM     16  C   UNL     1       5.444   1.862   0.898  0.00  0.00    -0.075 C 
ATOM     17  C   UNL     1       5.886   2.997   1.824  0.00  0.00    +0.013 C 
ATOM     18  C   UNL     1       5.438   2.685   3.255  0.00  0.00    +0.111 C 
ATOM     19  C   UNL     1       3.918   2.498   3.276  0.00  0.00    +0.013 C 
ATOM     20  C   UNL     1       3.534   1.377   2.307  0.00  0.00    -0.075 C 
ATOM     21  N   UNL     1       3.971   1.750   0.945  0.00  0.00    +0.389 N 
ATOM     22  H   UNL     1       3.559   2.658   0.700  0.00  0.00    -0.080 HD
BRANCH  18  23
ATOM     23  O   UNL     1       5.797   3.768   4.115  0.00  0.00    -0.392 OA
ATOM     24  H   UNL     1       6.748   3.943   4.150  0.00  0.00    +0.210 HD
ENDBRANCH  18  23
ENDBRANCH   1  21
BRANCH   1  25
ATOM     25  C   UNL     1       2.004   0.697  -0.013  0.00  0.00    +0.143 A 
ATOM     26  N   UNL     1       1.194   1.728  -0.000  0.00  0.00    -0.115 NA
ATOM     27  N   UNL     1      -0.015   1.283   0.009  0.00  0.00    -0.023 NA
ATOM     28  N   UNL     1       0.002  -0.004   0.002  0.00  0.00    -0.044 NA
ATOM     29  N   UNL     1       1.229  -0.403  -0.012  0.00  0.00    -0.227 N 
BRANCH  29  30
ATOM     30  C   UNL     1       1.691  -1.793  -0.024  0.00  0.00    +0.111 C 
ATOM     31  C   UNL     1       1.156  -2.498  -1.272  0.00  0.00    +0.027 C 
ATOM     32  C   UNL     1       1.639  -3.950  -1.285  0.00  0.00    +0.002 C 
ATOM     33  C   UNL     1       1.128  -4.668  -0.035  0.00  0.00    +0.000 C 
ATOM     34  C   UNL     1       1.663  -3.964   1.213  0.00  0.00    +0.002 C 
ATOM     35  C   UNL     1       1.180  -2.512   1.226  0.00  0.00    +0.027 C 
ENDBRANCH  29  30
ENDBRANCH   1  25
TORSDOF 5
