REMARK  Name = ZINC34734814
REMARK  10 active torsions:
REMARK  status: ('A' for Active; 'I' for Inactive)
REMARK    1  A    between atoms: C_1  and  C_2
REMARK    2  A    between atoms: C_7  and  N_8
REMARK    3  A    between atoms: C_9  and  C_11
REMARK    4  A    between atoms: C_11  and  N_12
REMARK    5  A    between atoms: N_25  and  C_28
REMARK    6  A    between atoms: C_28  and  C_29
REMARK    7  A    between atoms: C_29  and  C_30
REMARK    8  A    between atoms: C_29  and  C_31
REMARK    9  A    between atoms: C_34  and  C_36
REMARK   10  A    between atoms: C_34  and  C_37
REMARK                            x       y       z     vdW  Elec       q    Type
REMARK                         _______ _______ _______ _____ _____    ______ ____
ROOT
ATOM      1  N   UNL     1      -0.241  -0.907   5.987  0.00  0.00    -0.271 N 
ATOM      2  C   UNL     1      -1.432  -1.435   6.324  0.00  0.00    +0.264 A 
ATOM      3  O   UNL     1      -2.441  -1.123   5.715  0.00  0.00    -0.267 OA
ATOM      4  C   UNL     1      -1.498  -2.368   7.407  0.00  0.00    +0.076 A 
ATOM      5  C   UNL     1      -2.669  -3.058   7.943  0.00  0.00    -0.018 A 
ATOM      6  C   UNL     1      -2.467  -3.898   8.981  0.00  0.00    +0.021 A 
ATOM      7  S   UNL     1      -0.728  -3.821   9.302  0.00  0.00    -0.071 S 
ATOM      8  C   UNL     1      -0.276  -2.657   8.040  0.00  0.00    +0.118 A 
ATOM      9  N   UNL     1       0.867  -2.100   7.657  0.00  0.00    -0.208 NA
ATOM     10  C   UNL     1       0.899  -1.248   6.653  0.00  0.00    +0.202 A 
ATOM     11  N   UNL     1       2.096  -0.692   6.275  0.00  0.00    -0.304 N 
ATOM     12  C   UNL     1       2.519   0.617   6.794  0.00  0.00    +0.089 C 
ATOM     13  C   UNL     1       3.947   0.487   7.335  0.00  0.00    -0.060 C 
ATOM     14  N   UNL     1       4.818  -0.059   6.286  0.00  0.00    +0.382 N 
ATOM     15  C   UNL     1       4.398  -1.425   5.948  0.00  0.00    -0.060 C 
ATOM     16  C   UNL     1       2.995  -1.392   5.344  0.00  0.00    +0.089 C 
ATOM     17  C   UNL     1      -3.514  -4.705   9.685  0.00  0.00    +0.203 C 
ATOM     18  O   UNL     1      -4.800  -4.201   9.289  0.00  0.00    -0.368 OA
ATOM     19  C   UNL     1      -4.939  -4.043   7.875  0.00  0.00    +0.068 C 
ATOM     20  C   UNL     1      -4.079  -2.873   7.387  0.00  0.00    +0.071 C 
ATOM     21  C   UNL     1      -4.492  -5.327   7.175  0.00  0.00    +0.041 C 
ATOM     22  C   UNL     1      -6.406  -3.769   7.537  0.00  0.00    +0.041 C 
ATOM     23  H   UNL     1       4.759   0.523   5.464  0.00  0.00    -0.082 HD
ENDROOT
BRANCH   1  24
ATOM     24  C   UNL     1      -0.167   0.049   4.879  0.00  0.00    +0.224 C 
BRANCH  24  26
ATOM     25  N   UNL     1       0.029  -0.023   2.414  0.00  0.00    -0.284 N 
ATOM     26  C   UNL     1      -0.053  -0.701   3.576  0.00  0.00    +0.237 C 
ATOM     27  O   UNL     1      -0.035  -1.913   3.574  0.00  0.00    -0.274 OA
ATOM     28  H   UNL     1       0.081   0.946   2.420  0.00  0.00    +0.155 HD
BRANCH  25  35
ATOM     29  C   UNL     1      -1.257   1.169   0.174  0.00  0.00    +0.045 C 
ATOM     30  C   UNL     1      -0.575  -0.171   0.081  0.00  0.00    -0.029 A 
ATOM     31  C   UNL     1      -0.557  -0.856  -1.119  0.00  0.00    +0.005 A 
ATOM     32  C   UNL     1       0.068  -2.086  -1.205  0.00  0.00    +0.000 A 
ATOM     33  C   UNL     1       0.678  -2.635  -0.092  0.00  0.00    +0.002 A 
ATOM     34  C   UNL     1       0.664  -1.955   1.110  0.00  0.00    +0.023 A 
ATOM     35  C   UNL     1       0.041  -0.717   1.199  0.00  0.00    +0.036 A 
ENDBRANCH  25  35
ENDBRANCH  24  26
ENDBRANCH   1  24
BRANCH  14  36
ATOM     36  C   UNL     1       6.206  -0.081   6.767  0.00  0.00    -0.076 C 
BRANCH  36  37
ATOM     37  C   UNL     1       7.131  -0.532   5.635  0.00  0.00    -0.034 C 
ATOM     38  C   UNL     1       7.108   0.507   4.513  0.00  0.00    +0.005 C 
ATOM     39  C   UNL     1       8.558  -0.675   6.169  0.00  0.00    +0.005 C 
ENDBRANCH  36  37
ENDBRANCH  14  36
TORSDOF 5
