REMARK  Name = ZINC21283843
REMARK  12 active torsions:
REMARK  status: ('A' for Active; 'I' for Inactive)
REMARK    1  A    between atoms: C_1  and  C_2
REMARK    2  A    between atoms: C_2  and  C_4
REMARK    3  A    between atoms: C_2  and  N_14
REMARK    4  A    between atoms: C_7  and  C_10
REMARK    5  A    between atoms: C_10  and  C_11
REMARK    6  A    between atoms: C_11  and  C_12
REMARK    7  A    between atoms: C_11  and  C_13
REMARK    8  A    between atoms: C_15  and  C_17
REMARK    9  A    between atoms: C_17  and  N_18
REMARK   10  A    between atoms: C_21  and  C_25
REMARK   11  A    between atoms: C_21  and  C_26
REMARK   12  A    between atoms: C_29  and  C_32
REMARK                            x       y       z     vdW  Elec       q    Type
REMARK                         _______ _______ _______ _____ _____    ______ ____
ROOT
ATOM      1  C   UNL     1       0.712  -1.094  -3.598  0.00  0.00    +0.213 C 
ENDROOT
BRANCH   1   2
ATOM      2  N   UNL     1      -0.240  -1.150  -4.711  0.00  0.00    -0.215 N 
ATOM      3  C   UNL     1      -0.988  -2.230  -5.014  0.00  0.00    +0.251 C 
ATOM      4  O   UNL     1      -1.000  -3.297  -4.439  0.00  0.00    -0.272 OA
ATOM      5  C   UNL     1      -1.811  -1.831  -6.223  0.00  0.00    +0.135 C 
ATOM      6  N   UNL     1      -1.392  -0.444  -6.485  0.00  0.00    -0.281 N 
ATOM      7  C   UNL     1      -0.477  -0.134  -5.549  0.00  0.00    +0.310 C 
ATOM      8  O   UNL     1       0.074   0.946  -5.474  0.00  0.00    -0.252 OA
ATOM      9  C   UNL     1      -3.305  -1.891  -5.899  0.00  0.00    +0.047 C 
ATOM     10  H   UNL     1      -1.716   0.135  -7.193  0.00  0.00    +0.152 HD
BRANCH   5  11
ATOM     11  C   UNL     1      -1.487  -2.715  -7.400  0.00  0.00    -0.015 A 
ATOM     12  C   UNL     1      -1.088  -4.023  -7.190  0.00  0.00    +0.007 A 
ATOM     13  C   UNL     1      -0.789  -4.837  -8.263  0.00  0.00    +0.019 A 
ATOM     14  C   UNL     1      -0.891  -4.338  -9.563  0.00  0.00    +0.052 A 
ATOM     15  C   UNL     1      -1.294  -3.017  -9.768  0.00  0.00    +0.019 A 
ATOM     16  C   UNL     1      -1.595  -2.215  -8.686  0.00  0.00    +0.007 A 
BRANCH  14  17
ATOM     17  C   UNL     1      -0.582  -5.177 -10.682  0.00  0.00    +0.099 C 
ATOM     18  N   UNL     1      -0.337  -5.843 -11.569  0.00  0.00    -0.191 NA
ENDBRANCH  14  17
ENDBRANCH   5  11
ENDBRANCH   1   2
BRANCH   1  20
ATOM     19  N   UNL     1       0.688  -0.476  -1.203  0.00  0.00    -0.307 N 
ATOM     20  C   UNL     1       0.006  -0.608  -2.358  0.00  0.00    +0.231 C 
ATOM     21  O   UNL     1      -1.175  -0.336  -2.400  0.00  0.00    -0.274 OA
ATOM     22  H   UNL     1       1.632  -0.695  -1.170  0.00  0.00    +0.149 HD
BRANCH  19  24
ATOM     23  C   UNL     1      -0.019   1.526   0.010  0.00  0.00    +0.033 C 
ATOM     24  C   UNL     1       0.002  -0.004   0.002  0.00  0.00    +0.100 C 
BRANCH  24  25
ATOM     25  C   UNL     1       0.731  -0.503   1.223  0.00  0.00    -0.027 A 
ATOM     26  C   UNL     1       2.113  -0.514   1.247  0.00  0.00    +0.006 A 
ATOM     27  C   UNL     1       2.782  -0.972   2.366  0.00  0.00    +0.004 A 
ATOM     28  C   UNL     1       2.068  -1.419   3.463  0.00  0.00    -0.047 A 
ATOM     29  C   UNL     1       0.686  -1.407   3.439  0.00  0.00    +0.004 A 
ATOM     30  C   UNL     1       0.017  -0.945   2.321  0.00  0.00    +0.006 A 
BRANCH  28  31
ATOM     31  C   UNL     1       2.797  -1.919   4.683  0.00  0.00    +0.038 C 
BRANCH  31  32
ATOM     32  C   UNL     1       3.046  -0.753   5.642  0.00  0.00    -0.013 C 
ATOM     33  C   UNL     1       1.707  -0.223   6.159  0.00  0.00    +0.007 C 
ATOM     34  C   UNL     1       3.893  -1.234   6.822  0.00  0.00    +0.007 C 
ENDBRANCH  31  32
ENDBRANCH  28  31
ENDBRANCH  24  25
ENDBRANCH  19  24
ENDBRANCH   1  20
TORSDOF 8
