REMARK  Name = ZINC35262650
REMARK  11 active torsions:
REMARK  status: ('A' for Active; 'I' for Inactive)
REMARK    1  A    between atoms: C_1  and  C_2
REMARK    2  A    between atoms: N_5  and  S_11
REMARK    3  A    between atoms: C_7  and  C_10
REMARK    4  A    between atoms: S_11  and  C_14
REMARK    5  A    between atoms: C_17  and  C_20
REMARK    6  A    between atoms: N_22  and  C_23
REMARK    7  A    between atoms: C_23  and  C_24
REMARK    8  A    between atoms: C_24  and  C_26
REMARK    9  A    between atoms: C_24  and  N_34
REMARK   10  A    between atoms: N_34  and  C_35
REMARK   11  A    between atoms: N_34  and  C_36
REMARK                            x       y       z     vdW  Elec       q    Type
REMARK                         _______ _______ _______ _____ _____    ______ ____
ROOT
ATOM      1  C   UNL     1       2.415   6.523  -1.492  0.00  0.00    +0.244 C 
ATOM      2  O   UNL     1       1.405   7.069  -1.892  0.00  0.00    -0.270 OA
ATOM      3  N   UNL     1       3.309   7.215  -0.758  0.00  0.00    -0.313 N 
ATOM      4  H   UNL     1       4.115   6.779  -0.439  0.00  0.00    +0.149 HD
ENDROOT
BRANCH   1   8
ATOM      5  C   UNL     1       3.127   2.438  -2.412  0.00  0.00    +0.106 A 
ATOM      6  C   UNL     1       1.976   3.056  -2.868  0.00  0.00    +0.029 A 
ATOM      7  C   UNL     1       1.739   4.383  -2.572  0.00  0.00    +0.015 A 
ATOM      8  C   UNL     1       2.663   5.101  -1.812  0.00  0.00    +0.037 A 
ATOM      9  C   UNL     1       3.821   4.472  -1.355  0.00  0.00    +0.015 A 
ATOM     10  C   UNL     1       4.044   3.143  -1.653  0.00  0.00    +0.029 A 
BRANCH   5  11
ATOM     11  S   UNL     1       3.422   0.743  -2.793  0.00  0.00    +0.061 S 
ATOM     12  O   UNL     1       4.827   0.547  -2.708  0.00  0.00    -0.153 OA
ATOM     13  O   UNL     1       2.684   0.458  -3.973  0.00  0.00    -0.153 OA
BRANCH  11  17
ATOM     14  C   UNL     1       0.509   1.285  -0.271  0.00  0.00    +0.039 C 
ATOM     15  C   UNL     1       0.634  -0.237  -0.363  0.00  0.00    +0.131 C 
ATOM     16  C   UNL     1       1.347  -0.614  -1.667  0.00  0.00    +0.140 C 
ATOM     17  N   UNL     1       2.744  -0.157  -1.580  0.00  0.00    -0.172 NA
ATOM     18  C   UNL     1       3.519  -0.524  -0.385  0.00  0.00    +0.140 C 
ATOM     19  C   UNL     1       2.700  -0.152   0.856  0.00  0.00    +0.131 C 
ATOM     20  O   UNL     1       1.392  -0.722   0.747  0.00  0.00    -0.371 OA
ATOM     21  C   UNL     1       3.392  -0.695   2.108  0.00  0.00    +0.039 C 
ENDBRANCH  11  17
ENDBRANCH   5  11
ENDBRANCH   1   8
BRANCH   3  22
ATOM     22  C   UNL     1       3.063   8.624  -0.442  0.00  0.00    +0.094 C 
BRANCH  22  23
ATOM     23  C   UNL     1       4.160   9.134   0.496  0.00  0.00    -0.017 C 
BRANCH  23  24
ATOM     24  C   UNL     1       5.487   9.100  -0.217  0.00  0.00    -0.006 A 
ATOM     25  C   UNL     1       5.783  10.054  -1.175  0.00  0.00    +0.126 A 
ATOM     26  C   UNL     1       7.003  10.021  -1.829  0.00  0.00    +0.038 A 
ATOM     27  C   UNL     1       7.924   9.036  -1.526  0.00  0.00    +0.004 A 
ATOM     28  C   UNL     1       7.628   8.083  -0.570  0.00  0.00    +0.020 A 
ATOM     29  C   UNL     1       6.412   8.118   0.090  0.00  0.00    +0.045 A 
ATOM     30 CL   UNL     1       6.043   6.925   1.296  0.00  0.00    -0.083 Cl
ATOM     31  F   UNL     1       4.883  11.017  -1.472  0.00  0.00    -0.205 F 
ENDBRANCH  23  24
BRANCH  23  32
ATOM     32  N   UNL     1       3.856  10.514   0.899  0.00  0.00    +0.382 N 
ATOM     33  C   UNL     1       2.624  10.530   1.699  0.00  0.00    -0.096 C 
ATOM     34  C   UNL     1       4.967  11.046   1.700  0.00  0.00    -0.096 C 
ATOM     35  H   UNL     1       3.731  11.085   0.077  0.00  0.00    -0.082 HD
ENDBRANCH  23  32
ENDBRANCH  22  23
ENDBRANCH   3  22
TORSDOF 7
