REMARK  Name = ZINC11052320
REMARK  10 active torsions:
REMARK  status: ('A' for Active; 'I' for Inactive)
REMARK    1  A    between atoms: C_1  and  C_2
REMARK    2  A    between atoms: C_2  and  C_4
REMARK    3  A    between atoms: C_2  and  O_16
REMARK    4  A    between atoms: N_6  and  C_7
REMARK    5  A    between atoms: O_16  and  C_17
REMARK    6  A    between atoms: C_17  and  C_19
REMARK    7  A    between atoms: C_19  and  C_20
REMARK    8  A    between atoms: C_20  and  N_21
REMARK    9  A    between atoms: N_21  and  S_22
REMARK   10  A    between atoms: S_22  and  C_25
REMARK                            x       y       z     vdW  Elec       q    Type
REMARK                         _______ _______ _______ _____ _____    ______ ____
ROOT
ATOM      1  C   UNL     1       3.708   1.530   0.320  0.00  0.00    +0.309 C 
ATOM      2  O   UNL     1       3.705   2.708   0.050  0.00  0.00    -0.251 OA
ENDROOT
BRANCH   1   3
ATOM      3  O   UNL     1       4.861   0.911   0.617  0.00  0.00    -0.452 OA
BRANCH   3   5
ATOM      4  C   UNL     1       6.679   1.685  -0.808  0.00  0.00    +0.062 C 
ATOM      5  C   UNL     1       6.067   1.720   0.594  0.00  0.00    +0.259 C 
BRANCH   5   6
ATOM      6  C   UNL     1       7.058   1.171   1.588  0.00  0.00    +0.258 C 
ATOM      7  O   UNL     1       6.814   0.144   2.184  0.00  0.00    -0.271 OA
ATOM      8  N   UNL     1       8.216   1.822   1.815  0.00  0.00    -0.280 N 
ATOM      9  H   UNL     1       8.441   2.608   1.292  0.00  0.00    +0.155 HD
BRANCH   8  10
ATOM     10  C   UNL     1       9.096   1.364   2.805  0.00  0.00    +0.072 A 
ATOM     11  C   UNL     1       9.222   0.003   3.047  0.00  0.00    +0.029 A 
ATOM     12  C   UNL     1      10.089  -0.448   4.023  0.00  0.00    +0.043 A 
ATOM     13  C   UNL     1      10.835   0.456   4.761  0.00  0.00    +0.161 A 
ATOM     14  C   UNL     1      10.711   1.817   4.524  0.00  0.00    +0.195 A 
ATOM     15  C   UNL     1       9.847   2.272   3.542  0.00  0.00    +0.182 A 
ATOM     16  F   UNL     1       9.731   3.597   3.305  0.00  0.00    -0.200 F 
ATOM     17  F   UNL     1      11.439   2.697   5.245  0.00  0.00    -0.199 F 
ATOM     18  F   UNL     1      11.682   0.012   5.715  0.00  0.00    -0.202 F 
ENDBRANCH   8  10
ENDBRANCH   5   6
ENDBRANCH   3   5
ENDBRANCH   1   3
BRANCH   1  19
ATOM     19  C   UNL     1       2.415   0.755   0.323  0.00  0.00    +0.137 C 
BRANCH  19  20
ATOM     20  C   UNL     1       1.260   1.688  -0.046  0.00  0.00    +0.117 C 
BRANCH  20  21
ATOM     21  N   UNL     1       0.004   0.935  -0.043  0.00  0.00    -0.189 NA
ATOM     22  H   UNL     1       0.019  -0.035  -0.044  0.00  0.00    +0.148 HD
BRANCH  21  23
ATOM     23  S   UNL     1      -1.444   1.740  -0.045  0.00  0.00    +0.058 S 
ATOM     24  O   UNL     1      -2.460   0.747  -0.075  0.00  0.00    -0.153 OA
ATOM     25  O   UNL     1      -1.366   2.719   0.982  0.00  0.00    -0.153 OA
BRANCH  23  26
ATOM     26  C   UNL     1      -1.551   2.616  -1.570  0.00  0.00    +0.106 A 
ATOM     27  C   UNL     1      -1.065   3.920  -1.648  0.00  0.00    +0.029 A 
ATOM     28  C   UNL     1      -1.127   4.623  -2.812  0.00  0.00    +0.010 A 
ATOM     29  C   UNL     1      -1.700   4.032  -3.951  0.00  0.00    -0.018 A 
ATOM     30  C   UNL     1      -1.788   4.729  -5.168  0.00  0.00    +0.008 A 
ATOM     31  C   UNL     1      -2.349   4.125  -6.250  0.00  0.00    +0.001 A 
ATOM     32  C   UNL     1      -2.841   2.822  -6.171  0.00  0.00    +0.001 A 
ATOM     33  C   UNL     1      -2.773   2.118  -5.009  0.00  0.00    +0.008 A 
ATOM     34  C   UNL     1      -2.200   2.708  -3.870  0.00  0.00    -0.016 A 
ATOM     35  C   UNL     1      -2.112   2.012  -2.652  0.00  0.00    +0.037 A 
ENDBRANCH  23  26
ENDBRANCH  21  23
ENDBRANCH  20  21
ENDBRANCH  19  20
ENDBRANCH   1  19
TORSDOF 9
