REMARK  Name = ZINC63731668
REMARK  12 active torsions:
REMARK  status: ('A' for Active; 'I' for Inactive)
REMARK    1  A    between atoms: C_1  and  C_2
REMARK    2  A    between atoms: C_2  and  C_3
REMARK    3  A    between atoms: C_2  and  C_4
REMARK    4  A    between atoms: C_4  and  N_5
REMARK    5  A    between atoms: C_6  and  N_31
REMARK    6  A    between atoms: C_8  and  C_15
REMARK    7  A    between atoms: N_11  and  C_14
REMARK    8  A    between atoms: C_15  and  C_17
REMARK    9  A    between atoms: C_17  and  S_18
REMARK   10  A    between atoms: S_18  and  C_19
REMARK   11  A    between atoms: C_25  and  O_29
REMARK   12  A    between atoms: O_29  and  C_30
REMARK                            x       y       z     vdW  Elec       q    Type
REMARK                         _______ _______ _______ _____ _____    ______ ____
ROOT
ATOM      1  C   UNL     1      -0.730   2.897   4.478  0.00  0.00    +0.177 C 
ATOM      2  O   UNL     1      -0.127   3.790   3.914  0.00  0.00    -0.291 OA
ENDROOT
BRANCH   1   5
ATOM      3  N   UNL     1       0.231  -0.171   2.385  0.00  0.00    -0.265 N 
ATOM      4  C   UNL     1       0.244   1.232   2.831  0.00  0.00    +0.182 C 
ATOM      5  C   UNL     1      -0.671   1.595   3.983  0.00  0.00    +0.093 C 
ATOM      6  C   UNL     1      -1.445   0.588   4.523  0.00  0.00    +0.256 C 
ATOM      7  O   UNL     1      -2.276   0.861   5.549  0.00  0.00    -0.270 OA
ATOM      8  N   UNL     1      -1.377  -0.684   4.027  0.00  0.00    -0.225 N 
ATOM      9  C   UNL     1      -0.585  -1.042   3.009  0.00  0.00    +0.313 C 
ATOM     10  O   UNL     1      -0.599  -2.199   2.636  0.00  0.00    -0.252 OA
ATOM     11  C   UNL     1      -2.221  -1.712   4.641  0.00  0.00    +0.143 C 
BRANCH   4  12
ATOM     12  N   UNL     1       1.619   1.568   3.223  0.00  0.00    -0.309 NA
ATOM     13  H   UNL     1       1.703   2.550   3.440  0.00  0.00    +0.120 HD
ATOM     14  H   UNL     1       1.924   0.999   3.998  0.00  0.00    +0.120 HD
ENDBRANCH   4  12
BRANCH   3  15
ATOM     15  C   UNL     1       1.084  -0.610   1.278  0.00  0.00    +0.114 C 
BRANCH  15  17
ATOM     16  C   UNL     1       2.364  -2.157   2.764  0.00  0.00    +0.009 C 
ATOM     17  C   UNL     1       2.473  -0.964   1.813  0.00  0.00    +0.000 C 
ATOM     18  C   UNL     1       3.393  -1.325   0.645  0.00  0.00    +0.009 C 
ENDBRANCH  15  17
ENDBRANCH   3  15
ENDBRANCH   1   5
BRANCH   1  19
ATOM     19  C   UNL     1      -1.540   3.197   5.713  0.00  0.00    +0.152 C 
BRANCH  19  20
ATOM     20  S   UNL     1      -1.379   4.956   6.128  0.00  0.00    -0.107 S 
BRANCH  20  21
ATOM     21  C   UNL     1      -2.398   5.151   7.616  0.00  0.00    +0.236 C 
ATOM     22  N   UNL     1      -1.925   4.248   8.672  0.00  0.00    -0.355 N 
ATOM     23  C   UNL     1      -2.904   3.441   8.966  0.00  0.00    +0.061 A 
ATOM     24  C   UNL     1      -3.020   2.339   9.933  0.00  0.00    +0.031 A 
ATOM     25  C   UNL     1      -4.175   1.655  10.030  0.00  0.00    +0.048 A 
ATOM     26  C   UNL     1      -5.330   1.971   9.200  0.00  0.00    +0.122 A 
ATOM     27  C   UNL     1      -5.301   2.971   8.286  0.00  0.00    +0.073 A 
ATOM     28  C   UNL     1      -4.082   3.765   8.117  0.00  0.00    +0.064 A 
ATOM     29  N   UNL     1      -3.785   4.765   7.330  0.00  0.00    -0.355 N 
ATOM     30  H   UNL     1      -1.044   4.253   9.078  0.00  0.00    +0.162 HD
ATOM     31  H   UNL     1      -4.373   5.176   6.677  0.00  0.00    +0.162 HD
BRANCH  26  32
ATOM     32  O   UNL     1      -6.465   1.243   9.345  0.00  0.00    -0.495 OA
ATOM     33  C   UNL     1      -6.447   0.199  10.320  0.00  0.00    +0.277 C 
ENDBRANCH  26  32
ENDBRANCH  20  21
ENDBRANCH  19  20
ENDBRANCH   1  19
TORSDOF 8
