REMARK  Name = ZINC27582390
REMARK  8 active torsions:
REMARK  status: ('A' for Active; 'I' for Inactive)
REMARK    1  A    between atoms: C_1  and  C_2
REMARK    2  A    between atoms: C_5  and  C_9
REMARK    3  A    between atoms: C_7  and  C_8
REMARK    4  A    between atoms: C_11  and  C_14
REMARK    5  A    between atoms: N_16  and  C_17
REMARK    6  A    between atoms: C_18  and  C_25
REMARK    7  A    between atoms: N_27  and  C_28
REMARK    8  A    between atoms: C_28  and  C_29
REMARK                            x       y       z     vdW  Elec       q    Type
REMARK                         _______ _______ _______ _____ _____    ______ ____
ROOT
ATOM      1  C   UNL     1      -0.342   6.399  -2.780  0.00  0.00    +0.085 A 
ATOM      2  C   UNL     1      -1.364   5.665  -2.202  0.00  0.00    +0.069 A 
ATOM      3  C   UNL     1      -2.455   6.404  -1.569  0.00  0.00    -0.023 A 
ATOM      4  C   UNL     1      -2.345   7.744  -1.626  0.00  0.00    -0.004 A 
ATOM      5  S   UNL     1      -0.826   8.037  -2.498  0.00  0.00    -0.077 S 
ATOM      6  C   UNL     1      -3.504   8.433  -0.957  0.00  0.00    +0.043 C 
ATOM      7  C   UNL     1      -4.591   7.342  -0.839  0.00  0.00    +0.010 C 
ATOM      8  C   UNL     1      -3.743   6.055  -0.823  0.00  0.00    +0.037 C 
ENDROOT
BRANCH   1  11
ATOM      9  C   UNL     1       1.684   6.811  -3.933  0.00  0.00    +0.270 C 
ATOM     10  O   UNL     1       1.495   8.005  -3.818  0.00  0.00    -0.268 OA
ATOM     11  N   UNL     1       0.791   5.936  -3.429  0.00  0.00    -0.274 N 
ATOM     12  H   UNL     1       0.962   4.854  -3.532  0.00  0.00    +0.156 HD
BRANCH   9  15
ATOM     13  C   UNL     1       4.798   6.176  -5.712  0.00  0.00    +0.168 A 
ATOM     14  C   UNL     1       3.923   7.101  -5.213  0.00  0.00    +0.086 A 
ATOM     15  C   UNL     1       2.897   6.315  -4.626  0.00  0.00    +0.169 A 
ATOM     16  N   UNL     1       3.233   5.063  -4.825  0.00  0.00    -0.073 NA
ATOM     17  O   UNL     1       4.279   4.969  -5.423  0.00  0.00    -0.354 OA
BRANCH  13  22
ATOM     18  C   UNL     1       9.715   7.236  -8.507  0.00  0.00    +0.044 C 
ATOM     19  C   UNL     1       8.427   6.958  -7.776  0.00  0.00    -0.047 A 
ATOM     20  C   UNL     1       7.649   8.011  -7.327  0.00  0.00    +0.004 A 
ATOM     21  C   UNL     1       6.469   7.764  -6.656  0.00  0.00    +0.012 A 
ATOM     22  C   UNL     1       6.061   6.448  -6.430  0.00  0.00    +0.020 A 
ATOM     23  C   UNL     1       6.853   5.391  -6.881  0.00  0.00    +0.015 A 
ATOM     24  C   UNL     1       8.028   5.652  -7.554  0.00  0.00    -0.047 A 
ATOM     25  C   UNL     1       8.883   4.512  -8.045  0.00  0.00    +0.044 C 
ENDBRANCH  13  22
ENDBRANCH   9  15
ENDBRANCH   1  11
BRANCH   2  26
ATOM     26  C   UNL     1      -1.349   4.199  -2.219  0.00  0.00    +0.247 C 
ATOM     27  O   UNL     1      -1.870   3.595  -3.139  0.00  0.00    -0.270 OA
ATOM     28  N   UNL     1      -0.759   3.519  -1.216  0.00  0.00    -0.309 N 
ATOM     29  H   UNL     1      -0.289   4.064  -0.384  0.00  0.00    +0.149 HD
BRANCH  28  30
ATOM     30  C   UNL     1      -0.745   2.054  -1.233  0.00  0.00    +0.136 C 
BRANCH  30  31
ATOM     31  C   UNL     1      -0.019   1.537   0.011  0.00  0.00    +0.135 C 
ATOM     32  C   UNL     1       0.002  -0.004   0.002  0.00  0.00    +0.035 C 
ATOM     33  C   UNL     1       1.508  -0.363   0.039  0.00  0.00    +0.031 C 
ATOM     34  C   UNL     1       2.138   0.935   0.603  0.00  0.00    +0.160 C 
ATOM     35  O   UNL     1       1.348   1.983  -0.000  0.00  0.00    -0.375 OA
ENDBRANCH  30  31
ENDBRANCH  28  30
ENDBRANCH   2  26
TORSDOF 6
