REMARK  Name = ZINC39680684
REMARK  7 active torsions:
REMARK  status: ('A' for Active; 'I' for Inactive)
REMARK    1  A    between atoms: C_1  and  N_2
REMARK    2  A    between atoms: N_2  and  C_3
REMARK    3  A    between atoms: C_4  and  C_6
REMARK    4  A    between atoms: C_6  and  N_7
REMARK    5  A    between atoms: C_8  and  C_10
REMARK    6  A    between atoms: C_21  and  C_23
REMARK    7  A    between atoms: C_26  and  C_28
REMARK                            x       y       z     vdW  Elec       q    Type
REMARK                         _______ _______ _______ _____ _____    ______ ____
ROOT
ATOM      1  C   UNL     1       0.023  -4.478  -4.238  0.00  0.00    +0.100 C 
ATOM      2  C   UNL     1       1.236  -3.912  -5.010  0.00  0.00    +0.121 C 
ATOM      3  N   UNL     1       2.269  -4.969  -4.910  0.00  0.00    -0.294 N 
ATOM      4  C   UNL     1       1.515  -6.237  -5.059  0.00  0.00    +0.115 C 
ATOM      5  C   UNL     1       0.208  -6.004  -4.275  0.00  0.00    -0.004 C 
ATOM      6  C   UNL     1      -0.965  -6.661  -4.997  0.00  0.00    -0.010 C 
ATOM      7  C   UNL     1      -0.787  -8.182  -4.970  0.00  0.00    -0.082 C 
ATOM      8  N   UNL     1      -0.722  -8.644  -3.579  0.00  0.00    +0.379 N 
ATOM      9  C   UNL     1       0.461  -8.080  -2.919  0.00  0.00    -0.082 C 
ATOM     10  C   UNL     1       0.337  -6.555  -2.859  0.00  0.00    -0.010 C 
ATOM     11  C   UNL     1       3.595  -4.813  -4.727  0.00  0.00    +0.282 C 
ATOM     12  O   UNL     1       4.320  -5.789  -4.666  0.00  0.00    -0.267 OA
ATOM     13  H   UNL     1      -1.553  -8.348  -3.088  0.00  0.00    -0.086 HD
ATOM     14  H   UNL     1      -0.667  -9.652  -3.563  0.00  0.00    -0.086 HD
ENDROOT
BRANCH  11  15
ATOM     15  C   UNL     1       4.164  -3.469  -4.601  0.00  0.00    +0.190 A 
ATOM     16  C   UNL     1       5.497  -3.169  -4.417  0.00  0.00    +0.055 A 
ATOM     17  C   UNL     1       5.590  -1.775  -4.350  0.00  0.00    +0.051 A 
ATOM     18  C   UNL     1       4.326  -1.280  -4.495  0.00  0.00    +0.139 A 
ATOM     19  O   UNL     1       3.476  -2.309  -4.650  0.00  0.00    -0.450 OA
BRANCH  18  20
ATOM     20  C   UNL     1       3.955   0.149  -4.487  0.00  0.00    +0.052 A 
ATOM     21  C   UNL     1       4.409   0.987  -3.466  0.00  0.00    +0.014 A 
ATOM     22  C   UNL     1       4.059   2.320  -3.465  0.00  0.00    +0.001 A 
ATOM     23  C   UNL     1       3.259   2.831  -4.473  0.00  0.00    +0.003 A 
ATOM     24  C   UNL     1       2.804   2.009  -5.487  0.00  0.00    +0.039 A 
ATOM     25  C   UNL     1       3.151   0.672  -5.506  0.00  0.00    +0.134 A 
ATOM     26  F   UNL     1       2.712  -0.130  -6.501  0.00  0.00    -0.205 F 
ENDBRANCH  18  20
ENDBRANCH  11  15
BRANCH   1  28
ATOM     27  N   UNL     1      -1.131  -3.851  -2.142  0.00  0.00    -0.306 N 
ATOM     28  C   UNL     1       0.030  -3.983  -2.814  0.00  0.00    +0.219 C 
ATOM     29  O   UNL     1       1.079  -3.704  -2.274  0.00  0.00    -0.275 OA
ATOM     30  H   UNL     1      -1.970  -4.074  -2.573  0.00  0.00    +0.149 HD
BRANCH  27  31
ATOM     31  C   UNL     1      -1.124  -3.370  -0.758  0.00  0.00    +0.200 C 
BRANCH  31  35
ATOM     32  C   UNL     1      -4.152  -2.842   1.525  0.00  0.00    +0.131 C 
ATOM     33  N   UNL     1      -2.777  -2.897   1.020  0.00  0.00    -0.306 N 
ATOM     34  C   UNL     1      -1.663  -2.500   1.885  0.00  0.00    +0.131 C 
ATOM     35  C   UNL     1      -2.538  -3.313  -0.239  0.00  0.00    +0.232 C 
ATOM     36  O   UNL     1      -3.460  -3.642  -0.955  0.00  0.00    -0.274 OA
ENDBRANCH  31  35
ENDBRANCH  27  31
ENDBRANCH   1  28
TORSDOF 5
