REMARK  Name = ZINC09685603
REMARK  10 active torsions:
REMARK  status: ('A' for Active; 'I' for Inactive)
REMARK    1  A    between atoms: C_1  and  C_2
REMARK    2  A    between atoms: C_7  and  S_8
REMARK    3  A    between atoms: S_8  and  N_11
REMARK    4  A    between atoms: N_11  and  C_12
REMARK    5  A    between atoms: C_13  and  O_21
REMARK    6  A    between atoms: C_15  and  O_19
REMARK    7  A    between atoms: O_19  and  C_20
REMARK    8  A    between atoms: O_21  and  C_22
REMARK    9  A    between atoms: C_30  and  C_32
REMARK   10  A    between atoms: C_30  and  C_33
REMARK                            x       y       z     vdW  Elec       q    Type
REMARK                         _______ _______ _______ _____ _____    ______ ____
ROOT
ATOM      1  C   UNL     1       4.581   5.110  -0.343  0.00  0.00    +0.046 C 
ATOM      2  C   UNL     1       3.385   4.200  -0.234  0.00  0.00    -0.023 A 
ATOM      3  C   UNL     1       2.116   4.735  -0.203  0.00  0.00    +0.016 A 
ATOM      4  C   UNL     1       1.011   3.893  -0.103  0.00  0.00    +0.011 A 
ATOM      5  C   UNL     1       1.195   2.500  -0.034  0.00  0.00    +0.049 A 
ATOM      6  C   UNL     1       2.484   1.980  -0.067  0.00  0.00    +0.055 A 
ATOM      7  C   UNL     1       3.567   2.826  -0.166  0.00  0.00    +0.113 A 
ATOM      8  N   UNL     1      -0.054   1.912   0.059  0.00  0.00    -0.357 N 
ATOM      9  H   UNL     1      -0.210   0.956   0.117  0.00  0.00    +0.166 HD
ATOM     10  C   UNL     1      -1.016   2.843   0.052  0.00  0.00    +0.028 A 
ATOM     11  C   UNL     1      -0.438   4.099  -0.046  0.00  0.00    +0.046 A 
ATOM     12  C   UNL     1      -1.200   5.292  -0.080  0.00  0.00    +0.166 C 
ATOM     13  O   UNL     1      -0.665   6.380  -0.133  0.00  0.00    -0.292 OA
ATOM     14  C   UNL     1      -2.708   5.161  -0.046  0.00  0.00    +0.086 C 
ATOM     15  C   UNL     1      -3.108   3.932   0.770  0.00  0.00    -0.023 C 
ATOM     16  C   UNL     1      -2.513   2.660   0.155  0.00  0.00    +0.060 C 
ATOM     17  C   UNL     1      -2.594   4.088   2.203  0.00  0.00    +0.011 C 
ATOM     18  C   UNL     1      -4.634   3.815   0.792  0.00  0.00    +0.011 C 
ENDROOT
BRANCH   7  19
ATOM     19  S   UNL     1       5.197   2.158  -0.207  0.00  0.00    +0.073 S 
ATOM     20  O   UNL     1       5.961   2.893   0.740  0.00  0.00    -0.150 OA
ATOM     21  O   UNL     1       5.059   0.746  -0.143  0.00  0.00    -0.150 OA
BRANCH  19  22
ATOM     22  N   UNL     1       5.831   2.505  -1.697  0.00  0.00    -0.211 N 
ATOM     23  H   UNL     1       6.578   3.119  -1.776  0.00  0.00    +0.174 HD
BRANCH  22  24
ATOM     24  C   UNL     1       5.288   1.911  -2.846  0.00  0.00    +0.108 A 
ATOM     25  C   UNL     1       5.308   0.525  -2.990  0.00  0.00    +0.147 A 
ATOM     26  C   UNL     1       4.766  -0.059  -4.123  0.00  0.00    +0.093 A 
ATOM     27  C   UNL     1       4.214   0.736  -5.117  0.00  0.00    +0.125 A 
ATOM     28  C   UNL     1       4.199   2.115  -4.975  0.00  0.00    +0.067 A 
ATOM     29  C   UNL     1       4.734   2.702  -3.842  0.00  0.00    +0.070 A 
ATOM     30 CL   UNL     1       4.714   4.429  -3.667  0.00  0.00    -0.081 Cl
BRANCH  27  31
ATOM     31  O   UNL     1       3.686   0.162  -6.231  0.00  0.00    -0.495 OA
ATOM     32  C   UNL     1       3.134   1.041  -7.213  0.00  0.00    +0.277 C 
ENDBRANCH  27  31
BRANCH  25  33
ATOM     33  O   UNL     1       5.855  -0.253  -2.018  0.00  0.00    -0.493 OA
ATOM     34  C   UNL     1       5.841  -1.665  -2.234  0.00  0.00    +0.277 C 
ENDBRANCH  25  33
ENDBRANCH  22  24
ENDBRANCH  19  22
ENDBRANCH   7  19
TORSDOF 5
