REMARK  Name = ZINC15028649
REMARK  10 active torsions:
REMARK  status: ('A' for Active; 'I' for Inactive)
REMARK    1  A    between atoms: C_1  and  C_2
REMARK    2  A    between atoms: C_2  and  C_4
REMARK    3  A    between atoms: C_2  and  N_15
REMARK    4  A    between atoms: N_6  and  C_7
REMARK    5  A    between atoms: N_15  and  C_16
REMARK    6  A    between atoms: N_15  and  C_17
REMARK    7  A    between atoms: C_17  and  C_18
REMARK    8  A    between atoms: N_20  and  C_21
REMARK    9  A    between atoms: C_21  and  C_22
REMARK   10  A    between atoms: C_21  and  C_23
REMARK                            x       y       z     vdW  Elec       q    Type
REMARK                         _______ _______ _______ _____ _____    ______ ____
ROOT
ATOM      1  C   UNL     1       0.243   1.586  -0.041  0.00  0.00    -0.004 C 
ATOM      2  C   UNL     1       0.068   0.066   0.004  0.00  0.00    +0.017 C 
ENDROOT
BRANCH   2   3
ATOM      3  C   UNL     1      -1.387  -0.278  -0.181  0.00  0.00    +0.203 C 
ATOM      4  O   UNL     1      -1.770  -0.751  -1.230  0.00  0.00    -0.277 OA
ATOM      5  N   UNL     1      -2.264  -0.060   0.819  0.00  0.00    -0.285 N 
ATOM      6  H   UNL     1      -1.973   0.386   1.630  0.00  0.00    +0.155 HD
BRANCH   5   7
ATOM      7  C   UNL     1      -3.595  -0.477   0.687  0.00  0.00    +0.069 A 
ATOM      8  C   UNL     1      -4.211  -0.453  -0.556  0.00  0.00    +0.027 A 
ATOM      9  C   UNL     1      -5.524  -0.865  -0.684  0.00  0.00    +0.017 A 
ATOM     10  C   UNL     1      -6.225  -1.300   0.426  0.00  0.00    +0.021 A 
ATOM     11  C   UNL     1      -5.615  -1.326   1.668  0.00  0.00    +0.055 A 
ATOM     12  C   UNL     1      -4.299  -0.921   1.801  0.00  0.00    +0.146 A 
ATOM     13  F   UNL     1      -3.701  -0.951   3.012  0.00  0.00    -0.204 F 
ATOM     14 BR   UNL     1      -8.022  -1.862   0.246  0.00  0.00    -0.050 Br
ENDBRANCH   5   7
ENDBRANCH   2   3
BRANCH   2  15
ATOM     15  N   UNL     1       0.858  -0.549  -1.071  0.00  0.00    +0.391 N 
ATOM     16  C   UNL     1       0.799  -2.012  -0.946  0.00  0.00    -0.094 C 
ATOM     17  H   UNL     1       0.481  -0.273  -1.965  0.00  0.00    -0.080 HD
BRANCH  15  18
ATOM     18  C   UNL     1       2.254  -0.105  -0.969  0.00  0.00    +0.019 C 
BRANCH  18  19
ATOM     19  C   UNL     1       3.037  -0.637  -2.141  0.00  0.00    +0.197 C 
ATOM     20  O   UNL     1       2.487  -1.320  -2.979  0.00  0.00    -0.278 OA
ATOM     21  N   UNL     1       4.350  -0.355  -2.259  0.00  0.00    -0.315 N 
ATOM     22  H   UNL     1       4.790   0.191  -1.589  0.00  0.00    +0.149 HD
BRANCH  21  23
ATOM     23  C   UNL     1       5.112  -0.872  -3.398  0.00  0.00    +0.067 C 
ATOM     24  C   UNL     1       4.952   0.073  -4.590  0.00  0.00    +0.027 C 
ATOM     25  C   UNL     1       6.591  -0.971  -3.020  0.00  0.00    +0.027 C 
ENDBRANCH  21  23
ENDBRANCH  18  19
ENDBRANCH  15  18
ENDBRANCH   2  15
TORSDOF 6
