REMARK  Name = ZINC39276818
REMARK  8 active torsions:
REMARK  status: ('A' for Active; 'I' for Inactive)
REMARK    1  A    between atoms: C_1  and  C_2
REMARK    2  A    between atoms: C_2  and  C_38
REMARK    3  A    between atoms: C_11  and  S_27
REMARK    4  A    between atoms: C_14  and  N_20
REMARK    5  A    between atoms: C_16  and  C_18
REMARK    6  A    between atoms: N_20  and  C_21
REMARK    7  A    between atoms: S_27  and  C_28
REMARK    8  A    between atoms: C_28  and  C_29
REMARK                            x       y       z     vdW  Elec       q    Type
REMARK                         _______ _______ _______ _____ _____    ______ ____
ROOT
ATOM      1  C   UNL     1       0.089   1.715  -0.967  0.00  0.00    +0.041 C 
ATOM      2  C   UNL     1       0.100   0.196  -0.782  0.00  0.00    +0.068 C 
ATOM      3  C   UNL     1       0.661  -0.472  -2.037  0.00  0.00    +0.067 C 
ATOM      4  C   UNL     1       0.932  -1.931  -1.766  0.00  0.00    -0.038 C 
ATOM      5  C   UNL     1       0.996  -2.399  -0.521  0.00  0.00    +0.020 C 
ATOM      6  C   UNL     1       0.837  -1.527   0.689  0.00  0.00    +0.199 C 
ATOM      7  O   UNL     1       0.939  -0.149   0.327  0.00  0.00    -0.369 OA
ATOM      8  C   UNL     1       1.198  -3.857  -0.355  0.00  0.00    +0.148 C 
ATOM      9  N   UNL     1       1.608  -4.519   0.666  0.00  0.00    -0.169 NA
ATOM     10  N   UNL     1       1.650  -5.897   0.407  0.00  0.00    -0.237 N 
ATOM     11  C   UNL     1       1.193  -6.075  -0.987  0.00  0.00    +0.238 C 
ATOM     12  N   UNL     1       0.919  -4.720  -1.436  0.00  0.00    -0.265 N 
ATOM     13  C   UNL     1       0.450  -4.197  -2.721  0.00  0.00    +0.183 C 
ATOM     14  C   UNL     1       1.163  -2.853  -2.943  0.00  0.00    +0.156 C 
ATOM     15  C   UNL     1      -1.324  -0.302  -0.525  0.00  0.00    +0.041 C 
ATOM     16  H   UNL     1       1.926  -6.596   1.021  0.00  0.00    +0.171 HD
ENDROOT
BRANCH  14  17
ATOM     17  C   UNL     1       2.608  -3.089  -3.099  0.00  0.00    +0.074 C 
ATOM     18  N   UNL     1       3.723  -3.272  -3.219  0.00  0.00    -0.196 NA
ENDBRANCH  14  17
BRANCH  13  19
ATOM     19  N   UNL     1      -1.001  -3.994  -2.679  0.00  0.00    -0.324 N 
ATOM     20  H   UNL     1      -1.371  -3.234  -2.204  0.00  0.00    +0.148 HD
BRANCH  19  21
ATOM     21  C   UNL     1      -1.851  -4.896  -3.323  0.00  0.00    +0.028 A 
ATOM     22  C   UNL     1      -3.210  -4.625  -3.419  0.00  0.00    +0.023 A 
ATOM     23  C   UNL     1      -4.047  -5.519  -4.057  0.00  0.00    +0.002 A 
ATOM     24  C   UNL     1      -3.534  -6.683  -4.600  0.00  0.00    +0.000 A 
ATOM     25  C   UNL     1      -2.182  -6.956  -4.506  0.00  0.00    +0.002 A 
ATOM     26  C   UNL     1      -1.338  -6.064  -3.874  0.00  0.00    +0.023 A 
ENDBRANCH  19  21
ENDBRANCH  13  19
BRANCH  11  27
ATOM     27  S   UNL     1       2.497  -6.833  -1.994  0.00  0.00    -0.110 S 
BRANCH  27  28
ATOM     28  C   UNL     1       2.483  -8.576  -1.492  0.00  0.00    +0.146 C 
BRANCH  28  29
ATOM     29  C   UNL     1       3.447  -9.354  -2.350  0.00  0.00    +0.118 A 
ATOM     30  N   UNL     1       4.705  -9.543  -2.073  0.00  0.00    -0.232 NA
ATOM     31  C   UNL     1       5.281 -10.285  -3.054  0.00  0.00    +0.089 A 
ATOM     32  C   UNL     1       6.574 -10.771  -3.260  0.00  0.00    +0.030 A 
ATOM     33  C   UNL     1       6.855 -11.509  -4.375  0.00  0.00    +0.002 A 
ATOM     34  C   UNL     1       5.866 -11.782  -5.310  0.00  0.00    +0.002 A 
ATOM     35  C   UNL     1       4.583 -11.313  -5.127  0.00  0.00    +0.028 A 
ATOM     36  C   UNL     1       4.279 -10.562  -4.000  0.00  0.00    +0.066 A 
ATOM     37  N   UNL     1       3.130  -9.964  -3.523  0.00  0.00    -0.341 N 
ATOM     38  H   UNL     1       2.257  -9.975  -3.948  0.00  0.00    +0.167 HD
ENDBRANCH  28  29
ENDBRANCH  27  28
ENDBRANCH  11  27
TORSDOF 6
