REMARK  Name = ZINC25040644
REMARK  7 active torsions:
REMARK  status: ('A' for Active; 'I' for Inactive)
REMARK    1  A    between atoms: C_1  and  C_2
REMARK    2  A    between atoms: C_4  and  N_28
REMARK    3  A    between atoms: C_6  and  S_8
REMARK    4  A    between atoms: S_8  and  C_9
REMARK    5  A    between atoms: C_9  and  C_10
REMARK    6  A    between atoms: N_12  and  C_13
REMARK    7  A    between atoms: C_13  and  C_18
REMARK                            x       y       z     vdW  Elec       q    Type
REMARK                         _______ _______ _______ _____ _____    ______ ____
ROOT
ATOM      1  C   UNL     1       0.855  -6.376   2.632  0.00  0.00    +0.224 C 
ATOM      2  O   UNL     1       1.888  -7.012   2.647  0.00  0.00    -0.275 OA
ATOM      3  N   UNL     1      -0.095  -6.612   3.558  0.00  0.00    -0.305 N 
ATOM      4  H   UNL     1      -0.889  -6.055   3.590  0.00  0.00    +0.150 HD
ENDROOT
BRANCH   3   5
ATOM      5  C   UNL     1       0.070  -7.708   4.515  0.00  0.00    +0.060 C 
ATOM      6  C   UNL     1      -1.226  -7.899   5.330  0.00  0.00    +0.030 C 
ATOM      7  C   UNL     1      -1.982  -9.025   4.582  0.00  0.00    +0.002 C 
ATOM      8  C   UNL     1      -0.839  -9.977   4.151  0.00  0.00    +0.002 C 
ATOM      9  C   UNL     1       0.316  -9.030   3.765  0.00  0.00    +0.030 C 
BRANCH   5  10
ATOM     10  C   UNL     1       1.224  -7.417   5.439  0.00  0.00    -0.020 A 
ATOM     11  C   UNL     1       1.833  -8.448   6.130  0.00  0.00    +0.009 A 
ATOM     12  C   UNL     1       2.890  -8.184   6.980  0.00  0.00    +0.050 A 
ATOM     13  C   UNL     1       3.344  -6.884   7.142  0.00  0.00    +0.162 A 
ATOM     14  C   UNL     1       2.733  -5.847   6.446  0.00  0.00    +0.162 A 
ATOM     15  C   UNL     1       1.675  -6.119   5.591  0.00  0.00    +0.055 A 
ATOM     16  O   UNL     1       3.168  -4.565   6.584  0.00  0.00    -0.485 OA
ATOM     17  C   UNL     1       3.987  -4.282   7.723  0.00  0.00    +0.270 C 
ATOM     18  C   UNL     1       5.052  -5.382   7.835  0.00  0.00    +0.270 C 
ATOM     19  O   UNL     1       4.383  -6.639   7.985  0.00  0.00    -0.485 OA
ENDBRANCH   5  10
ENDBRANCH   3   5
BRANCH   1  20
ATOM     20  C   UNL     1       0.636  -5.322   1.578  0.00  0.00    +0.173 C 
BRANCH  20  21
ATOM     21  S   UNL     1       2.085  -5.244   0.489  0.00  0.00    -0.077 S 
BRANCH  21  27
ATOM     22  C   UNL     1       3.276  -2.395  -3.592  0.00  0.00    +0.066 C 
ATOM     23  C   UNL     1       2.278  -2.734  -2.515  0.00  0.00    +0.044 A 
ATOM     24  C   UNL     1       1.071  -2.065  -2.447  0.00  0.00    +0.066 A 
ATOM     25  C   UNL     1       0.174  -2.410  -1.434  0.00  0.00    +0.121 A 
ATOM     26  N   UNL     1       0.510  -3.365  -0.573  0.00  0.00    -0.207 NA
ATOM     27  C   UNL     1       1.678  -3.983  -0.672  0.00  0.00    +0.191 A 
ATOM     28  N   UNL     1       2.546  -3.680  -1.627  0.00  0.00    -0.227 NA
BRANCH  25  29
ATOM     29  N   UNL     1      -1.048  -1.765  -1.327  0.00  0.00    -0.343 N 
ATOM     30  H   UNL     1      -1.285  -1.069  -1.959  0.00  0.00    +0.144 HD
ATOM     31  H   UNL     1      -1.665  -2.011  -0.620  0.00  0.00    +0.144 HD
ENDBRANCH  25  29
ENDBRANCH  21  27
ENDBRANCH  20  21
ENDBRANCH   1  20
TORSDOF 6
