REMARK  Name = ZINC06442921
REMARK  10 active torsions:
REMARK  status: ('A' for Active; 'I' for Inactive)
REMARK    1  A    between atoms: C_1  and  C_2
REMARK    2  A    between atoms: C_6  and  N_9
REMARK    3  A    between atoms: C_7  and  C_8
REMARK    4  A    between atoms: C_14  and  C_16
REMARK    5  A    between atoms: C_14  and  C_30
REMARK    6  A    between atoms: C_14  and  N_75
REMARK    7  A    between atoms: C_20  and  C_29
REMARK    8  A    between atoms: C_21  and  C_28
REMARK    9  A    between atoms: N_34  and  C_35
REMARK   10  A    between atoms: C_35  and  C_36
REMARK                            x       y       z     vdW  Elec       q    Type
REMARK                         _______ _______ _______ _____ _____    ______ ____
ROOT
ATOM      1  C   UNL     1       1.926   6.393  -1.845  0.00  0.00    +0.039 C 
ENDROOT
BRANCH   1   2
ATOM      2  C   UNL     1       0.630   6.073  -2.546  0.00  0.00    +0.011 A 
ATOM      3  C   UNL     1       0.392   4.811  -2.982  0.00  0.00    +0.017 A 
ATOM      4  C   UNL     1      -0.877   4.534  -3.658  0.00  0.00    -0.001 A 
ATOM      5  C   UNL     1      -1.179   3.252  -4.130  0.00  0.00    +0.013 A 
ATOM      6  C   UNL     1      -2.372   3.025  -4.757  0.00  0.00    -0.047 A 
ATOM      7  C   UNL     1      -3.286   4.056  -4.931  0.00  0.00    -0.046 A 
ATOM      8  C   UNL     1      -3.009   5.326  -4.474  0.00  0.00    +0.030 A 
ATOM      9  C   UNL     1      -1.801   5.581  -3.832  0.00  0.00    +0.049 A 
ATOM     10  N   UNL     1      -1.498   6.842  -3.366  0.00  0.00    -0.322 N 
ATOM     11  H   UNL     1      -2.135   7.563  -3.487  0.00  0.00    +0.169 HD
ATOM     12  C   UNL     1      -0.333   7.086  -2.740  0.00  0.00    +0.251 A 
ATOM     13  O   UNL     1      -0.100   8.213  -2.336  0.00  0.00    -0.268 OA
ATOM     14  C   UNL     1      -4.595   3.783  -5.626  0.00  0.00    +0.044 C 
ATOM     15  C   UNL     1      -2.698   1.645  -5.266  0.00  0.00    +0.044 C 
ENDBRANCH   1   2
BRANCH   1  21
ATOM     16  N   UNL     1       4.830   8.447  -4.123  0.00  0.00    -0.333 N 
ATOM     17  C   UNL     1       4.619   8.872  -2.732  0.00  0.00    +0.086 C 
ATOM     18  C   UNL     1       3.931   7.746  -1.957  0.00  0.00    -0.058 C 
ATOM     19  C   UNL     1       2.864   6.994  -3.995  0.00  0.00    -0.058 C 
ATOM     20  C   UNL     1       3.552   8.120  -4.771  0.00  0.00    +0.086 C 
ATOM     21  N   UNL     1       2.638   7.442  -2.605  0.00  0.00    +0.391 N 
ATOM     22  H   UNL     1       2.062   8.293  -2.618  0.00  0.00    -0.080 HD
BRANCH  16  28
ATOM     23  C   UNL     1       8.759   9.764  -6.764  0.00  0.00    +0.044 C 
ATOM     24  C   UNL     1       7.429  10.090  -6.136  0.00  0.00    -0.046 A 
ATOM     25  C   UNL     1       6.891  11.356  -6.274  0.00  0.00    +0.004 A 
ATOM     26  C   UNL     1       5.670  11.659  -5.700  0.00  0.00    +0.002 A 
ATOM     27  C   UNL     1       4.984  10.696  -4.986  0.00  0.00    +0.023 A 
ATOM     28  C   UNL     1       5.521   9.423  -4.845  0.00  0.00    +0.033 A 
ATOM     29  C   UNL     1       6.751   9.124  -5.419  0.00  0.00    -0.027 A 
ATOM     30  C   UNL     1       7.341   7.746  -5.263  0.00  0.00    +0.046 C 
ENDBRANCH  16  28
ENDBRANCH   1  21
BRANCH   1  31
ATOM     31  C   UNL     1       2.767   5.146  -1.752  0.00  0.00    +0.143 A 
ATOM     32  N   UNL     1       3.389   4.546  -2.738  0.00  0.00    -0.115 NA
ATOM     33  N   UNL     1       3.998   3.517  -2.257  0.00  0.00    -0.023 NA
ATOM     34  N   UNL     1       3.785   3.449  -0.989  0.00  0.00    -0.044 NA
ATOM     35  N   UNL     1       3.026   4.432  -0.641  0.00  0.00    -0.226 N 
BRANCH  35  36
ATOM     36  C   UNL     1       2.542   4.721   0.712  0.00  0.00    +0.182 C 
BRANCH  36  37
ATOM     37  C   UNL     1       1.291   3.924   0.979  0.00  0.00    -0.026 A 
ATOM     38  C   UNL     1       1.385   2.620   1.428  0.00  0.00    +0.005 A 
ATOM     39  C   UNL     1       0.238   1.889   1.673  0.00  0.00    +0.000 A 
ATOM     40  C   UNL     1      -1.003   2.460   1.463  0.00  0.00    +0.000 A 
ATOM     41  C   UNL     1      -1.097   3.765   1.018  0.00  0.00    +0.000 A 
ATOM     42  C   UNL     1       0.050   4.497   0.774  0.00  0.00    +0.005 A 
ENDBRANCH  36  37
ENDBRANCH  35  36
ENDBRANCH   1  31
TORSDOF 6
