REMARK  Name = ZINC23454245
REMARK  10 active torsions:
REMARK  status: ('A' for Active; 'I' for Inactive)
REMARK    1  A    between atoms: C_1  and  S_2
REMARK    2  A    between atoms: S_2  and  C_5
REMARK    3  A    between atoms: C_10  and  S_11
REMARK    4  A    between atoms: S_11  and  N_14
REMARK    5  A    between atoms: N_17  and  C_20
REMARK    6  A    between atoms: C_20  and  C_21
REMARK    7  A    between atoms: C_21  and  O_22
REMARK    8  A    between atoms: O_22  and  C_23
REMARK    9  A    between atoms: C_23  and  C_24
REMARK   10  A    between atoms: C_23  and  C_30
REMARK                            x       y       z     vdW  Elec       q    Type
REMARK                         _______ _______ _______ _____ _____    ______ ____
ROOT
ATOM      1  N   UNL     1      -4.166   9.004  -0.571  0.00  0.00    -0.180 NA
ATOM      2  C   UNL     1      -4.209   8.656  -1.999  0.00  0.00    +0.091 C 
ATOM      3  C   UNL     1      -4.275   7.130  -2.126  0.00  0.00    -0.061 C 
ATOM      4  N   UNL     1      -3.166   6.530  -1.373  0.00  0.00    +0.383 N 
ATOM      5  C   UNL     1      -3.274   6.825   0.061  0.00  0.00    -0.061 C 
ATOM      6  C   UNL     1      -3.166   8.338   0.278  0.00  0.00    +0.091 C 
ATOM      7  H   UNL     1      -2.231   6.982  -1.738  0.00  0.00    -0.082 HD
ENDROOT
BRANCH   1   8
ATOM      8  S   UNL     1      -5.215  10.116   0.065  0.00  0.00    +0.063 S 
ATOM      9  O   UNL     1      -4.657  10.542   1.300  0.00  0.00    -0.153 OA
ATOM     10  O   UNL     1      -5.529  11.024  -0.983  0.00  0.00    -0.153 OA
BRANCH   8  16
ATOM     11  C   UNL     1      -7.851   9.974   0.759  0.00  0.00    +0.114 A 
ATOM     12  C   UNL     1      -9.021   9.304   1.064  0.00  0.00    +0.029 A 
ATOM     13  C   UNL     1      -9.046   7.922   1.065  0.00  0.00    +0.002 A 
ATOM     14  C   UNL     1      -7.901   7.210   0.760  0.00  0.00    +0.002 A 
ATOM     15  C   UNL     1      -6.733   7.880   0.450  0.00  0.00    +0.030 A 
ATOM     16  C   UNL     1      -6.706   9.262   0.454  0.00  0.00    +0.130 A 
BRANCH  11  18
ATOM     17  C   UNL     1      -6.628  12.182   2.050  0.00  0.00    +0.200 C 
ATOM     18  S   UNL     1      -7.820  11.736   0.757  0.00  0.00    -0.004 S 
ATOM     19  O   UNL     1      -7.309  12.088  -0.521  0.00  0.00    -0.170 OA
ATOM     20  O   UNL     1      -9.131  12.122   1.145  0.00  0.00    -0.170 OA
ENDBRANCH  11  18
ENDBRANCH   8  16
ENDBRANCH   1   8
BRANCH   4  21
ATOM     21  C   UNL     1      -3.091   5.082  -1.609  0.00  0.00    -0.050 C 
BRANCH  21  22
ATOM     22  C   UNL     1      -2.496   4.821  -2.994  0.00  0.00    +0.142 C 
BRANCH  22  23
ATOM     23  O   UNL     1      -1.148   5.294  -3.030  0.00  0.00    -0.369 OA
BRANCH  23  24
ATOM     24  C   UNL     1      -0.496   5.097  -4.286  0.00  0.00    +0.178 C 
BRANCH  24  25
ATOM     25  C   UNL     1       0.192   3.756  -4.290  0.00  0.00    -0.015 A 
ATOM     26  C   UNL     1       0.254   3.015  -5.456  0.00  0.00    +0.006 A 
ATOM     27  C   UNL     1       0.884   1.785  -5.460  0.00  0.00    +0.000 A 
ATOM     28  C   UNL     1       1.453   1.295  -4.298  0.00  0.00    +0.000 A 
ATOM     29  C   UNL     1       1.385   2.034  -3.132  0.00  0.00    +0.000 A 
ATOM     30  C   UNL     1       0.759   3.266  -3.129  0.00  0.00    +0.006 A 
ENDBRANCH  24  25
BRANCH  24  31
ATOM     31  C   UNL     1       0.525   6.185  -4.498  0.00  0.00    -0.015 A 
ATOM     32  C   UNL     1       1.299   6.622  -3.439  0.00  0.00    +0.006 A 
ATOM     33  C   UNL     1       2.239   7.617  -3.635  0.00  0.00    +0.000 A 
ATOM     34  C   UNL     1       2.398   8.181  -4.887  0.00  0.00    +0.000 A 
ATOM     35  C   UNL     1       1.620   7.748  -5.944  0.00  0.00    +0.000 A 
ATOM     36  C   UNL     1       0.684   6.749  -5.750  0.00  0.00    +0.006 A 
ENDBRANCH  24  31
ENDBRANCH  23  24
ENDBRANCH  22  23
ENDBRANCH  21  22
ENDBRANCH   4  21
TORSDOF 9
