REMARK  Name = ZINC40104171
REMARK  7 active torsions:
REMARK  status: ('A' for Active; 'I' for Inactive)
REMARK    1  A    between atoms: C_1  and  C_2
REMARK    2  A    between atoms: C_2  and  C_4
REMARK    3  A    between atoms: C_2  and  N_14
REMARK    4  A    between atoms: C_7  and  S_10
REMARK    5  A    between atoms: S_10  and  N_13
REMARK    6  A    between atoms: N_14  and  C_15
REMARK    7  A    between atoms: N_18  and  C_19
REMARK                            x       y       z     vdW  Elec       q    Type
REMARK                         _______ _______ _______ _____ _____    ______ ____
ROOT
ATOM      1  N   UNL     1       0.674  -0.495   1.299  0.00  0.00    -0.282 N 
ATOM      2  C   UNL     1       2.021  -0.101   1.717  0.00  0.00    +0.134 C 
ATOM      3  C   UNL     1      -0.053  -1.329   2.069  0.00  0.00    +0.307 C 
ATOM      4  O   UNL     1      -1.172  -1.656   1.721  0.00  0.00    -0.252 OA
ATOM      5  N   UNL     1       0.459  -1.799   3.223  0.00  0.00    -0.269 N 
ATOM      6  H   UNL     1       1.374  -1.591   3.468  0.00  0.00    +0.156 HD
ENDROOT
BRANCH   5   7
ATOM      7  C   UNL     1      -0.331  -2.589   4.070  0.00  0.00    +0.038 A 
ATOM      8  C   UNL     1      -0.192  -2.483   5.447  0.00  0.00    +0.027 A 
ATOM      9  C   UNL     1      -0.971  -3.261   6.283  0.00  0.00    +0.051 A 
ATOM     10  C   UNL     1      -1.892  -4.147   5.750  0.00  0.00    +0.173 A 
ATOM     11  C   UNL     1      -2.034  -4.255   4.369  0.00  0.00    +0.174 A 
ATOM     12  C   UNL     1      -1.257  -3.472   3.531  0.00  0.00    +0.073 A 
ATOM     13  O   UNL     1      -2.995  -5.186   4.100  0.00  0.00    -0.395 OA
ATOM     14  C   UNL     1      -3.151  -5.941   5.316  0.00  0.00    +0.589 C 
ATOM     15  O   UNL     1      -2.765  -5.012   6.347  0.00  0.00    -0.395 OA
ATOM     16  F   UNL     1      -4.482  -6.335   5.484  0.00  0.00    -0.125 F 
ATOM     17  F   UNL     1      -2.303  -7.054   5.316  0.00  0.00    -0.125 F 
ENDBRANCH   5   7
BRANCH   1  19
ATOM     18  C   UNL     1       0.171   1.545   0.048  0.00  0.00    +0.033 C 
ATOM     19  C   UNL     1       0.117   0.016   0.044  0.00  0.00    +0.104 C 
BRANCH  19  20
ATOM     20  C   UNL     1       0.923  -0.511  -1.115  0.00  0.00    -0.027 A 
ATOM     21  C   UNL     1       1.540  -1.746  -1.023  0.00  0.00    +0.007 A 
ATOM     22  C   UNL     1       2.279  -2.230  -2.086  0.00  0.00    +0.029 A 
ATOM     23  C   UNL     1       2.402  -1.480  -3.241  0.00  0.00    +0.105 A 
ATOM     24  C   UNL     1       1.785  -0.246  -3.333  0.00  0.00    +0.029 A 
ATOM     25  C   UNL     1       1.042   0.236  -2.272  0.00  0.00    +0.007 A 
BRANCH  23  26
ATOM     26  S   UNL     1       3.345  -2.096  -4.596  0.00  0.00    +0.056 S 
ATOM     27  O   UNL     1       3.756  -0.966  -5.352  0.00  0.00    -0.153 OA
ATOM     28  O   UNL     1       4.271  -3.029  -4.055  0.00  0.00    -0.153 OA
BRANCH  26  29
ATOM     29  N   UNL     1       2.312  -2.960  -5.559  0.00  0.00    -0.204 NA
ATOM     30  H   UNL     1       1.376  -3.041  -5.317  0.00  0.00    +0.144 HD
ATOM     31  H   UNL     1       2.642  -3.385  -6.366  0.00  0.00    +0.144 HD
ENDBRANCH  26  29
ENDBRANCH  23  26
ENDBRANCH  19  20
ENDBRANCH   1  19
TORSDOF 5
