REMARK  Name = ZINC09789291
REMARK  10 active torsions:
REMARK  status: ('A' for Active; 'I' for Inactive)
REMARK    1  A    between atoms: C_1  and  N_2
REMARK    2  A    between atoms: N_2  and  C_3
REMARK    3  A    between atoms: N_2  and  C_4
REMARK    4  A    between atoms: C_7  and  S_24
REMARK    5  A    between atoms: C_9  and  N_10
REMARK    6  A    between atoms: N_10  and  C_11
REMARK    7  A    between atoms: C_11  and  N_13
REMARK    8  A    between atoms: N_13  and  C_14
REMARK    9  A    between atoms: C_14  and  C_15
REMARK   10  A    between atoms: S_24  and  N_27
REMARK                            x       y       z     vdW  Elec       q    Type
REMARK                         _______ _______ _______ _____ _____    ______ ____
ROOT
ATOM      1  C   UNL     1       5.138  -1.984  -2.468  0.00  0.00    +0.051 A 
ATOM      2  C   UNL     1       4.229  -2.810  -1.824  0.00  0.00    +0.027 A 
ATOM      3  C   UNL     1       3.491  -2.327  -0.759  0.00  0.00    +0.030 A 
ATOM      4  C   UNL     1       3.648  -1.018  -0.340  0.00  0.00    +0.107 A 
ATOM      5  C   UNL     1       4.553  -0.189  -0.977  0.00  0.00    +0.053 A 
ATOM      6  C   UNL     1       5.301  -0.666  -2.042  0.00  0.00    +0.056 A 
ENDROOT
BRANCH   1   8
ATOM      7  C   UNL     1       6.717  -3.614  -3.131  0.00  0.00    +0.129 C 
ATOM      8  N   UNL     1       5.890  -2.472  -3.542  0.00  0.00    -0.335 N 
ATOM      9  C   UNL     1       5.022  -2.831  -4.672  0.00  0.00    +0.129 C 
ENDBRANCH   1   8
BRANCH   4  10
ATOM     10  S   UNL     1       2.699  -0.409   1.013  0.00  0.00    +0.061 S 
ATOM     11  O   UNL     1       3.428   0.680   1.563  0.00  0.00    -0.153 OA
ATOM     12  O   UNL     1       2.320  -1.540   1.785  0.00  0.00    -0.153 OA
BRANCH  10  13
ATOM     13  N   UNL     1       1.303   0.224   0.386  0.00  0.00    -0.177 NA
ATOM     14  C   UNL     1       0.110  -0.616   0.215  0.00  0.00    +0.109 C 
ATOM     15  C   UNL     1      -0.365  -0.509  -1.237  0.00  0.00    +0.017 C 
ATOM     16  C   UNL     1      -0.578   0.964  -1.593  0.00  0.00    +0.003 C 
ATOM     17  C   UNL     1       0.747   1.719  -1.461  0.00  0.00    +0.017 C 
ATOM     18  C   UNL     1       1.234   1.637  -0.011  0.00  0.00    +0.109 C 
ENDBRANCH  10  13
ENDBRANCH   4  10
BRANCH   6  19
ATOM     19  N   UNL     1       6.219   0.173  -2.688  0.00  0.00    -0.295 N 
ATOM     20  H   UNL     1       6.264   0.187  -3.657  0.00  0.00    +0.154 HD
BRANCH  19  21
ATOM     21  C   UNL     1       7.038   0.961  -1.964  0.00  0.00    +0.135 C 
ATOM     22  S   UNL     1       7.057   0.835  -0.257  0.00  0.00    -0.019 S 
BRANCH  21  23
ATOM     23  N   UNL     1       7.842   1.847  -2.583  0.00  0.00    -0.322 N 
ATOM     24  H   UNL     1       7.832   1.918  -3.551  0.00  0.00    +0.148 HD
BRANCH  23  25
ATOM     25  C   UNL     1       8.733   2.703  -1.796  0.00  0.00    +0.138 C 
BRANCH  25  26
ATOM     26  C   UNL     1       9.519   3.596  -2.721  0.00  0.00    -0.027 A 
ATOM     27  C   UNL     1      10.742   3.177  -3.211  0.00  0.00    +0.009 A 
ATOM     28  C   UNL     1      11.464   3.990  -4.064  0.00  0.00    +0.050 A 
ATOM     29  C   UNL     1      10.968   5.234  -4.421  0.00  0.00    +0.166 A 
ATOM     30  C   UNL     1       9.739   5.658  -3.923  0.00  0.00    +0.167 A 
ATOM     31  C   UNL     1       9.018   4.835  -3.073  0.00  0.00    +0.054 A 
ATOM     32  O   UNL     1       9.475   6.903  -4.417  0.00  0.00    -0.453 OA
ATOM     33  C   UNL     1      10.738   7.404  -4.892  0.00  0.00    +0.466 C 
ATOM     34  O   UNL     1      11.475   6.213  -5.226  0.00  0.00    -0.453 OA
ENDBRANCH  25  26
ENDBRANCH  23  25
ENDBRANCH  21  23
ENDBRANCH  19  21
ENDBRANCH   6  19
TORSDOF 8
