REMARK  Name = ZINC48382626
REMARK  9 active torsions:
REMARK  status: ('A' for Active; 'I' for Inactive)
REMARK    1  A    between atoms: C_1  and  C_2
REMARK    2  A    between atoms: C_4  and  C_26
REMARK    3  A    between atoms: C_5  and  S_11
REMARK    4  A    between atoms: C_7  and  C_8
REMARK    5  A    between atoms: S_11  and  N_14
REMARK    6  A    between atoms: N_14  and  C_15
REMARK    7  A    between atoms: C_19  and  N_21
REMARK    8  A    between atoms: C_22  and  O_24
REMARK    9  A    between atoms: O_24  and  C_25
REMARK                            x       y       z     vdW  Elec       q    Type
REMARK                         _______ _______ _______ _____ _____    ______ ____
ROOT
ATOM      1  S   UNL     1       0.636  -4.119  -0.199  0.00  0.00    +0.073 S 
ATOM      2  O   UNL     1       1.763  -4.512  -0.970  0.00  0.00    -0.150 OA
ATOM      3  O   UNL     1       0.557  -4.340   1.202  0.00  0.00    -0.150 OA
ENDROOT
BRANCH   1   8
ATOM      4  C   UNL     1      -0.053   1.820  -1.087  0.00  0.00    +0.044 C 
ATOM      5  C   UNL     1       0.119   0.340  -0.862  0.00  0.00    -0.036 A 
ATOM      6  C   UNL     1       0.275  -0.509  -1.937  0.00  0.00    +0.009 A 
ATOM      7  C   UNL     1       0.433  -1.869  -1.732  0.00  0.00    -0.024 A 
ATOM      8  C   UNL     1       0.434  -2.386  -0.448  0.00  0.00    +0.112 A 
ATOM      9  C   UNL     1       0.279  -1.549   0.636  0.00  0.00    +0.044 A 
ATOM     10  C   UNL     1       0.125  -0.174   0.437  0.00  0.00    +0.068 A 
ATOM     11  C   UNL     1       0.603  -2.790  -2.912  0.00  0.00    +0.046 C 
BRANCH  10  12
ATOM     12  C   UNL     1      -0.035   0.729   1.593  0.00  0.00    +0.387 C 
ATOM     13  O   UNL     1       0.664   1.727   1.690  0.00  0.00    -0.241 OA
ATOM     14  O   UNL     1      -0.868   0.479   2.453  0.00  0.00    -0.241 OA
ENDBRANCH  10  12
ENDBRANCH   1   8
BRANCH   1  15
ATOM     15  N   UNL     1      -0.680  -4.866  -0.871  0.00  0.00    -0.216 N 
ATOM     16  H   UNL     1      -0.561  -5.498  -1.597  0.00  0.00    +0.174 HD
BRANCH  15  17
ATOM     17  C   UNL     1      -1.962  -4.586  -0.392  0.00  0.00    +0.050 A 
ATOM     18  C   UNL     1      -2.203  -4.557   0.977  0.00  0.00    +0.024 A 
ATOM     19  C   UNL     1      -3.470  -4.280   1.451  0.00  0.00    +0.004 A 
ATOM     20  C   UNL     1      -4.503  -4.032   0.568  0.00  0.00    +0.023 A 
ATOM     21  C   UNL     1      -4.269  -4.060  -0.801  0.00  0.00    +0.038 A 
ATOM     22  C   UNL     1      -2.996  -4.332  -1.282  0.00  0.00    +0.048 A 
BRANCH  21  23
ATOM     23  N   UNL     1      -5.316  -3.809  -1.696  0.00  0.00    -0.251 N 
ATOM     24  C   UNL     1      -5.361  -4.453  -2.879  0.00  0.00    +0.404 C 
ATOM     25  O   UNL     1      -4.546  -5.318  -3.131  0.00  0.00    -0.226 OA
ATOM     26  H   UNL     1      -6.010  -3.171  -1.464  0.00  0.00    +0.158 HD
BRANCH  24  27
ATOM     27  O   UNL     1      -6.310  -4.138  -3.781  0.00  0.00    -0.453 OA
ATOM     28  C   UNL     1      -6.298  -4.861  -5.014  0.00  0.00    +0.282 C 
ENDBRANCH  24  27
ENDBRANCH  21  23
ENDBRANCH  15  17
ENDBRANCH   1  15
TORSDOF 6
