REMARK  Name = ZINC39021430
REMARK  8 active torsions:
REMARK  status: ('A' for Active; 'I' for Inactive)
REMARK    1  A    between atoms: C_1  and  C_2
REMARK    2  A    between atoms: C_2  and  C_3
REMARK    3  A    between atoms: C_3  and  C_4
REMARK    4  A    between atoms: C_4  and  C_5
REMARK    5  A    between atoms: C_5  and  N_6
REMARK    6  A    between atoms: C_13  and  O_34
REMARK    7  A    between atoms: C_15  and  C_19
REMARK    8  A    between atoms: C_24  and  C_27
REMARK                            x       y       z     vdW  Elec       q    Type
REMARK                         _______ _______ _______ _____ _____    ______ ____
ROOT
ATOM      1  N   UNL     1      -2.828  -4.058   0.007  0.00  0.00    -0.270 N 
ATOM      2  C   UNL     1      -2.825  -4.745  -1.210  0.00  0.00    +0.042 A 
ATOM      3  C   UNL     1      -2.457  -4.093  -2.380  0.00  0.00    +0.024 A 
ATOM      4  C   UNL     1      -2.455  -4.779  -3.579  0.00  0.00    +0.002 A 
ATOM      5  C   UNL     1      -2.819  -6.112  -3.615  0.00  0.00    +0.000 A 
ATOM      6  C   UNL     1      -3.185  -6.765  -2.453  0.00  0.00    +0.008 A 
ATOM      7  C   UNL     1      -3.189  -6.085  -1.251  0.00  0.00    +0.003 A 
ATOM      8  C   UNL     1      -3.587  -6.792   0.019  0.00  0.00    +0.167 C 
ATOM      9  C   UNL     1      -2.775  -6.237   1.190  0.00  0.00    +0.194 C 
ATOM     10  C   UNL     1      -2.808  -4.732   1.171  0.00  0.00    +0.235 C 
ATOM     11  O   UNL     1      -2.821  -4.121   2.219  0.00  0.00    -0.274 OA
ENDROOT
BRANCH   9  12
ATOM     12  C   UNL     1      -1.346  -6.700   1.073  0.00  0.00    +0.233 C 
ATOM     13  O   UNL     1      -1.011  -7.405   0.144  0.00  0.00    -0.274 OA
ATOM     14  N   UNL     1      -0.440  -6.331   2.000  0.00  0.00    -0.264 N 
ATOM     15  C   UNL     1       0.878  -6.758   1.892  0.00  0.00    +0.165 A 
ATOM     16  N   UNL     1       1.902  -6.515   2.688  0.00  0.00    -0.225 NA
ATOM     17  C   UNL     1       3.104  -7.009   2.432  0.00  0.00    +0.080 A 
ATOM     18  C   UNL     1       3.288  -7.786   1.322  0.00  0.00    +0.076 A 
ATOM     19  S   UNL     1       1.634  -7.790   0.643  0.00  0.00    -0.060 S 
ATOM     20  H   UNL     1      -0.708  -5.767   2.742  0.00  0.00    +0.157 HD
BRANCH  17  21
ATOM     21  C   UNL     1       4.241  -6.721   3.341  0.00  0.00    +0.001 A 
ATOM     22  C   UNL     1       5.506  -7.238   3.064  0.00  0.00    +0.011 A 
ATOM     23  C   UNL     1       6.559  -6.967   3.912  0.00  0.00    +0.016 A 
ATOM     24  C   UNL     1       6.362  -6.184   5.037  0.00  0.00    +0.018 A 
ATOM     25  C   UNL     1       5.108  -5.669   5.316  0.00  0.00    +0.016 A 
ATOM     26  C   UNL     1       4.049  -5.929   4.471  0.00  0.00    +0.011 A 
ATOM     27 BR   UNL     1       7.811  -5.818   6.195  0.00  0.00    -0.050 Br
ENDBRANCH  17  21
ENDBRANCH   9  12
BRANCH   8  28
ATOM     28  O   UNL     1      -4.979  -6.584   0.263  0.00  0.00    -0.386 OA
ATOM     29  H   UNL     1      -5.556  -6.913  -0.440  0.00  0.00    +0.210 HD
ENDBRANCH   8  28
BRANCH   1  30
ATOM     30  C   UNL     1      -2.848  -2.593   0.015  0.00  0.00    +0.114 C 
BRANCH  30  31
ATOM     31  C   UNL     1      -1.413  -2.063   0.004  0.00  0.00    +0.019 C 
BRANCH  31  32
ATOM     32  C   UNL     1      -1.433  -0.534   0.013  0.00  0.00    +0.001 C 
BRANCH  32  34
ATOM     33  C   UNL     1      -0.019   1.526   0.010  0.00  0.00    +0.004 C 
ATOM     34  C   UNL     1       0.002  -0.004   0.002  0.00  0.00    -0.003 C 
ENDBRANCH  32  34
ENDBRANCH  31  32
ENDBRANCH  30  31
ENDBRANCH   1  30
TORSDOF 7
