REMARK  Name = ZINC60090116
REMARK  7 active torsions:
REMARK  status: ('A' for Active; 'I' for Inactive)
REMARK    1  A    between atoms: C_1  and  C_2
REMARK    2  A    between atoms: C_2  and  C_4
REMARK    3  A    between atoms: C_2  and  N_14
REMARK    4  A    between atoms: N_6  and  C_7
REMARK    5  A    between atoms: C_17  and  C_20
REMARK    6  A    between atoms: C_20  and  C_22
REMARK    7  A    between atoms: C_20  and  O_28
REMARK                            x       y       z     vdW  Elec       q    Type
REMARK                         _______ _______ _______ _____ _____    ______ ____
ROOT
ATOM      1  N   UNL     1      -0.082  -1.213  -0.978  0.00  0.00    +0.387 N 
ATOM      2  C   UNL     1      -0.858  -2.348  -0.464  0.00  0.00    -0.077 C 
ATOM      3  C   UNL     1      -0.833  -3.490  -1.483  0.00  0.00    -0.012 C 
ATOM      4  C   UNL     1      -1.446  -3.005  -2.800  0.00  0.00    +0.019 C 
ATOM      5  C   UNL     1      -0.674  -1.775  -3.288  0.00  0.00    -0.012 C 
ATOM      6  C   UNL     1      -0.705  -0.697  -2.203  0.00  0.00    -0.077 C 
ATOM      7  H   UNL     1       0.858  -1.515  -1.182  0.00  0.00    -0.081 HD
ENDROOT
BRANCH   1   9
ATOM      8  C   UNL     1       0.695   1.066  -0.528  0.00  0.00    -0.004 C 
ATOM      9  C   UNL     1      -0.044  -0.149   0.035  0.00  0.00    +0.016 C 
BRANCH   9  10
ATOM     10  C   UNL     1       0.675  -0.650   1.262  0.00  0.00    +0.203 C 
ATOM     11  O   UNL     1       1.530  -1.504   1.158  0.00  0.00    -0.277 OA
ATOM     12  N   UNL     1       0.368  -0.148   2.474  0.00  0.00    -0.287 N 
ATOM     13  H   UNL     1      -0.362   0.484   2.567  0.00  0.00    +0.155 HD
BRANCH  12  14
ATOM     14  C   UNL     1       1.102  -0.540   3.600  0.00  0.00    +0.033 A 
ATOM     15  C   UNL     1       0.481  -0.630   4.839  0.00  0.00    +0.024 A 
ATOM     16  C   UNL     1       1.208  -1.016   5.948  0.00  0.00    +0.017 A 
ATOM     17  C   UNL     1       2.553  -1.314   5.825  0.00  0.00    +0.018 A 
ATOM     18  C   UNL     1       3.175  -1.225   4.592  0.00  0.00    +0.017 A 
ATOM     19  C   UNL     1       2.451  -0.844   3.479  0.00  0.00    +0.024 A 
ATOM     20 BR   UNL     1       3.546  -1.843   7.346  0.00  0.00    -0.050 Br
ENDBRANCH  12  14
ENDBRANCH   9  10
ENDBRANCH   1   9
BRANCH   4  21
ATOM     21  C   UNL     1      -1.352  -4.116  -3.848  0.00  0.00    +0.147 C 
BRANCH  21  22
ATOM     22  C   UNL     1      -1.955  -3.638  -5.143  0.00  0.00    -0.019 A 
ATOM     23  C   UNL     1      -3.327  -3.637  -5.309  0.00  0.00    +0.006 A 
ATOM     24  C   UNL     1      -3.880  -3.198  -6.497  0.00  0.00    +0.000 A 
ATOM     25  C   UNL     1      -3.060  -2.759  -7.520  0.00  0.00    +0.000 A 
ATOM     26  C   UNL     1      -1.688  -2.758  -7.354  0.00  0.00    +0.000 A 
ATOM     27  C   UNL     1      -1.135  -3.193  -6.164  0.00  0.00    +0.006 A 
ENDBRANCH  21  22
BRANCH  21  28
ATOM     28  O   UNL     1      -2.064  -5.266  -3.387  0.00  0.00    -0.387 OA
ATOM     29  H   UNL     1      -3.004  -5.107  -3.223  0.00  0.00    +0.210 HD
ENDBRANCH  21  28
ENDBRANCH   4  21
TORSDOF 6
