REMARK  Name = ZINC29696462
REMARK  7 active torsions:
REMARK  status: ('A' for Active; 'I' for Inactive)
REMARK    1  A    between atoms: C_3  and  C_28
REMARK    2  A    between atoms: C_5  and  C_7
REMARK    3  A    between atoms: N_9  and  C_10
REMARK    4  A    between atoms: C_12  and  S_17
REMARK    5  A    between atoms: C_15  and  O_16
REMARK    6  A    between atoms: S_17  and  N_20
REMARK    7  A    between atoms: N_20  and  C_21
REMARK                            x       y       z     vdW  Elec       q    Type
REMARK                         _______ _______ _______ _____ _____    ______ ____
ROOT
ATOM      1  C   UNL     1       1.070   7.569   0.160  0.00  0.00    +0.077 A 
ATOM      2  C   UNL     1      -0.189   8.148   0.092  0.00  0.00    +0.055 A 
ATOM      3  C   UNL     1      -0.314   9.523   0.024  0.00  0.00    +0.110 A 
ATOM      4  C   UNL     1       0.813  10.323   0.011  0.00  0.00    +0.032 A 
ATOM      5  C   UNL     1       2.071   9.753   0.072  0.00  0.00    +0.049 A 
ATOM      6  C   UNL     1       2.206   8.376   0.146  0.00  0.00    +0.138 A 
ENDROOT
BRANCH   1   9
ATOM      7  C   UNL     1       0.173   5.428   0.685  0.00  0.00    +0.248 C 
ATOM      8  O   UNL     1      -0.826   5.965   1.120  0.00  0.00    -0.270 OA
ATOM      9  N   UNL     1       1.200   6.176   0.235  0.00  0.00    -0.279 N 
ATOM     10  H   UNL     1       2.139   5.694  -0.073  0.00  0.00    +0.155 HD
BRANCH   7  15
ATOM     11  C   UNL     1       1.497   1.956   0.115  0.00  0.00    +0.002 A 
ATOM     12  C   UNL     1       0.450   1.181   0.573  0.00  0.00    +0.019 A 
ATOM     13  C   UNL     1      -0.707   1.787   1.070  0.00  0.00    +0.052 A 
ATOM     14  C   UNL     1      -0.797   3.177   1.113  0.00  0.00    +0.032 A 
ATOM     15  C   UNL     1       0.263   3.953   0.649  0.00  0.00    +0.038 A 
ATOM     16  C   UNL     1       1.411   3.333   0.149  0.00  0.00    +0.013 A 
BRANCH  13  17
ATOM     17  C   UNL     1      -1.794   0.982   1.539  0.00  0.00    +0.099 C 
ATOM     18  N   UNL     1      -2.656   0.343   1.911  0.00  0.00    -0.191 NA
ENDBRANCH  13  17
ENDBRANCH   7  15
ENDBRANCH   1   9
BRANCH   3  19
ATOM     19  S   UNL     1      -1.914  10.256  -0.053  0.00  0.00    +0.072 S 
ATOM     20  O   UNL     1      -2.799   9.373   0.622  0.00  0.00    -0.150 OA
ATOM     21  O   UNL     1      -1.756  11.616   0.329  0.00  0.00    -0.150 OA
BRANCH  19  22
ATOM     22  N   UNL     1      -2.373  10.262  -1.645  0.00  0.00    -0.216 N 
ATOM     23  H   UNL     1      -2.499  11.216  -2.177  0.00  0.00    +0.174 HD
BRANCH  22  24
ATOM     24  C   UNL     1      -2.601   9.056  -2.310  0.00  0.00    +0.049 A 
ATOM     25  C   UNL     1      -3.759   8.330  -2.059  0.00  0.00    +0.024 A 
ATOM     26  C   UNL     1      -3.982   7.138  -2.719  0.00  0.00    +0.003 A 
ATOM     27  C   UNL     1      -3.055   6.665  -3.629  0.00  0.00    +0.020 A 
ATOM     28  C   UNL     1      -1.900   7.385  -3.882  0.00  0.00    +0.043 A 
ATOM     29  C   UNL     1      -1.674   8.582  -3.228  0.00  0.00    +0.044 A 
ATOM     30 CL   UNL     1      -0.739   6.788  -5.027  0.00  0.00    -0.083 Cl
ENDBRANCH  22  24
ENDBRANCH  19  22
ENDBRANCH   3  19
BRANCH   6  31
ATOM     31  O   UNL     1       3.442   7.814   0.207  0.00  0.00    -0.505 OA
ATOM     32  H   UNL     1       4.338   8.453   0.196  0.00  0.00    +0.292 HD
ENDBRANCH   6  31
TORSDOF 7
