REMARK  Name = ZINC58988454
REMARK  7 active torsions:
REMARK  status: ('A' for Active; 'I' for Inactive)
REMARK    1  A    between atoms: C_1  and  C_2
REMARK    2  A    between atoms: N_8  and  C_9
REMARK    3  A    between atoms: C_9  and  C_10
REMARK    4  A    between atoms: N_12  and  C_13
REMARK    5  A    between atoms: C_17  and  N_19
REMARK    6  A    between atoms: C_20  and  C_22
REMARK    7  A    between atoms: C_22  and  C_23
REMARK                            x       y       z     vdW  Elec       q    Type
REMARK                         _______ _______ _______ _____ _____    ______ ____
ROOT
ATOM      1  C   UNL     1       4.675  -0.175   3.936  0.00  0.00    +0.035 A 
ATOM      2  C   UNL     1       4.061  -0.981   4.886  0.00  0.00    +0.026 A 
ATOM      3  C   UNL     1       4.696  -1.247   6.084  0.00  0.00    +0.042 A 
ATOM      4  C   UNL     1       5.944  -0.710   6.342  0.00  0.00    +0.145 A 
ATOM      5  C   UNL     1       6.564   0.097   5.394  0.00  0.00    +0.071 A 
ATOM      6  C   UNL     1       5.930   0.359   4.188  0.00  0.00    +0.049 A 
ATOM      7  F   UNL     1       6.562  -0.971   7.514  0.00  0.00    -0.204 F 
ENDROOT
BRANCH   1  10
ATOM      8  C   UNL     1       2.690   0.234   2.688  0.00  0.00    +0.201 C 
ATOM      9  O   UNL     1       2.035   0.047   3.691  0.00  0.00    -0.278 OA
ATOM     10  N   UNL     1       4.030   0.093   2.722  0.00  0.00    -0.287 N 
ATOM     11  H   UNL     1       4.548   0.177   1.906  0.00  0.00    +0.155 HD
BRANCH   8  12
ATOM     12  C   UNL     1       2.006   0.623   1.403  0.00  0.00    +0.019 C 
BRANCH  12  19
ATOM     13  C   UNL     1       0.511   2.554   0.017  0.00  0.00    -0.013 C 
ATOM     14  C   UNL     1      -0.095   1.205   0.408  0.00  0.00    -0.071 C 
ATOM     15  C   UNL     1      -1.595   1.375   0.662  0.00  0.00    -0.016 C 
ATOM     16  C   UNL     1      -2.197   0.023   1.052  0.00  0.00    -0.003 C 
ATOM     17  C   UNL     1      -1.459  -0.519   2.279  0.00  0.00    -0.019 C 
ATOM     18  C   UNL     1       0.036  -0.619   1.966  0.00  0.00    -0.078 C 
ATOM     19  N   UNL     1       0.557   0.711   1.626  0.00  0.00    +0.387 N 
ATOM     20  H   UNL     1       0.374   1.348   2.387  0.00  0.00    -0.081 HD
ENDBRANCH  12  19
ENDBRANCH   8  12
ENDBRANCH   1  10
BRANCH   5  21
ATOM     21  N   UNL     1       7.828   0.641   5.654  0.00  0.00    -0.283 N 
ATOM     22  C   UNL     1       8.145   1.864   5.186  0.00  0.00    +0.222 C 
ATOM     23  O   UNL     1       7.367   2.460   4.471  0.00  0.00    -0.275 OA
ATOM     24  H   UNL     1       8.475   0.137   6.172  0.00  0.00    +0.155 HD
BRANCH  22  25
ATOM     25  C   UNL     1       9.465   2.492   5.552  0.00  0.00    +0.131 C 
BRANCH  25  26
ATOM     26  C   UNL     1       9.572   3.849   4.905  0.00  0.00    -0.038 A 
ATOM     27  C   UNL     1      10.121   3.974   3.642  0.00  0.00    +0.004 A 
ATOM     28  C   UNL     1      10.218   5.219   3.058  0.00  0.00    +0.004 A 
ATOM     29  C   UNL     1       9.769   6.350   3.727  0.00  0.00    -0.044 A 
ATOM     30  C   UNL     1       9.218   6.226   4.983  0.00  0.00    -0.044 A 
ATOM     31  C   UNL     1       9.119   4.970   5.569  0.00  0.00    +0.008 A 
ATOM     32  C   UNL     1       8.696   7.405   5.760  0.00  0.00    +0.035 C 
ATOM     33  C   UNL     1       9.250   8.711   5.192  0.00  0.00    +0.005 C 
ATOM     34  C   UNL     1       9.003   8.723   3.679  0.00  0.00    +0.005 C 
ATOM     35  C   UNL     1       9.913   7.680   3.034  0.00  0.00    +0.035 C 
ENDBRANCH  25  26
ENDBRANCH  22  25
ENDBRANCH   5  21
TORSDOF 6
