REMARK  Name = ZINC12558274
REMARK  6 active torsions:
REMARK  status: ('A' for Active; 'I' for Inactive)
REMARK    1  A    between atoms: C_3  and  S_29
REMARK    2  A    between atoms: C_6  and  C_7
REMARK    3  A    between atoms: N_9  and  C_10
REMARK    4  A    between atoms: C_13  and  C_16
REMARK    5  A    between atoms: C_25  and  O_28
REMARK    6  A    between atoms: S_29  and  N_32
REMARK                            x       y       z     vdW  Elec       q    Type
REMARK                         _______ _______ _______ _____ _____    ______ ____
ROOT
ATOM      1  C   UNL     1       2.804   0.551  -6.514  0.00  0.00    +0.248 C 
ATOM      2  O   UNL     1       3.120   1.616  -6.018  0.00  0.00    -0.270 OA
ATOM      3  N   UNL     1       1.900  -0.237  -5.900  0.00  0.00    -0.282 N 
ATOM      4  H   UNL     1       1.679  -1.237  -6.301  0.00  0.00    +0.155 HD
ENDROOT
BRANCH   1  10
ATOM      5  C   UNL     1       3.058  -1.102  -8.360  0.00  0.00    +0.015 A 
ATOM      6  C   UNL     1       3.626  -1.494  -9.554  0.00  0.00    +0.029 A 
ATOM      7  C   UNL     1       4.554  -0.683 -10.182  0.00  0.00    +0.106 A 
ATOM      8  C   UNL     1       4.915   0.529  -9.620  0.00  0.00    +0.029 A 
ATOM      9  C   UNL     1       4.351   0.936  -8.429  0.00  0.00    +0.015 A 
ATOM     10  C   UNL     1       3.413   0.122  -7.790  0.00  0.00    +0.037 A 
BRANCH   7  11
ATOM     11  S   UNL     1       5.280  -1.195 -11.704  0.00  0.00    +0.061 S 
ATOM     12  O   UNL     1       4.373  -2.113 -12.298  0.00  0.00    -0.153 OA
ATOM     13  O   UNL     1       5.712  -0.014 -12.366  0.00  0.00    -0.153 OA
BRANCH  11  14
ATOM     14  N   UNL     1       6.646  -2.053 -11.330  0.00  0.00    -0.177 NA
ATOM     15  C   UNL     1       7.944  -1.377 -11.201  0.00  0.00    +0.109 C 
ATOM     16  C   UNL     1       8.548  -1.734  -9.835  0.00  0.00    +0.017 C 
ATOM     17  C   UNL     1       8.617  -3.256  -9.696  0.00  0.00    +0.003 C 
ATOM     18  C   UNL     1       7.205  -3.841  -9.766  0.00  0.00    +0.017 C 
ATOM     19  C   UNL     1       6.584  -3.507 -11.126  0.00  0.00    +0.109 C 
ENDBRANCH  11  14
ENDBRANCH   7  11
ENDBRANCH   1  10
BRANCH   3  20
ATOM     20  C   UNL     1       1.242   0.217  -4.752  0.00  0.00    +0.034 A 
ATOM     21  C   UNL     1       0.888  -0.681  -3.753  0.00  0.00    +0.023 A 
ATOM     22  C   UNL     1       0.238  -0.230  -2.621  0.00  0.00    +0.006 A 
ATOM     23  C   UNL     1      -0.060   1.113  -2.482  0.00  0.00    -0.041 A 
ATOM     24  C   UNL     1       0.287   2.009  -3.477  0.00  0.00    +0.006 A 
ATOM     25  C   UNL     1       0.942   1.565  -4.609  0.00  0.00    +0.023 A 
BRANCH  23  26
ATOM     26  C   UNL     1      -0.770   1.602  -1.245  0.00  0.00    -0.001 C 
ATOM     27  C   UNL     1       0.074   1.280  -0.011  0.00  0.00    +0.015 C 
ATOM     28  C   UNL     1      -0.646   1.776   1.244  0.00  0.00    -0.007 C 
ATOM     29  C   UNL     1      -0.854   3.288   1.149  0.00  0.00    +0.007 C 
ATOM     30  C   UNL     1      -1.699   3.610  -0.085  0.00  0.00    -0.007 C 
ATOM     31  C   UNL     1      -0.978   3.115  -1.341  0.00  0.00    +0.015 C 
ATOM     32  C   UNL     1      -3.057   2.915   0.031  0.00  0.00    +0.038 C 
ATOM     33  C   UNL     1      -2.849   1.403   0.126  0.00  0.00    +0.067 C 
ATOM     34  C   UNL     1      -2.005   1.081   1.360  0.00  0.00    +0.038 C 
ATOM     35  C   UNL     1      -2.128   0.907  -1.129  0.00  0.00    +0.046 C 
BRANCH  33  36
ATOM     36  O   UNL     1      -4.118   0.753   0.235  0.00  0.00    -0.389 OA
ATOM     37  H   UNL     1      -4.170  -0.343   0.314  0.00  0.00    +0.210 HD
ENDBRANCH  33  36
ENDBRANCH  23  26
ENDBRANCH   3  20
TORSDOF 6
