REMARK  Name = ZINC22747093
REMARK  15 active torsions:
REMARK  status: ('A' for Active; 'I' for Inactive)
REMARK    1  A    between atoms: C_1  and  C_2
REMARK    2  A    between atoms: C_2  and  C_33
REMARK    3  A    between atoms: C_4  and  N_10
REMARK    4  A    between atoms: C_6  and  C_8
REMARK    5  A    between atoms: C_6  and  C_9
REMARK    6  A    between atoms: N_10  and  C_11
REMARK    7  A    between atoms: N_10  and  C_21
REMARK    8  A    between atoms: C_11  and  C_12
REMARK    9  A    between atoms: C_15  and  N_18
REMARK   10  A    between atoms: N_18  and  C_19
REMARK   11  A    between atoms: N_18  and  C_20
REMARK   12  A    between atoms: C_21  and  N_23
REMARK   13  A    between atoms: N_23  and  C_24
REMARK   14  A    between atoms: C_29  and  O_30
REMARK   15  A    between atoms: O_30  and  C_31
REMARK                            x       y       z     vdW  Elec       q    Type
REMARK                         _______ _______ _______ _____ _____    ______ ____
ROOT
ATOM      1  N   UNL     1      -4.450  -0.103  -0.507  0.00  0.00    -0.305 N 
ENDROOT
BRANCH   1   5
ATOM      2  C   UNL     1      -4.988   4.133   0.580  0.00  0.00    -0.010 C 
ATOM      3  C   UNL     1      -3.610   3.477   0.436  0.00  0.00    -0.072 C 
ATOM      4  C   UNL     1      -3.746   1.964   0.590  0.00  0.00    +0.009 C 
ATOM      5  C   UNL     1      -4.352   1.353  -0.673  0.00  0.00    +0.073 C 
ATOM      6  C   UNL     1      -3.431   1.663  -1.853  0.00  0.00    +0.009 C 
ATOM      7  C   UNL     1      -3.294   3.173  -2.037  0.00  0.00    -0.072 C 
ATOM      8  N   UNL     1      -2.974   3.865  -0.806  0.00  0.00    +0.386 N 
ATOM      9  C   UNL     1      -4.574   3.731  -2.669  0.00  0.00    -0.010 C 
ATOM     10  C   UNL     1      -2.144   3.416  -3.040  0.00  0.00    -0.010 C 
ATOM     11  C   UNL     1      -2.737   3.987   1.604  0.00  0.00    -0.010 C 
ATOM     12  H   UNL     1      -3.210   4.916  -1.026  0.00  0.00    -0.084 HD
ATOM     13  H   UNL     1      -1.884   3.745  -0.713  0.00  0.00    -0.084 HD
ENDBRANCH   1   5
BRANCH   1  14
ATOM     14  C   UNL     1      -3.331  -0.847  -0.409  0.00  0.00    +0.138 C 
ATOM     15  S   UNL     1      -3.441  -2.554  -0.348  0.00  0.00    -0.018 S 
BRANCH  14  16
ATOM     16  N   UNL     1      -2.125  -0.247  -0.359  0.00  0.00    -0.294 N 
ATOM     17  H   UNL     1      -2.058   0.850  -0.307  0.00  0.00    +0.154 HD
BRANCH  16  18
ATOM     18  C   UNL     1      -0.957  -1.021  -0.373  0.00  0.00    +0.076 A 
ATOM     19  C   UNL     1      -0.765  -2.008   0.583  0.00  0.00    +0.047 A 
ATOM     20  C   UNL     1       0.391  -2.766   0.571  0.00  0.00    +0.043 A 
ATOM     21  C   UNL     1       1.357  -2.546  -0.396  0.00  0.00    +0.024 A 
ATOM     22  C   UNL     1       1.169  -1.566  -1.354  0.00  0.00    +0.049 A 
ATOM     23  C   UNL     1       0.013  -0.803  -1.348  0.00  0.00    +0.141 A 
ATOM     24 CL   UNL     1       0.633  -3.997   1.771  0.00  0.00    -0.083 Cl
BRANCH  23  25
ATOM     25  O   UNL     1      -0.171   0.161  -2.289  0.00  0.00    -0.493 OA
ATOM     26  C   UNL     1       0.868   0.333  -3.255  0.00  0.00    +0.277 C 
ENDBRANCH  23  25
ENDBRANCH  16  18
ENDBRANCH  14  16
ENDBRANCH   1  14
BRANCH   1  27
ATOM     27  C   UNL     1      -5.765  -0.746  -0.447  0.00  0.00    +0.142 C 
BRANCH  27  28
ATOM     28  C   UNL     1      -6.231  -0.804   0.985  0.00  0.00    -0.030 A 
ATOM     29  C   UNL     1      -5.921  -1.901   1.768  0.00  0.00    +0.007 A 
ATOM     30  C   UNL     1      -6.342  -1.954   3.082  0.00  0.00    +0.023 A 
ATOM     31  C   UNL     1      -7.087  -0.910   3.615  0.00  0.00    +0.029 A 
ATOM     32  C   UNL     1      -7.401   0.188   2.824  0.00  0.00    +0.023 A 
ATOM     33  C   UNL     1      -6.973   0.238   1.512  0.00  0.00    +0.007 A 
BRANCH  31  34
ATOM     34  N   UNL     1      -7.519  -0.964   4.942  0.00  0.00    -0.336 N 
ATOM     35  C   UNL     1      -8.408   0.077   5.465  0.00  0.00    +0.129 C 
ATOM     36  C   UNL     1      -7.084  -2.061   5.810  0.00  0.00    +0.129 C 
ENDBRANCH  31  34
ENDBRANCH  27  28
ENDBRANCH   1  27
TORSDOF 8
