REMARK  Name = ZINC47963703
REMARK  9 active torsions:
REMARK  status: ('A' for Active; 'I' for Inactive)
REMARK    1  A    between atoms: C_1  and  N_2
REMARK    2  A    between atoms: N_2  and  C_3
REMARK    3  A    between atoms: N_2  and  C_4
REMARK    4  A    between atoms: C_4  and  C_6
REMARK    5  A    between atoms: C_4  and  C_24
REMARK    6  A    between atoms: C_6  and  N_7
REMARK    7  A    between atoms: C_8  and  C_10
REMARK    8  A    between atoms: N_12  and  C_13
REMARK    9  A    between atoms: C_14  and  C_22
REMARK                            x       y       z     vdW  Elec       q    Type
REMARK                         _______ _______ _______ _____ _____    ______ ____
ROOT
ATOM      1  N   UNL     1      -1.702   1.302  -1.405  0.00  0.00    -0.309 N 
ATOM      2  C   UNL     1      -2.076   1.923  -2.541  0.00  0.00    +0.299 C 
ATOM      3  O   UNL     1      -2.646   1.301  -3.414  0.00  0.00    -0.265 OA
ATOM      4  H   UNL     1      -1.246   1.799  -0.708  0.00  0.00    +0.149 HD
ENDROOT
BRANCH   2   5
ATOM      5  C   UNL     1      -1.789   3.377  -2.726  0.00  0.00    +0.304 C 
ATOM      6  O   UNL     1      -1.220   3.999  -1.853  0.00  0.00    -0.265 OA
ATOM      7  N   UNL     1      -2.164   3.998  -3.861  0.00  0.00    -0.271 N 
ATOM      8  H   UNL     1      -2.619   3.501  -4.559  0.00  0.00    +0.156 HD
BRANCH   7   9
ATOM      9  C   UNL     1      -1.898   5.346  -4.033  0.00  0.00    +0.090 A 
ATOM     10  C   UNL     1      -2.202   6.165  -5.114  0.00  0.00    +0.084 A 
ATOM     11  C   UNL     1      -1.808   7.560  -5.041  0.00  0.00    -0.018 A 
ATOM     12  C   UNL     1      -1.171   7.943  -3.911  0.00  0.00    -0.004 A 
ATOM     13  S   UNL     1      -1.085   6.478  -2.918  0.00  0.00    -0.077 S 
ATOM     14  C   UNL     1      -0.658   9.310  -3.578  0.00  0.00    +0.043 C 
ATOM     15  C   UNL     1      -0.629  10.145  -4.866  0.00  0.00    +0.005 C 
ATOM     16  C   UNL     1      -1.970   9.978  -5.589  0.00  0.00    +0.005 C 
ATOM     17  C   UNL     1      -2.082   8.564  -6.157  0.00  0.00    +0.037 C 
BRANCH  10  18
ATOM     18  C   UNL     1      -2.883   5.648  -6.263  0.00  0.00    +0.102 C 
ATOM     19  N   UNL     1      -3.422   5.238  -7.175  0.00  0.00    -0.191 NA
ENDBRANCH  10  18
ENDBRANCH   7   9
ENDBRANCH   2   5
BRANCH   1  20
ATOM     20  C   UNL     1      -1.983  -0.125  -1.224  0.00  0.00    +0.097 C 
BRANCH  20  21
ATOM     21  C   UNL     1      -1.371  -0.601   0.095  0.00  0.00    +0.016 C 
BRANCH  21  22
ATOM     22  C   UNL     1       0.130  -0.488   0.023  0.00  0.00    +0.093 A 
ATOM     23  C   UNL     1       0.983  -1.497  -0.231  0.00  0.00    +0.043 A 
ATOM     24  C   UNL     1       2.285  -0.947  -0.204  0.00  0.00    +0.041 A 
ATOM     25  C   UNL     1       2.150   0.364   0.066  0.00  0.00    +0.195 A 
ATOM     26  O   UNL     1       0.842   0.637   0.196  0.00  0.00    -0.469 OA
ENDBRANCH  21  22
BRANCH  21  28
ATOM     27  C   UNL     1      -3.338   0.143   1.249  0.00  0.00    -0.096 C 
ATOM     28  N   UNL     1      -1.873   0.232   1.196  0.00  0.00    +0.384 N 
ATOM     29  C   UNL     1      -1.308  -0.244   2.466  0.00  0.00    -0.096 C 
ATOM     30  H   UNL     1      -1.599   1.191   1.044  0.00  0.00    -0.082 HD
ENDBRANCH  21  28
ENDBRANCH  20  21
ENDBRANCH   1  20
TORSDOF 7
