REMARK  Name = ZINC04204963
REMARK  8 active torsions:
REMARK  status: ('A' for Active; 'I' for Inactive)
REMARK    1  A    between atoms: C_1  and  C_2
REMARK    2  A    between atoms: C_5  and  N_26
REMARK    3  A    between atoms: C_7  and  S_8
REMARK    4  A    between atoms: S_8  and  N_11
REMARK    5  A    between atoms: N_11  and  C_12
REMARK    6  A    between atoms: C_12  and  C_13
REMARK    7  A    between atoms: C_13  and  C_14
REMARK    8  A    between atoms: C_15  and  C_25
REMARK                            x       y       z     vdW  Elec       q    Type
REMARK                         _______ _______ _______ _____ _____    ______ ____
ROOT
ATOM      1  N   UNL     1       0.042   0.997   2.542  0.00  0.00    -0.190 NA
ATOM      2  H   UNL     1       0.723   0.306   2.523  0.00  0.00    +0.148 HD
ENDROOT
BRANCH   1   3
ATOM      3  S   UNL     1      -0.236   1.848   3.935  0.00  0.00    +0.059 S 
ATOM      4  O   UNL     1       0.635   1.310   4.921  0.00  0.00    -0.153 OA
ATOM      5  O   UNL     1      -0.226   3.224   3.579  0.00  0.00    -0.153 OA
BRANCH   3  12
ATOM      6  C   UNL     1      -1.152  -0.891   4.832  0.00  0.00    +0.046 C 
ATOM      7  C   UNL     1      -2.202   0.190   4.849  0.00  0.00    -0.024 A 
ATOM      8  C   UNL     1      -3.490  -0.103   5.258  0.00  0.00    +0.007 A 
ATOM      9  C   UNL     1      -4.452   0.888   5.274  0.00  0.00    +0.033 A 
ATOM     10  C   UNL     1      -4.127   2.174   4.881  0.00  0.00    +0.128 A 
ATOM     11  C   UNL     1      -2.839   2.467   4.476  0.00  0.00    +0.061 A 
ATOM     12  C   UNL     1      -1.877   1.474   4.456  0.00  0.00    +0.110 A 
BRANCH  10  13
ATOM     13  N   UNL     1      -5.158   3.236   4.898  0.00  0.00    +0.056 N 
ATOM     14  O   UNL     1      -6.293   2.978   5.259  0.00  0.00    -0.126 OA
ATOM     15  O   UNL     1      -4.872   4.368   4.553  0.00  0.00    -0.126 OA
ENDBRANCH  10  13
ENDBRANCH   3  12
ENDBRANCH   1   3
BRANCH   1  16
ATOM     16  C   UNL     1      -0.742   1.286   1.339  0.00  0.00    +0.110 C 
BRANCH  16  17
ATOM     17  C   UNL     1      -0.053   0.667   0.121  0.00  0.00    +0.054 C 
BRANCH  17  18
ATOM     18  C   UNL     1      -0.858   0.965  -1.117  0.00  0.00    -0.018 A 
ATOM     19  C   UNL     1      -1.842   0.210  -1.631  0.00  0.00    +0.017 A 
ATOM     20  N   UNL     1      -2.344   0.801  -2.758  0.00  0.00    -0.357 N 
ATOM     21  H   UNL     1      -3.063   0.443  -3.302  0.00  0.00    +0.166 HD
ATOM     22  C   UNL     1      -1.672   1.976  -3.009  0.00  0.00    +0.065 A 
ATOM     23  C   UNL     1      -0.712   2.131  -1.992  0.00  0.00    +0.005 A 
ATOM     24  C   UNL     1       0.126   3.247  -1.990  0.00  0.00    +0.010 A 
ATOM     25  C   UNL     1       0.010   4.186  -2.976  0.00  0.00    +0.002 A 
ATOM     26  C   UNL     1      -0.936   4.040  -3.981  0.00  0.00    +0.022 A 
ATOM     27  C   UNL     1      -1.774   2.945  -4.003  0.00  0.00    +0.065 A 
ATOM     28 CL   UNL     1      -2.952   2.776  -5.267  0.00  0.00    -0.081 Cl
ATOM     29  C   UNL     1      -2.324  -1.095  -1.050  0.00  0.00    +0.063 C 
ENDBRANCH  17  18
ENDBRANCH  16  17
ENDBRANCH   1  16
TORSDOF 6
