REMARK  Name = ZINC33306440
REMARK  11 active torsions:
REMARK  status: ('A' for Active; 'I' for Inactive)
REMARK    1  A    between atoms: C_1  and  C_2
REMARK    2  A    between atoms: C_4  and  C_30
REMARK    3  A    between atoms: C_5  and  N_9
REMARK    4  A    between atoms: C_6  and  C_8
REMARK    5  A    between atoms: N_9  and  S_10
REMARK    6  A    between atoms: S_10  and  C_13
REMARK    7  A    between atoms: C_16  and  C_18
REMARK    8  A    between atoms: C_19  and  C_20
REMARK    9  A    between atoms: C_21  and  N_26
REMARK   10  A    between atoms: C_22  and  C_25
REMARK   11  A    between atoms: C_27  and  C_29
REMARK                            x       y       z     vdW  Elec       q    Type
REMARK                         _______ _______ _______ _____ _____    ______ ____
ROOT
ATOM      1  C   UNL     1       1.457  -0.136   3.938  0.00  0.00    +0.146 A 
ATOM      2  C   UNL     1       1.944  -0.377   5.184  0.00  0.00    +0.037 A 
ATOM      3  C   UNL     1       2.408   0.673   5.941  0.00  0.00    +0.017 A 
ATOM      4  C   UNL     1       2.350   1.949   5.401  0.00  0.00    +0.014 A 
ATOM      5  S   UNL     1       1.632   1.635   3.797  0.00  0.00    -0.069 S 
ENDROOT
BRANCH   1   6
ATOM      6  S   UNL     1       0.811  -1.280   2.764  0.00  0.00    +0.079 S 
ATOM      7  O   UNL     1       1.286  -2.564   3.145  0.00  0.00    -0.149 OA
ATOM      8  O   UNL     1       1.059  -0.726   1.479  0.00  0.00    -0.149 OA
BRANCH   6   9
ATOM      9  N   UNL     1      -0.833  -1.306   2.960  0.00  0.00    -0.215 N 
ATOM     10  H   UNL     1      -1.334  -2.228   3.288  0.00  0.00    +0.174 HD
BRANCH   9  15
ATOM     11  C   UNL     1      -3.880   3.367   1.937  0.00  0.00    +0.044 C 
ATOM     12  C   UNL     1      -3.074   2.123   2.208  0.00  0.00    -0.050 A 
ATOM     13  C   UNL     1      -2.945   1.652   3.502  0.00  0.00    +0.008 A 
ATOM     14  C   UNL     1      -2.203   0.516   3.755  0.00  0.00    -0.028 A 
ATOM     15  C   UNL     1      -1.584  -0.155   2.708  0.00  0.00    +0.054 A 
ATOM     16  C   UNL     1      -1.716   0.320   1.409  0.00  0.00    -0.028 A 
ATOM     17  C   UNL     1      -2.459   1.457   1.163  0.00  0.00    +0.008 A 
ATOM     18  C   UNL     1      -1.046  -0.405   0.270  0.00  0.00    +0.046 C 
ATOM     19  C   UNL     1      -2.063   0.004   5.166  0.00  0.00    +0.046 C 
ENDBRANCH   9  15
ENDBRANCH   6   9
ENDBRANCH   1   6
BRANCH   4  20
ATOM     20  C   UNL     1       2.766   3.221   5.992  0.00  0.00    +0.019 C 
ATOM     21  C   UNL     1       2.623   4.371   5.293  0.00  0.00    +0.052 C 
BRANCH  21  22
ATOM     22  C   UNL     1       3.039   5.641   5.884  0.00  0.00    +0.182 A 
ATOM     23  C   UNL     1       2.954   6.888   5.291  0.00  0.00    +0.103 A 
ATOM     24  C   UNL     1       3.462   7.828   6.203  0.00  0.00    +0.102 A 
ATOM     25  N   UNL     1       3.833   7.196   7.282  0.00  0.00    -0.081 NA
ATOM     26  O   UNL     1       3.573   5.816   7.112  0.00  0.00    -0.353 OA
ATOM     27  C   UNL     1       3.561   9.314   5.974  0.00  0.00    +0.071 C 
BRANCH  23  28
ATOM     28  N   UNL     1       2.450   7.163   4.011  0.00  0.00    -0.281 N 
ATOM     29  C   UNL     1       1.642   8.225   3.819  0.00  0.00    +0.214 C 
ATOM     30  O   UNL     1       1.415   8.988   4.735  0.00  0.00    -0.276 OA
ATOM     31  C   UNL     1       1.021   8.464   2.467  0.00  0.00    +0.109 C 
ATOM     32  H   UNL     1       2.715   6.513   3.164  0.00  0.00    +0.155 HD
ENDBRANCH  23  28
ENDBRANCH  21  22
ENDBRANCH   4  20
TORSDOF 6
