REMARK  Name = ZINC39630636
REMARK  10 active torsions:
REMARK  status: ('A' for Active; 'I' for Inactive)
REMARK    1  A    between atoms: C_1  and  C_2
REMARK    2  A    between atoms: C_2  and  C_3
REMARK    3  A    between atoms: C_2  and  C_4
REMARK    4  A    between atoms: C_2  and  C_28
REMARK    5  A    between atoms: C_4  and  N_5
REMARK    6  A    between atoms: C_6  and  C_8
REMARK    7  A    between atoms: C_19  and  C_21
REMARK    8  A    between atoms: C_28  and  N_29
REMARK    9  A    between atoms: N_29  and  C_30
REMARK   10  A    between atoms: N_29  and  C_31
REMARK                            x       y       z     vdW  Elec       q    Type
REMARK                         _______ _______ _______ _____ _____    ______ ____
ROOT
ATOM      1  C   UNL     1      -5.478  -0.279   2.116  0.00  0.00    +0.100 C 
ATOM      2  C   UNL     1      -5.305  -0.406   3.646  0.00  0.00    +0.121 C 
ATOM      3  N   UNL     1      -6.682  -0.582   4.165  0.00  0.00    -0.296 N 
ATOM      4  C   UNL     1      -7.339  -1.467   3.174  0.00  0.00    +0.115 C 
ATOM      5  C   UNL     1      -6.814  -0.977   1.810  0.00  0.00    -0.004 C 
ATOM      6  C   UNL     1      -6.588  -2.162   0.876  0.00  0.00    -0.010 C 
ATOM      7  C   UNL     1      -7.937  -2.805   0.539  0.00  0.00    -0.082 C 
ATOM      8  N   UNL     1      -8.809  -1.812  -0.099  0.00  0.00    +0.379 N 
ATOM      9  C   UNL     1      -9.096  -0.720   0.840  0.00  0.00    -0.082 C 
ATOM     10  C   UNL     1      -7.797   0.011   1.189  0.00  0.00    -0.010 C 
ATOM     11  C   UNL     1      -7.216  -0.056   5.285  0.00  0.00    +0.247 C 
ATOM     12  O   UNL     1      -6.581   0.745   5.944  0.00  0.00    -0.270 OA
ATOM     13  H   UNL     1      -8.350  -1.438  -0.916  0.00  0.00    -0.086 HD
ATOM     14  H   UNL     1      -9.674  -2.253  -0.374  0.00  0.00    -0.086 HD
ENDROOT
BRANCH  11  15
ATOM     15  C   UNL     1      -8.575  -0.452   5.713  0.00  0.00    +0.038 A 
ATOM     16  C   UNL     1      -9.134  -1.646   5.254  0.00  0.00    +0.013 A 
ATOM     17  C   UNL     1     -10.402  -2.010   5.656  0.00  0.00    +0.002 A 
ATOM     18  C   UNL     1     -11.121  -1.195   6.512  0.00  0.00    +0.015 A 
ATOM     19  C   UNL     1     -10.573  -0.009   6.970  0.00  0.00    +0.019 A 
ATOM     20  C   UNL     1      -9.302   0.364   6.580  0.00  0.00    +0.028 A 
ATOM     21 BR   UNL     1     -11.565   1.099   8.139  0.00  0.00    -0.050 Br
ENDBRANCH  11  15
BRANCH   1  23
ATOM     22  N   UNL     1      -3.981  -0.568   0.169  0.00  0.00    -0.315 N 
ATOM     23  C   UNL     1      -4.347  -0.972   1.401  0.00  0.00    +0.218 C 
ATOM     24  O   UNL     1      -3.767  -1.894   1.934  0.00  0.00    -0.275 OA
ATOM     25  H   UNL     1      -4.444   0.170  -0.258  0.00  0.00    +0.149 HD
BRANCH  22  26
ATOM     26  C   UNL     1      -2.881  -1.242  -0.527  0.00  0.00    +0.108 C 
BRANCH  26  28
ATOM     27  C   UNL     1      -3.951  -0.720  -2.724  0.00  0.00    +0.010 C 
ATOM     28  C   UNL     1      -2.670  -0.593  -1.896  0.00  0.00    -0.034 C 
ATOM     29  C   UNL     1      -2.327   0.886  -1.713  0.00  0.00    +0.010 C 
BRANCH  28  30
ATOM     30  C   UNL     1      -1.522  -1.297  -2.622  0.00  0.00    -0.072 C 
BRANCH  30  31
ATOM     31  N   UNL     1      -1.326  -0.681  -3.942  0.00  0.00    +0.376 N 
ATOM     32  C   UNL     1      -0.437   0.481  -3.813  0.00  0.00    -0.097 C 
ATOM     33  C   UNL     1      -0.723  -1.661  -4.854  0.00  0.00    -0.097 C 
ATOM     34  H   UNL     1      -2.218  -0.384  -4.309  0.00  0.00    -0.083 HD
ENDBRANCH  30  31
ENDBRANCH  28  30
ENDBRANCH  26  28
ENDBRANCH  22  26
ENDBRANCH   1  23
TORSDOF 6
