REMARK  Name = ZINC13396069
REMARK  7 active torsions:
REMARK  status: ('A' for Active; 'I' for Inactive)
REMARK    1  A    between atoms: C_1  and  C_2
REMARK    2  A    between atoms: C_10  and  C_11
REMARK    3  A    between atoms: C_11  and  C_12
REMARK    4  A    between atoms: N_14  and  C_15
REMARK    5  A    between atoms: C_18  and  S_21
REMARK    6  A    between atoms: S_21  and  N_24
REMARK    7  A    between atoms: C_28  and  C_31
REMARK                            x       y       z     vdW  Elec       q    Type
REMARK                         _______ _______ _______ _____ _____    ______ ____
ROOT
ATOM      1  C   UNL     1      -0.134   6.790   1.335  0.00  0.00    +0.034 A 
ATOM      2  C   UNL     1      -1.194   6.172   1.984  0.00  0.00    +0.025 A 
ATOM      3  C   UNL     1      -1.121   4.830   2.299  0.00  0.00    +0.030 A 
ATOM      4  C   UNL     1       0.006   4.101   1.969  0.00  0.00    +0.106 A 
ATOM      5  C   UNL     1       1.067   4.714   1.328  0.00  0.00    +0.030 A 
ATOM      6  C   UNL     1       0.998   6.056   1.005  0.00  0.00    +0.025 A 
ENDROOT
BRANCH   1   9
ATOM      7  C   UNL     1      -0.868   9.000   1.822  0.00  0.00    +0.222 C 
ATOM      8  O   UNL     1      -1.321   8.605   2.875  0.00  0.00    -0.275 OA
ATOM      9  N   UNL     1      -0.205   8.150   1.013  0.00  0.00    -0.285 N 
ATOM     10  H   UNL     1       0.224   8.481   0.208  0.00  0.00    +0.155 HD
BRANCH   7  11
ATOM     11  C   UNL     1      -1.047  10.441   1.417  0.00  0.00    +0.135 C 
BRANCH  11  21
ATOM     12  C   UNL     1      -0.689  13.827   7.405  0.00  0.00    +0.044 C 
ATOM     13  C   UNL     1      -0.902  13.108   6.098  0.00  0.00    -0.047 A 
ATOM     14  C   UNL     1       0.184  12.560   5.431  0.00  0.00    +0.004 A 
ATOM     15  C   UNL     1       0.009  11.905   4.244  0.00  0.00    +0.012 A 
ATOM     16  C   UNL     1      -1.270  11.787   3.702  0.00  0.00    +0.024 A 
ATOM     17  C   UNL     1      -2.374  12.339   4.372  0.00  0.00    +0.135 A 
ATOM     18  C   UNL     1      -2.174  13.001   5.577  0.00  0.00    +0.050 A 
ATOM     19  O   UNL     1      -3.467  12.077   3.628  0.00  0.00    -0.463 OA
ATOM     20  C   UNL     1      -3.138  11.394   2.517  0.00  0.00    +0.200 A 
ATOM     21  C   UNL     1      -1.817  11.171   2.487  0.00  0.00    +0.007 A 
ENDBRANCH  11  21
ENDBRANCH   7  11
ENDBRANCH   1   9
BRANCH   4  22
ATOM     22  S   UNL     1       0.096   2.388   2.374  0.00  0.00    +0.061 S 
ATOM     23  O   UNL     1      -0.795   2.181   3.461  0.00  0.00    -0.153 OA
ATOM     24  O   UNL     1       1.476   2.059   2.446  0.00  0.00    -0.153 OA
BRANCH  22  25
ATOM     25  N   UNL     1      -0.524   1.548   1.088  0.00  0.00    -0.176 NA
ATOM     26  C   UNL     1       0.349   1.107  -0.009  0.00  0.00    +0.109 C 
ATOM     27  C   UNL     1      -0.228   1.610  -1.335  0.00  0.00    +0.018 C 
ATOM     28  C   UNL     1      -1.680   1.143  -1.465  0.00  0.00    +0.017 C 
ATOM     29  C   UNL     1      -2.511   1.732  -0.323  0.00  0.00    +0.118 C 
ATOM     30  C   UNL     1      -1.959   1.230   1.016  0.00  0.00    +0.124 C 
BRANCH  29  31
ATOM     31  C   UNL     1      -3.947   1.298  -0.469  0.00  0.00    +0.360 C 
ATOM     32  O   UNL     1      -4.477   0.657   0.406  0.00  0.00    -0.246 OA
ATOM     33  O   UNL     1      -4.637   1.625  -1.573  0.00  0.00    -0.246 OA
ENDBRANCH  29  31
ENDBRANCH  22  25
ENDBRANCH   4  22
TORSDOF 6
