REMARK  Name = ZINC63744077
REMARK  8 active torsions:
REMARK  status: ('A' for Active; 'I' for Inactive)
REMARK    1  A    between atoms: C_1  and  C_2
REMARK    2  A    between atoms: C_4  and  C_32
REMARK    3  A    between atoms: C_9  and  N_19
REMARK    4  A    between atoms: N_10  and  C_11
REMARK    5  A    between atoms: C_11  and  C_13
REMARK    6  A    between atoms: N_19  and  C_20
REMARK    7  A    between atoms: C_20  and  C_21
REMARK    8  A    between atoms: C_21  and  C_22
REMARK                            x       y       z     vdW  Elec       q    Type
REMARK                         _______ _______ _______ _____ _____    ______ ____
ROOT
ATOM      1  C   UNL     1      -0.382  -6.664   5.785  0.00  0.00    +0.066 C 
ATOM      2  C   UNL     1      -0.380  -6.132   4.375  0.00  0.00    +0.044 A 
ATOM      3  C   UNL     1      -0.361  -7.002   3.297  0.00  0.00    +0.046 A 
ATOM      4  C   UNL     1      -0.359  -6.471   2.017  0.00  0.00    +0.044 A 
ATOM      5  N   UNL     1      -0.375  -5.157   1.864  0.00  0.00    -0.217 NA
ATOM      6  C   UNL     1      -0.393  -4.353   2.916  0.00  0.00    +0.231 A 
ATOM      7  N   UNL     1      -0.401  -4.828   4.152  0.00  0.00    -0.217 NA
ATOM      8  N   UNL     1      -0.410  -2.979   2.718  0.00  0.00    -0.295 N 
ATOM      9  C   UNL     1      -0.313  -2.133   3.788  0.00  0.00    +0.218 C 
ATOM     10  N   UNL     1      -0.087  -2.619   4.998  0.00  0.00    -0.141 NA
ATOM     11  C   UNL     1      -0.338  -7.379   0.814  0.00  0.00    +0.066 C 
ATOM     12  H   UNL     1      -0.490  -2.619   1.821  0.00  0.00    +0.172 HD
ENDROOT
BRANCH  10  13
ATOM     13  C   UNL     1       0.099  -1.787   6.031  0.00  0.00    +0.270 C 
ATOM     14  O   UNL     1      -0.034  -0.586   5.877  0.00  0.00    -0.268 OA
BRANCH  13  15
ATOM     15  C   UNL     1       0.465  -2.326   7.361  0.00  0.00    +0.039 A 
ATOM     16  C   UNL     1       0.740  -3.685   7.514  0.00  0.00    +0.013 A 
ATOM     17  C   UNL     1       1.081  -4.182   8.755  0.00  0.00    +0.001 A 
ATOM     18  C   UNL     1       1.150  -3.335   9.847  0.00  0.00    +0.000 A 
ATOM     19  C   UNL     1       0.879  -1.986   9.702  0.00  0.00    +0.001 A 
ATOM     20  C   UNL     1       0.543  -1.476   8.464  0.00  0.00    +0.013 A 
ENDBRANCH  13  15
ENDBRANCH  10  13
BRANCH   9  21
ATOM     21  N   UNL     1      -0.449  -0.788   3.608  0.00  0.00    -0.252 NA
BRANCH  21  22
ATOM     22  C   UNL     1      -0.807  -0.258   2.291  0.00  0.00    +0.149 C 
BRANCH  22  23
ATOM     23  C   UNL     1      -0.775   1.271   2.330  0.00  0.00    +0.056 C 
BRANCH  23  24
ATOM     24  C   UNL     1      -1.261   1.818   1.013  0.00  0.00    -0.040 C 
ATOM     25  C   UNL     1      -2.517   2.222   0.714  0.00  0.00    +0.000 A 
ATOM     26  C   UNL     1      -3.758   2.271   1.496  0.00  0.00    +0.030 A 
ATOM     27  C   UNL     1      -4.886   2.736   0.910  0.00  0.00    +0.042 A 
ATOM     28  C   UNL     1      -4.897   3.172  -0.423  0.00  0.00    +0.022 A 
ATOM     29  C   UNL     1      -3.797   3.158  -1.204  0.00  0.00    +0.027 A 
ATOM     30  C   UNL     1      -2.556   2.688  -0.690  0.00  0.00    +0.043 A 
ATOM     31  N   UNL     1      -1.371   2.577  -1.239  0.00  0.00    -0.380 N 
ATOM     32  C   UNL     1      -0.443   2.033  -0.241  0.00  0.00    +0.144 C 
ATOM     33 CL   UNL     1      -6.356   2.795   1.832  0.00  0.00    -0.084 Cl
ATOM     34  H   UNL     1      -1.144   2.818  -2.151  0.00  0.00    +0.160 HD
ENDBRANCH  23  24
ENDBRANCH  22  23
ENDBRANCH  21  22
ENDBRANCH   9  21
TORSDOF 6
