REMARK  Name = ZINC39670478
REMARK  6 active torsions:
REMARK  status: ('A' for Active; 'I' for Inactive)
REMARK    1  A    between atoms: C_1  and  C_2
REMARK    2  A    between atoms: C_7  and  C_11
REMARK    3  A    between atoms: C_11  and  N_12
REMARK    4  A    between atoms: C_13  and  C_15
REMARK    5  A    between atoms: C_26  and  C_28
REMARK    6  A    between atoms: C_28  and  C_34
REMARK                            x       y       z     vdW  Elec       q    Type
REMARK                         _______ _______ _______ _____ _____    ______ ____
ROOT
ATOM      1  C   UNL     1       3.173  -7.607   3.277  0.00  0.00    +0.100 C 
ATOM      2  C   UNL     1       3.736  -7.986   1.889  0.00  0.00    +0.121 C 
ATOM      3  N   UNL     1       4.573  -9.183   2.138  0.00  0.00    -0.300 N 
ATOM      4  C   UNL     1       3.806  -9.968   3.135  0.00  0.00    +0.115 C 
ATOM      5  C   UNL     1       3.220  -8.911   4.091  0.00  0.00    -0.004 C 
ATOM      6  C   UNL     1       1.814  -9.314   4.525  0.00  0.00    -0.010 C 
ATOM      7  C   UNL     1       1.893 -10.581   5.382  0.00  0.00    -0.082 C 
ATOM      8  N   UNL     1       2.735 -10.327   6.557  0.00  0.00    +0.379 N 
ATOM      9  C   UNL     1       4.109 -10.030   6.134  0.00  0.00    -0.082 C 
ATOM     10  C   UNL     1       4.124  -8.741   5.309  0.00  0.00    -0.010 C 
ATOM     11  C   UNL     1       5.764  -9.488   1.585  0.00  0.00    +0.222 C 
ATOM     12  O   UNL     1       6.291 -10.553   1.830  0.00  0.00    -0.275 OA
ATOM     13  H   UNL     1       2.365  -9.540   7.070  0.00  0.00    -0.086 HD
ATOM     14  H   UNL     1       2.735 -11.142   7.151  0.00  0.00    -0.086 HD
ENDROOT
BRANCH  11  15
ATOM     15  C   UNL     1       6.439  -8.508   0.661  0.00  0.00    +0.044 C 
ATOM     16  C   UNL     1       5.486  -8.142  -0.479  0.00  0.00    +0.016 C 
ATOM     17  C   UNL     1       5.116  -9.405  -1.259  0.00  0.00    +0.001 C 
ATOM     18  C   UNL     1       6.383 -10.039  -1.837  0.00  0.00    +0.000 C 
ATOM     19  C   UNL     1       7.336 -10.404  -0.697  0.00  0.00    +0.001 C 
ATOM     20  C   UNL     1       7.706  -9.141   0.083  0.00  0.00    +0.016 C 
ATOM     21  C   UNL     1       6.809  -7.245   1.440  0.00  0.00    +0.021 C 
ENDBRANCH  11  15
BRANCH   1  23
ATOM     22  N   UNL     1       1.212  -6.361   4.127  0.00  0.00    -0.309 N 
ATOM     23  C   UNL     1       1.753  -7.118   3.151  0.00  0.00    +0.219 C 
ATOM     24  O   UNL     1       1.097  -7.405   2.172  0.00  0.00    -0.275 OA
ATOM     25  H   UNL     1       1.737  -6.131   4.909  0.00  0.00    +0.149 HD
BRANCH  22  26
ATOM     26  C   UNL     1      -0.168  -5.885   4.005  0.00  0.00    +0.159 C 
BRANCH  26  33
ATOM     27  C   UNL     1      -2.455  -3.065  10.442  0.00  0.00    +0.045 C 
ATOM     28  C   UNL     1      -1.842  -3.172   9.069  0.00  0.00    -0.034 A 
ATOM     29  C   UNL     1      -1.275  -2.037   8.467  0.00  0.00    +0.008 A 
ATOM     30  C   UNL     1      -0.722  -2.137   7.228  0.00  0.00    +0.045 A 
ATOM     31  C   UNL     1      -0.729  -3.382   6.568  0.00  0.00    +0.115 A 
ATOM     32  N   UNL     1      -0.274  -3.767   5.383  0.00  0.00    -0.342 N 
ATOM     33  C   UNL     1      -0.526  -5.067   5.218  0.00  0.00    +0.051 A 
ATOM     34  C   UNL     1      -1.157  -5.528   6.321  0.00  0.00    +0.115 A 
ATOM     35  N   UNL     1      -1.290  -4.472   7.181  0.00  0.00    -0.308 N 
ATOM     36  C   UNL     1      -1.837  -4.359   8.427  0.00  0.00    +0.096 A 
ATOM     37  H   UNL     1       0.171  -3.194   4.739  0.00  0.00    +0.167 HD
ENDBRANCH  26  33
ENDBRANCH  22  26
ENDBRANCH   1  23
TORSDOF 4
