REMARK  Name = ZINC63503234
REMARK  11 active torsions:
REMARK  status: ('A' for Active; 'I' for Inactive)
REMARK    1  A    between atoms: C_4  and  C_7
REMARK    2  A    between atoms: C_10  and  C_13
REMARK    3  A    between atoms: C_13  and  C_15
REMARK    4  A    between atoms: C_15  and  O_16
REMARK    5  A    between atoms: O_16  and  C_17
REMARK    6  A    between atoms: C_17  and  C_19
REMARK    7  A    between atoms: C_19  and  C_21
REMARK    8  A    between atoms: C_19  and  N_31
REMARK    9  A    between atoms: C_21  and  C_22
REMARK   10  A    between atoms: C_32  and  O_34
REMARK   11  A    between atoms: O_34  and  C_35
REMARK                            x       y       z     vdW  Elec       q    Type
REMARK                         _______ _______ _______ _____ _____    ______ ____
ROOT
ATOM      1  C   UNL     1      10.239  -6.603   0.231  0.00  0.00    +0.189 C 
ENDROOT
BRANCH   1   2
ATOM      2  N   UNL     1      10.219  -8.064   0.129  0.00  0.00    -0.267 N 
ATOM      3  C   UNL     1      11.330  -8.774   0.405  0.00  0.00    +0.406 C 
ATOM      4  O   UNL     1      12.349  -8.203   0.740  0.00  0.00    -0.226 OA
ATOM      5  H   UNL     1       9.405  -8.521  -0.138  0.00  0.00    +0.153 HD
BRANCH   3   6
ATOM      6  O   UNL     1      11.312 -10.118   0.311  0.00  0.00    -0.412 OA
BRANCH   6   7
ATOM      7  C   UNL     1      12.419 -10.800   0.707  0.00  0.00    +0.133 A 
ATOM      8  C   UNL     1      12.741 -10.881   2.054  0.00  0.00    +0.046 A 
ATOM      9  C   UNL     1      13.867 -11.575   2.453  0.00  0.00    +0.004 A 
ATOM     10  C   UNL     1      14.672 -12.190   1.512  0.00  0.00    +0.000 A 
ATOM     11  C   UNL     1      14.353 -12.110   0.169  0.00  0.00    +0.004 A 
ATOM     12  C   UNL     1      13.225 -11.422  -0.235  0.00  0.00    +0.046 A 
ENDBRANCH   6   7
ENDBRANCH   3   6
ENDBRANCH   1   2
BRANCH   1  13
ATOM     13  C   UNL     1       8.842  -6.098   0.484  0.00  0.00    +0.328 C 
ATOM     14  O   UNL     1       7.923  -6.879   0.570  0.00  0.00    -0.249 OA
BRANCH  13  15
ATOM     15  O   UNL     1       8.617  -4.781   0.614  0.00  0.00    -0.455 OA
BRANCH  15  16
ATOM     16  C   UNL     1       7.269  -4.373   0.853  0.00  0.00    +0.311 C 
BRANCH  16  17
ATOM     17  C   UNL     1       7.211  -2.872   0.970  0.00  0.00    +0.200 C 
ATOM     18  O   UNL     1       8.225  -2.216   0.860  0.00  0.00    -0.288 OA
BRANCH  17  22
ATOM     19  C   UNL     1       3.505  -0.942   1.684  0.00  0.00    -0.018 A 
ATOM     20  C   UNL     1       4.671  -0.186   1.558  0.00  0.00    +0.009 A 
ATOM     21  C   UNL     1       5.871  -0.808   1.327  0.00  0.00    +0.012 A 
ATOM     22  C   UNL     1       5.926  -2.203   1.218  0.00  0.00    +0.021 A 
ATOM     23  C   UNL     1       4.755  -2.959   1.345  0.00  0.00    +0.012 A 
ATOM     24  C   UNL     1       3.558  -2.333   1.581  0.00  0.00    +0.009 A 
BRANCH  19  28
ATOM     25  C   UNL     1      -0.212   0.993   2.399  0.00  0.00    +0.000 A 
ATOM     26  C   UNL     1       0.943   1.745   2.269  0.00  0.00    +0.001 A 
ATOM     27  C   UNL     1       2.152   1.122   2.037  0.00  0.00    +0.008 A 
ATOM     28  C   UNL     1       2.209  -0.267   1.933  0.00  0.00    -0.018 A 
ATOM     29  C   UNL     1       1.042  -1.019   2.065  0.00  0.00    +0.008 A 
ATOM     30  C   UNL     1      -0.161  -0.385   2.297  0.00  0.00    +0.001 A 
ENDBRANCH  19  28
ENDBRANCH  17  22
ENDBRANCH  16  17
ENDBRANCH  15  16
ENDBRANCH  13  15
ENDBRANCH   1  13
BRANCH   1  31
ATOM     31  C   UNL     1      10.767  -6.007  -1.075  0.00  0.00    +0.067 C 
BRANCH  31  32
ATOM     32  C   UNL     1      12.206  -6.413  -1.267  0.00  0.00    -0.039 C 
ATOM     33  C   UNL     1      12.666  -7.462  -1.986  0.00  0.00    -0.001 A 
ATOM     34  C   UNL     1      11.991  -8.500  -2.775  0.00  0.00    +0.010 A 
ATOM     35  C   UNL     1      12.737  -9.441  -3.397  0.00  0.00    +0.001 A 
ATOM     36  C   UNL     1      14.136  -9.450  -3.307  0.00  0.00    +0.002 A 
ATOM     37  C   UNL     1      14.828  -8.530  -2.601  0.00  0.00    +0.026 A 
ATOM     38  C   UNL     1      14.144  -7.494  -1.907  0.00  0.00    +0.043 A 
ATOM     39  N   UNL     1      14.581  -6.503  -1.168  0.00  0.00    -0.380 N 
ATOM     40  C   UNL     1      13.428  -5.726  -0.698  0.00  0.00    +0.144 C 
ATOM     41  H   UNL     1      15.511  -6.313  -0.968  0.00  0.00    +0.160 HD
ENDBRANCH  31  32
ENDBRANCH   1  31
TORSDOF 11
