REMARK  Name = ZINC63303011
REMARK  5 active torsions:
REMARK  status: ('A' for Active; 'I' for Inactive)
REMARK    1  A    between atoms: N_18  and  C_19
REMARK    2  A    between atoms: C_19  and  C_20
REMARK    3  A    between atoms: C_20  and  C_21
REMARK    4  A    between atoms: C_21  and  C_22
REMARK    5  A    between atoms: N_24  and  C_25
REMARK                            x       y       z     vdW  Elec       q    Type
REMARK                         _______ _______ _______ _____ _____    ______ ____
ROOT
ATOM      1  C   UNL     1      -0.016   1.406   0.016  0.00  0.00    +0.022 A 
ATOM      2  C   UNL     1       1.111   2.148   0.012  0.00  0.00    +0.027 A 
ATOM      3  C   UNL     1       2.387   1.522  -0.006  0.00  0.00    +0.043 A 
ATOM      4  N   UNL     1       3.603   2.018   0.007  0.00  0.00    -0.376 N 
ATOM      5  C   UNL     1       4.556   0.916  -0.100  0.00  0.00    +0.124 C 
ATOM      6  C   UNL     1       5.542   0.896   1.073  0.00  0.00    +0.138 C 
ATOM      7  N   UNL     1       6.176  -0.431   1.108  0.00  0.00    -0.283 N 
ATOM      8  C   UNL     1       5.365  -1.642   1.276  0.00  0.00    +0.114 C 
ATOM      9  C   UNL     1       4.329  -1.723   0.141  0.00  0.00    +0.052 C 
ATOM     10  C   UNL     1       3.719  -0.350  -0.019  0.00  0.00    -0.035 C 
ATOM     11  C   UNL     1       2.436   0.039  -0.013  0.00  0.00    +0.001 A 
ATOM     12  C   UNL     1       1.162  -0.693  -0.011  0.00  0.00    +0.030 A 
ATOM     13  C   UNL     1       0.003   0.003   0.003  0.00  0.00    +0.042 A 
ATOM     14 CL   UNL     1      -1.502  -0.862   0.004  0.00  0.00    -0.084 Cl
ATOM     15  C   UNL     1       7.514  -0.536   0.983  0.00  0.00    +0.302 C 
ATOM     16  O   UNL     1       8.181   0.453   0.747  0.00  0.00    -0.253 OA
ATOM     17  N   UNL     1       8.112  -1.736   1.119  0.00  0.00    -0.299 N 
ATOM     18  H   UNL     1       7.575  -2.535   1.234  0.00  0.00    +0.150 HD
ATOM     19  H   UNL     1       3.830   2.958   0.076  0.00  0.00    +0.160 HD
ENDROOT
BRANCH  17  20
ATOM     20  C   UNL     1       9.573  -1.833   1.092  0.00  0.00    +0.106 C 
BRANCH  20  21
ATOM     21  C   UNL     1       9.991  -3.295   1.266  0.00  0.00    +0.028 C 
BRANCH  21  22
ATOM     22  C   UNL     1      11.517  -3.396   1.238  0.00  0.00    +0.097 C 
BRANCH  22  23
ATOM     23  C   UNL     1      11.928  -4.836   1.410  0.00  0.00    +0.213 C 
ATOM     24  O   UNL     1      11.083  -5.696   1.541  0.00  0.00    -0.276 OA
ATOM     25  N   UNL     1      13.234  -5.168   1.417  0.00  0.00    -0.311 N 
ATOM     26  H   UNL     1      13.910  -4.480   1.312  0.00  0.00    +0.149 HD
BRANCH  25  27
ATOM     27  C   UNL     1      13.633  -6.568   1.583  0.00  0.00    +0.095 C 
ATOM     28  C   UNL     1      13.725  -6.907   3.080  0.00  0.00    +0.046 C 
ATOM     29  C   UNL     1      14.446  -8.263   3.271  0.00  0.00    +0.168 C 
ATOM     30  S   UNL     1      15.544  -8.347   1.798  0.00  0.00    -0.029 S 
ATOM     31  O   UNL     1      15.160  -9.457   0.998  0.00  0.00    -0.174 OA
ATOM     32  O   UNL     1      16.895  -8.224   2.221  0.00  0.00    -0.174 OA
ATOM     33  C   UNL     1      15.036  -6.793   0.950  0.00  0.00    +0.188 C 
ENDBRANCH  25  27
ENDBRANCH  22  23
ENDBRANCH  21  22
ENDBRANCH  20  21
ENDBRANCH  17  20
TORSDOF 5
