REMARK  Name = ZINC39465119
REMARK  7 active torsions:
REMARK  status: ('A' for Active; 'I' for Inactive)
REMARK    1  A    between atoms: C_1  and  S_2
REMARK    2  A    between atoms: S_2  and  P_3
REMARK    3  A    between atoms: C_11  and  S_26
REMARK    4  A    between atoms: C_12  and  C_19
REMARK    5  A    between atoms: C_24  and  O_25
REMARK    6  A    between atoms: S_26  and  O_29
REMARK    7  A    between atoms: O_29  and  C_30
REMARK                            x       y       z     vdW  Elec       q    Type
REMARK                         _______ _______ _______ _____ _____    ______ ____
ROOT
ATOM      1  P   UNL     1      -1.574  -1.200   0.191  0.00  0.00    +0.341 P 
ATOM      2  O   UNL     1      -2.171  -0.585  -1.015  0.00  0.00    -0.259 OA
ATOM      3  N   UNL     1      -1.917  -2.817   0.240  0.00  0.00    -0.170 NA
ATOM      4  N   UNL     1      -3.173  -3.167   0.685  0.00  0.00    -0.225 NA
ATOM      5  C   UNL     1      -3.312  -4.631   0.687  0.00  0.00    +0.108 C 
ATOM      6  C   UNL     1      -4.789  -4.985   0.855  0.00  0.00    +0.052 C 
ATOM      7  C   UNL     1      -5.351  -4.261   2.052  0.00  0.00    -0.039 A 
ATOM      8  C   UNL     1      -6.532  -4.727   2.612  0.00  0.00    +0.035 A 
ATOM      9  C   UNL     1      -7.083  -4.097   3.706  0.00  0.00    +0.136 A 
ATOM     10  C   UNL     1      -6.449  -2.983   4.253  0.00  0.00    +0.014 A 
ATOM     11  C   UNL     1      -5.266  -2.519   3.688  0.00  0.00    +0.016 A 
ATOM     12  C   UNL     1      -4.718  -3.158   2.587  0.00  0.00    -0.023 A 
ATOM     13  C   UNL     1      -3.435  -2.616   2.015  0.00  0.00    +0.129 C 
ATOM     14  C   UNL     1      -3.515  -1.087   1.970  0.00  0.00    +0.195 C 
ATOM     15  O   UNL     1      -2.243  -0.570   1.533  0.00  0.00    -0.307 OA
ATOM     16  H   UNL     1      -1.268  -3.485  -0.031  0.00  0.00    +0.152 HD
ENDROOT
BRANCH  10  17
ATOM     17  C   UNL     1      -7.032  -2.295   5.431  0.00  0.00    +0.025 A 
ATOM     18  C   UNL     1      -7.500  -0.988   5.317  0.00  0.00    +0.012 A 
ATOM     19  C   UNL     1      -8.043  -0.353   6.416  0.00  0.00    +0.001 A 
ATOM     20  C   UNL     1      -8.123  -1.010   7.631  0.00  0.00    +0.004 A 
ATOM     21  C   UNL     1      -7.662  -2.306   7.755  0.00  0.00    +0.046 A 
ATOM     22  C   UNL     1      -7.121  -2.958   6.658  0.00  0.00    +0.125 A 
BRANCH  22  23
ATOM     23  O   UNL     1      -6.672  -4.235   6.777  0.00  0.00    -0.506 OA
ATOM     24  H   UNL     1      -5.742  -4.303   7.032  0.00  0.00    +0.292 HD
ENDBRANCH  22  23
ENDBRANCH  10  17
BRANCH   9  25
ATOM     25  S   UNL     1      -8.583  -4.696   4.410  0.00  0.00    +0.152 S 
ATOM     26  O   UNL     1      -8.223  -5.739   5.305  0.00  0.00    -0.131 OA
ATOM     27  O   UNL     1      -9.320  -3.555   4.827  0.00  0.00    -0.131 OA
BRANCH  25  28
ATOM     28  O   UNL     1      -9.381  -5.342   3.287  0.00  0.00    -0.342 OA
BRANCH  28  29
ATOM     29  C   UNL     1      -9.982  -4.453   2.453  0.00  0.00    +0.157 A 
ATOM     30  C   UNL     1     -11.219  -3.918   2.782  0.00  0.00    +0.048 A 
ATOM     31  C   UNL     1     -11.827  -3.014   1.933  0.00  0.00    +0.004 A 
ATOM     32  C   UNL     1     -11.204  -2.643   0.755  0.00  0.00    +0.000 A 
ATOM     33  C   UNL     1      -9.972  -3.175   0.425  0.00  0.00    +0.004 A 
ATOM     34  C   UNL     1      -9.357  -4.075   1.273  0.00  0.00    +0.048 A 
ENDBRANCH  28  29
ENDBRANCH  25  28
ENDBRANCH   9  25
BRANCH   1  36
ATOM     35  C   UNL     1       0.706   0.907   0.266  0.00  0.00    +0.096 C 
ATOM     36  S   UNL     1       0.524  -0.896   0.206  0.00  0.00    -0.056 S 
ENDBRANCH   1  36
TORSDOF 6
