REMARK  Name = ZINC09229469
REMARK  10 active torsions:
REMARK  status: ('A' for Active; 'I' for Inactive)
REMARK    1  A    between atoms: C_1  and  C_2
REMARK    2  A    between atoms: C_5  and  N_9
REMARK    3  A    between atoms: C_7  and  C_8
REMARK    4  A    between atoms: C_10  and  C_12
REMARK    5  A    between atoms: C_12  and  C_13
REMARK    6  A    between atoms: C_13  and  C_14
REMARK    7  A    between atoms: N_16  and  N_17
REMARK    8  A    between atoms: C_18  and  C_20
REMARK    9  A    between atoms: C_21  and  C_22
REMARK   10  A    between atoms: C_25  and  N_28
REMARK                            x       y       z     vdW  Elec       q    Type
REMARK                         _______ _______ _______ _____ _____    ______ ____
ROOT
ATOM      1  C   UNL     1       3.740   1.737   0.337  0.00  0.00    +0.230 C 
ATOM      2  O   UNL     1       3.742   2.941   0.190  0.00  0.00    -0.274 OA
ATOM      3  N   UNL     1       4.904   1.075   0.488  0.00  0.00    -0.234 N 
ATOM      4  H   UNL     1       4.903   0.112   0.606  0.00  0.00    +0.173 HD
ENDROOT
BRANCH   3   5
ATOM      5  N   UNL     1       6.117   1.777   0.476  0.00  0.00    -0.231 N 
ATOM      6  C   UNL     1       7.281   1.115   0.627  0.00  0.00    +0.253 C 
ATOM      7  O   UNL     1       7.279  -0.093   0.774  0.00  0.00    -0.269 OA
ATOM      8  H   UNL     1       6.118   2.740   0.358  0.00  0.00    +0.173 HD
BRANCH   6   9
ATOM      9  C   UNL     1       8.548   1.849   0.614  0.00  0.00    +0.069 C 
ATOM     10  C   UNL     1       9.712   1.187   0.765  0.00  0.00    +0.013 C 
BRANCH  10  11
ATOM     11  C   UNL     1      10.986   1.926   0.751  0.00  0.00    -0.025 A 
ATOM     12  C   UNL     1      10.992   3.313   0.577  0.00  0.00    +0.010 A 
ATOM     13  C   UNL     1      12.189   3.998   0.571  0.00  0.00    +0.033 A 
ATOM     14  C   UNL     1      13.382   3.315   0.727  0.00  0.00    +0.126 A 
ATOM     15  C   UNL     1      13.384   1.941   0.894  0.00  0.00    +0.033 A 
ATOM     16  C   UNL     1      12.196   1.242   0.908  0.00  0.00    +0.010 A 
BRANCH  14  17
ATOM     17  N   UNL     1      14.663   4.057   0.714  0.00  0.00    +0.056 N 
ATOM     18  O   UNL     1      15.715   3.459   0.850  0.00  0.00    -0.126 OA
ATOM     19  O   UNL     1      14.664   5.266   0.567  0.00  0.00    -0.126 OA
ENDBRANCH  14  17
ENDBRANCH  10  11
ENDBRANCH   6   9
ENDBRANCH   3   5
BRANCH   1  20
ATOM     20  C   UNL     1       2.437   0.981   0.351  0.00  0.00    +0.106 C 
BRANCH  20  21
ATOM     21  C   UNL     1       1.277   1.961   0.161  0.00  0.00    +0.105 C 
BRANCH  21  23
ATOM     22  N   UNL     1      -1.191   1.867   0.018  0.00  0.00    -0.285 N 
ATOM     23  C   UNL     1      -0.027   1.205   0.175  0.00  0.00    +0.218 C 
ATOM     24  O   UNL     1      -0.028   0.001   0.322  0.00  0.00    -0.275 OA
ATOM     25  H   UNL     1      -1.196   2.836  -0.023  0.00  0.00    +0.155 HD
BRANCH  22  30
ATOM     26  C   UNL     1      -6.058  -1.018  -0.403  0.00  0.00    +0.044 C 
ATOM     27  C   UNL     1      -4.765  -0.251  -0.292  0.00  0.00    -0.047 A 
ATOM     28  C   UNL     1      -3.597  -0.790  -0.800  0.00  0.00    +0.005 A 
ATOM     29  C   UNL     1      -2.412  -0.089  -0.704  0.00  0.00    +0.023 A 
ATOM     30  C   UNL     1      -2.391   1.155  -0.086  0.00  0.00    +0.034 A 
ATOM     31  C   UNL     1      -3.565   1.694   0.423  0.00  0.00    +0.027 A 
ATOM     32  C   UNL     1      -4.749   0.989   0.319  0.00  0.00    -0.046 A 
ATOM     33  C   UNL     1      -6.023   1.573   0.872  0.00  0.00    +0.044 C 
ENDBRANCH  22  30
ENDBRANCH  21  23
ENDBRANCH  20  21
ENDBRANCH   1  20
TORSDOF 8
