REMARK  Name = ZINC63375950
REMARK  7 active torsions:
REMARK  status: ('A' for Active; 'I' for Inactive)
REMARK    1  A    between atoms: C_1  and  C_2
REMARK    2  A    between atoms: C_2  and  C_3
REMARK    3  A    between atoms: C_2  and  C_4
REMARK    4  A    between atoms: C_4  and  C_6
REMARK    5  A    between atoms: C_4  and  N_15
REMARK    6  A    between atoms: N_8  and  C_9
REMARK    7  A    between atoms: C_16  and  C_18
REMARK                            x       y       z     vdW  Elec       q    Type
REMARK                         _______ _______ _______ _____ _____    ______ ____
ROOT
ATOM      1  C   UNL     1      -3.409   1.639   2.468  0.00  0.00    +0.167 C 
ATOM      2  C   UNL     1      -4.567   0.683   2.817  0.00  0.00    +0.065 C 
ATOM      3  C   UNL     1      -5.844   1.479   2.709  0.00  0.00    -0.034 C 
ATOM      4  C   UNL     1      -6.846   1.625   3.572  0.00  0.00    -0.001 A 
ATOM      5  C   UNL     1      -7.109   0.999   4.877  0.00  0.00    +0.010 A 
ATOM      6  C   UNL     1      -8.243   1.395   5.514  0.00  0.00    +0.001 A 
ATOM      7  C   UNL     1      -9.130   2.341   4.988  0.00  0.00    +0.002 A 
ATOM      8  C   UNL     1      -8.969   2.961   3.792  0.00  0.00    +0.026 A 
ATOM      9  C   UNL     1      -7.816   2.622   3.027  0.00  0.00    +0.043 A 
ATOM     10  N   UNL     1      -7.428   3.041   1.859  0.00  0.00    -0.375 N 
ATOM     11  C   UNL     1      -6.203   2.326   1.496  0.00  0.00    +0.131 C 
ATOM     12  C   UNL     1      -5.035   3.279   1.246  0.00  0.00    +0.134 C 
ATOM     13  N   UNL     1      -3.974   2.973   2.227  0.00  0.00    -0.276 N 
ATOM     14  C   UNL     1      -3.634   4.111   2.861  0.00  0.00    +0.248 C 
ATOM     15  O   UNL     1      -2.708   4.225   3.640  0.00  0.00    -0.270 OA
ATOM     16  C   UNL     1      -4.545   5.191   2.476  0.00  0.00    +0.042 A 
ATOM     17  C   UNL     1      -5.430   4.703   1.463  0.00  0.00    -0.013 A 
ATOM     18  C   UNL     1      -6.409   5.484   0.889  0.00  0.00    +0.006 A 
ATOM     19  C   UNL     1      -6.502   6.802   1.326  0.00  0.00    +0.000 A 
ATOM     20  C   UNL     1      -5.653   7.311   2.289  0.00  0.00    +0.001 A 
ATOM     21  C   UNL     1      -4.634   6.513   2.921  0.00  0.00    +0.013 A 
ATOM     22  H   UNL     1      -7.874   3.712   1.320  0.00  0.00    +0.160 HD
ENDROOT
BRANCH   1  24
ATOM     23  N   UNL     1      -2.119  -0.061   1.218  0.00  0.00    -0.302 N 
ATOM     24  C   UNL     1      -2.704   1.153   1.228  0.00  0.00    +0.235 C 
ATOM     25  O   UNL     1      -2.663   1.854   0.240  0.00  0.00    -0.274 OA
ATOM     26  H   UNL     1      -2.152  -0.622   2.009  0.00  0.00    +0.150 HD
BRANCH  23  27
ATOM     27  C   UNL     1      -1.433  -0.534   0.013  0.00  0.00    +0.161 C 
BRANCH  27  28
ATOM     28  C   UNL     1      -1.413  -2.041   0.005  0.00  0.00    +0.234 C 
ATOM     29  O   UNL     1      -1.921  -2.659   0.916  0.00  0.00    -0.274 OA
ATOM     30  N   UNL     1      -0.830  -2.701  -1.015  0.00  0.00    -0.311 N 
ATOM     31  H   UNL     1      -0.423  -2.206  -1.744  0.00  0.00    +0.149 HD
BRANCH  30  32
ATOM     32  C   UNL     1      -0.810  -4.166  -1.024  0.00  0.00    +0.073 C 
ATOM     33  C   UNL     1       0.386  -4.664  -0.210  0.00  0.00    +0.022 C 
ATOM     34  C   UNL     1       0.407  -6.194  -0.218  0.00  0.00    +0.002 C 
ATOM     35  C   UNL     1       0.526  -6.694  -1.659  0.00  0.00    +0.000 C 
ATOM     36  C   UNL     1      -0.670  -6.196  -2.473  0.00  0.00    +0.002 C 
ATOM     37  C   UNL     1      -0.691  -4.666  -2.464  0.00  0.00    +0.022 C 
ENDBRANCH  30  32
ENDBRANCH  27  28
BRANCH  27  39
ATOM     38  C   UNL     1      -0.019   1.526   0.010  0.00  0.00    +0.009 C 
ATOM     39  C   UNL     1       0.002  -0.004   0.002  0.00  0.00    +0.012 C 
ATOM     40  C   UNL     1       0.742  -0.511   1.242  0.00  0.00    +0.009 C 
ENDBRANCH  27  39
ENDBRANCH  23  27
ENDBRANCH   1  24
TORSDOF 5
