REMARK  Name = ZINC12204356
REMARK  6 active torsions:
REMARK  status: ('A' for Active; 'I' for Inactive)
REMARK    1  A    between atoms: C_3  and  S_26
REMARK    2  A    between atoms: C_6  and  C_7
REMARK    3  A    between atoms: C_7  and  N_8
REMARK    4  A    between atoms: C_9  and  C_11
REMARK    5  A    between atoms: C_15  and  N_17
REMARK    6  A    between atoms: S_26  and  N_29
REMARK                            x       y       z     vdW  Elec       q    Type
REMARK                         _______ _______ _______ _____ _____    ______ ____
ROOT
ATOM      1  N   UNL     1      -4.464   5.084  -2.402  0.00  0.00    -0.307 N 
ATOM      2  C   UNL     1      -3.364   4.305  -2.419  0.00  0.00    +0.244 C 
ATOM      3  O   UNL     1      -2.825   4.038  -3.475  0.00  0.00    -0.270 OA
ATOM      4  H   UNL     1      -4.895   5.297  -1.559  0.00  0.00    +0.149 HD
ENDROOT
BRANCH   2   5
ATOM      5  C   UNL     1      -2.814   3.776  -1.154  0.00  0.00    +0.039 A 
ATOM      6  C   UNL     1      -3.432   4.082   0.061  0.00  0.00    +0.014 A 
ATOM      7  C   UNL     1      -2.916   3.587   1.241  0.00  0.00    +0.022 A 
ATOM      8  C   UNL     1      -1.786   2.788   1.226  0.00  0.00    +0.064 A 
ATOM      9  C   UNL     1      -1.164   2.478   0.021  0.00  0.00    +0.078 A 
ATOM     10  C   UNL     1      -1.672   2.975  -1.168  0.00  0.00    +0.039 A 
ATOM     11 CL   UNL     1      -1.144   2.170   2.716  0.00  0.00    -0.082 Cl
BRANCH   9  12
ATOM     12  N   UNL     1      -0.021   1.670   0.011  0.00  0.00    -0.142 N 
ATOM     13  C   UNL     1       1.250   2.100   0.001  0.00  0.00    +0.240 C 
ATOM     14  O   UNL     1       1.504   3.286   0.036  0.00  0.00    -0.274 OA
ATOM     15  C   UNL     1       2.349   1.082  -0.054  0.00  0.00    +0.122 C 
ATOM     16  C   UNL     1       1.777  -0.290   0.392  0.00  0.00    +0.198 C 
ATOM     17  S   UNL     1       0.002  -0.004   0.002  0.00  0.00    +0.052 S 
ATOM     18  O   UNL     1      -0.826  -0.406   1.085  0.00  0.00    -0.155 OA
ATOM     19  O   UNL     1      -0.292  -0.385  -1.335  0.00  0.00    -0.155 OA
ENDBRANCH   9  12
ENDBRANCH   2   5
BRANCH   1  20
ATOM     20  C   UNL     1      -5.010   5.609  -3.656  0.00  0.00    +0.139 C 
BRANCH  20  26
ATOM     21  C   UNL     1      -7.481   5.854  -3.341  0.00  0.00    +0.007 A 
ATOM     22  C   UNL     1      -8.600   6.618  -3.068  0.00  0.00    +0.029 A 
ATOM     23  C   UNL     1      -8.470   7.973  -2.826  0.00  0.00    +0.105 A 
ATOM     24  C   UNL     1      -7.220   8.562  -2.853  0.00  0.00    +0.029 A 
ATOM     25  C   UNL     1      -6.100   7.797  -3.122  0.00  0.00    +0.007 A 
ATOM     26  C   UNL     1      -6.231   6.442  -3.363  0.00  0.00    -0.030 A 
BRANCH  23  27
ATOM     27  S   UNL     1      -9.897   8.947  -2.482  0.00  0.00    +0.056 S 
ATOM     28  O   UNL     1     -10.883   8.059  -1.976  0.00  0.00    -0.153 OA
ATOM     29  O   UNL     1      -9.448  10.082  -1.753  0.00  0.00    -0.153 OA
BRANCH  27  30
ATOM     30  N   UNL     1     -10.465   9.511  -3.932  0.00  0.00    -0.204 NA
ATOM     31  H   UNL     1     -11.414   9.680  -4.048  0.00  0.00    +0.144 HD
ATOM     32  H   UNL     1      -9.851   9.673  -4.664  0.00  0.00    +0.144 HD
ENDBRANCH  27  30
ENDBRANCH  23  27
ENDBRANCH  20  26
ENDBRANCH   1  20
TORSDOF 6
