REMARK  Name = ZINC63730986
REMARK  9 active torsions:
REMARK  status: ('A' for Active; 'I' for Inactive)
REMARK    1  A    between atoms: C_1  and  C_2
REMARK    2  A    between atoms: C_2  and  C_4
REMARK    3  A    between atoms: C_2  and  S_20
REMARK    4  A    between atoms: N_6  and  C_7
REMARK    5  A    between atoms: C_11  and  S_13
REMARK    6  A    between atoms: S_13  and  N_16
REMARK    7  A    between atoms: N_16  and  C_17
REMARK    8  A    between atoms: N_16  and  C_18
REMARK    9  A    between atoms: S_20  and  C_21
REMARK                            x       y       z     vdW  Elec       q    Type
REMARK                         _______ _______ _______ _____ _____    ______ ____
ROOT
ATOM      1  C   UNL     1       0.769  -0.285   1.232  0.00  0.00    +0.230 C 
ATOM      2  O   UNL     1       1.949  -0.555   1.158  0.00  0.00    -0.274 OA
ATOM      3  N   UNL     1       0.099  -0.498   2.382  0.00  0.00    -0.285 N 
ATOM      4  H   UNL     1      -0.826  -0.218   2.464  0.00  0.00    +0.155 HD
ENDROOT
BRANCH   3   5
ATOM      5  C   UNL     1       0.738  -1.125   3.458  0.00  0.00    +0.035 A 
ATOM      6  C   UNL     1       0.027  -1.984   4.285  0.00  0.00    +0.025 A 
ATOM      7  C   UNL     1       0.660  -2.600   5.346  0.00  0.00    +0.024 A 
ATOM      8  C   UNL     1       2.002  -2.362   5.587  0.00  0.00    +0.067 A 
ATOM      9  C   UNL     1       2.713  -1.506   4.764  0.00  0.00    +0.125 A 
ATOM     10  C   UNL     1       2.086  -0.892   3.698  0.00  0.00    +0.053 A 
ATOM     11 CL   UNL     1       2.794  -3.138   6.922  0.00  0.00    -0.082 Cl
BRANCH   9  12
ATOM     12  S   UNL     1       4.421  -1.205   5.073  0.00  0.00    +0.062 S 
ATOM     13  O   UNL     1       4.858  -0.286   4.081  0.00  0.00    -0.153 OA
ATOM     14  O   UNL     1       4.542  -0.939   6.464  0.00  0.00    -0.153 OA
BRANCH  12  15
ATOM     15  N   UNL     1       5.227  -2.624   4.791  0.00  0.00    -0.183 NA
ATOM     16  C   UNL     1       5.623  -2.983   3.427  0.00  0.00    +0.131 C 
ATOM     17  C   UNL     1       5.544  -3.521   5.906  0.00  0.00    +0.131 C 
ENDBRANCH  12  15
ENDBRANCH   9  12
ENDBRANCH   3   5
BRANCH   1  19
ATOM     18  C   UNL     1       0.032   1.814   0.138  0.00  0.00    +0.029 C 
ATOM     19  C   UNL     1       0.051   0.288   0.037  0.00  0.00    +0.133 C 
BRANCH  19  20
ATOM     20  S   UNL     1       0.912  -0.207  -1.481  0.00  0.00    -0.103 S 
BRANCH  20  21
ATOM     21  C   UNL     1      -0.146   0.423  -2.812  0.00  0.00    +0.236 C 
ATOM     22  N   UNL     1      -0.333   1.872  -2.664  0.00  0.00    -0.355 N 
ATOM     23  C   UNL     1      -1.607   2.088  -2.507  0.00  0.00    +0.061 A 
ATOM     24  C   UNL     1      -2.396   3.312  -2.314  0.00  0.00    +0.027 A 
ATOM     25  C   UNL     1      -3.734   3.226  -2.176  0.00  0.00    +0.002 A 
ATOM     26  C   UNL     1      -4.422   2.000  -2.211  0.00  0.00    +0.002 A 
ATOM     27  C   UNL     1      -3.795   0.820  -2.383  0.00  0.00    +0.027 A 
ATOM     28  C   UNL     1      -2.335   0.791  -2.543  0.00  0.00    +0.061 A 
ATOM     29  N   UNL     1      -1.483  -0.177  -2.720  0.00  0.00    -0.355 N 
ATOM     30  H   UNL     1       0.366   2.545  -2.680  0.00  0.00    +0.162 HD
ATOM     31  H   UNL     1      -1.693  -1.123  -2.781  0.00  0.00    +0.162 HD
ENDBRANCH  20  21
ENDBRANCH  19  20
ENDBRANCH   1  19
TORSDOF 6
