REMARK  Name = ZINC52298092
REMARK  5 active torsions:
REMARK  status: ('A' for Active; 'I' for Inactive)
REMARK    1  A    between atoms: C_1  and  C_2
REMARK    2  A    between atoms: C_5  and  N_7
REMARK    3  A    between atoms: C_8  and  C_10
REMARK    4  A    between atoms: C_10  and  C_16
REMARK    5  A    between atoms: N_17  and  O_18
REMARK                            x       y       z     vdW  Elec       q    Type
REMARK                         _______ _______ _______ _____ _____    ______ ____
ROOT
ATOM      1  C   UNL     1       2.827   0.578   4.032  0.00  0.00    +0.109 C 
ATOM      2  C   UNL     1       3.310   1.886   3.397  0.00  0.00    +0.052 C 
ATOM      3  C   UNL     1       4.481   1.586   2.458  0.00  0.00    +0.161 C 
ATOM      4  O   UNL     1       5.524   0.940   3.191  0.00  0.00    -0.380 OA
ATOM      5  C   UNL     1       5.144  -0.311   3.767  0.00  0.00    +0.161 C 
ATOM      6  C   UNL     1       3.999  -0.087   4.759  0.00  0.00    +0.052 C 
ENDROOT
BRANCH   1   7
ATOM      7  C   UNL     1       1.724   0.871   5.016  0.00  0.00    +0.147 C 
ATOM      8  N   UNL     1       1.904   0.643   6.275  0.00  0.00    -0.076 NA
ATOM      9  N   UNL     1       0.523   1.381   4.574  0.00  0.00    -0.343 N 
ATOM     10  H   UNL     1       0.413   1.623   3.641  0.00  0.00    +0.144 HD
ATOM     11  H   UNL     1      -0.212   1.499   5.196  0.00  0.00    +0.144 HD
BRANCH   8  12
ATOM     12  O   UNL     1       0.868   0.918   7.200  0.00  0.00    -0.408 OA
ATOM     13  H   UNL     1       1.096   0.716   8.118  0.00  0.00    +0.328 HD
ENDBRANCH   8  12
ENDBRANCH   1   7
BRANCH   1  15
ATOM     14  N   UNL     1       1.972  -1.612   3.262  0.00  0.00    -0.311 N 
ATOM     15  C   UNL     1       2.311  -0.344   2.957  0.00  0.00    +0.227 C 
ATOM     16  O   UNL     1       2.201   0.056   1.817  0.00  0.00    -0.275 OA
ATOM     17  H   UNL     1       2.131  -1.954   4.156  0.00  0.00    +0.149 HD
BRANCH  14  21
ATOM     18  C   UNL     1       0.313  -3.797   4.241  0.00  0.00    +0.009 C 
ATOM     19  C   UNL     1       0.487  -3.629   2.730  0.00  0.00    +0.008 C 
ATOM     20  C   UNL     1       1.871  -3.913   2.142  0.00  0.00    +0.027 C 
ATOM     21  C   UNL     1       1.364  -2.472   2.245  0.00  0.00    +0.076 C 
ENDBRANCH  14  21
ENDBRANCH   1  15
TORSDOF 4
