REMARK  Name = ZINC13025111
REMARK  7 active torsions:
REMARK  status: ('A' for Active; 'I' for Inactive)
REMARK    1  A    between atoms: C_3  and  C_6
REMARK    2  A    between atoms: N_8  and  C_9
REMARK    3  A    between atoms: N_8  and  C_19
REMARK    4  A    between atoms: C_19  and  C_21
REMARK    5  A    between atoms: C_19  and  C_33
REMARK    6  A    between atoms: C_24  and  N_27
REMARK    7  A    between atoms: N_35  and  C_36
REMARK                            x       y       z     vdW  Elec       q    Type
REMARK                         _______ _______ _______ _____ _____    ______ ____
ROOT
ATOM      1  C   UNL     1       3.680  -2.041  -0.370  0.00  0.00    +0.198 C 
ENDROOT
BRANCH   1   2
ATOM      2  C   UNL     1       4.408  -2.613   0.818  0.00  0.00    -0.018 A 
ATOM      3  C   UNL     1       5.552  -1.995   1.289  0.00  0.00    +0.008 A 
ATOM      4  C   UNL     1       6.219  -2.514   2.381  0.00  0.00    +0.023 A 
ATOM      5  C   UNL     1       5.745  -3.663   3.001  0.00  0.00    +0.030 A 
ATOM      6  C   UNL     1       4.599  -4.284   2.522  0.00  0.00    +0.023 A 
ATOM      7  C   UNL     1       3.934  -3.757   1.433  0.00  0.00    +0.008 A 
BRANCH   5   8
ATOM      8  N   UNL     1       6.421  -4.194   4.103  0.00  0.00    -0.326 N 
ATOM      9  C   UNL     1       5.525  -4.314   5.262  0.00  0.00    +0.133 C 
ATOM     10  C   UNL     1       6.288  -4.954   6.425  0.00  0.00    +0.178 C 
ATOM     11  O   UNL     1       7.447  -4.169   6.716  0.00  0.00    -0.377 OA
ATOM     12  C   UNL     1       8.342  -4.031   5.609  0.00  0.00    +0.178 C 
ATOM     13  C   UNL     1       7.601  -3.383   4.438  0.00  0.00    +0.133 C 
ENDBRANCH   5   8
ENDBRANCH   1   2
BRANCH   1  14
ATOM     14  C   UNL     1       4.559  -2.135  -1.591  0.00  0.00    +0.239 C 
ATOM     15  O   UNL     1       4.879  -1.128  -2.187  0.00  0.00    -0.273 OA
ATOM     16  N   UNL     1       4.989  -3.338  -2.021  0.00  0.00    -0.311 N 
ATOM     17  H   UNL     1       4.732  -4.143  -1.544  0.00  0.00    +0.149 HD
BRANCH  16  18
ATOM     18  C   UNL     1       5.843  -3.429  -3.207  0.00  0.00    +0.073 C 
ATOM     19  C   UNL     1       4.974  -3.529  -4.478  0.00  0.00    +0.022 C 
ATOM     20  C   UNL     1       5.750  -4.508  -5.393  0.00  0.00    +0.002 C 
ATOM     21  C   UNL     1       6.303  -5.550  -4.389  0.00  0.00    +0.002 C 
ATOM     22  C   UNL     1       6.688  -4.714  -3.151  0.00  0.00    +0.022 C 
ENDBRANCH  16  18
ENDBRANCH   1  14
BRANCH   1  25
ATOM     23  C   UNL     1       2.620   0.059  -1.005  0.00  0.00    +0.287 C 
ATOM     24  O   UNL     1       2.444   1.254  -0.849  0.00  0.00    -0.266 OA
ATOM     25  N   UNL     1       3.351  -0.637  -0.112  0.00  0.00    -0.249 N 
BRANCH  25  26
ATOM     26  C   UNL     1       3.796  -0.018   1.062  0.00  0.00    +0.042 A 
ATOM     27  C   UNL     1       3.280  -0.407   2.291  0.00  0.00    +0.027 A 
ATOM     28  C   UNL     1       3.719   0.205   3.450  0.00  0.00    +0.051 A 
ATOM     29  C   UNL     1       4.675   1.208   3.389  0.00  0.00    +0.162 A 
ATOM     30  C   UNL     1       5.195   1.598   2.161  0.00  0.00    +0.164 A 
ATOM     31  C   UNL     1       4.754   0.985   0.998  0.00  0.00    +0.073 A 
ATOM     32  O   UNL     1       6.140   2.574   2.083  0.00  0.00    -0.485 OA
ATOM     33  C   UNL     1       6.285   3.422   3.227  0.00  0.00    +0.270 C 
ATOM     34  C   UNL     1       6.317   2.538   4.481  0.00  0.00    +0.270 C 
ATOM     35  O   UNL     1       5.088   1.805   4.542  0.00  0.00    -0.485 OA
ENDBRANCH  25  26
BRANCH  23  38
ATOM     36  C   UNL     1       0.991  -1.046  -4.080  0.00  0.00    +0.042 A 
ATOM     37  C   UNL     1       1.375  -0.023  -3.199  0.00  0.00    +0.054 A 
ATOM     38  C   UNL     1       2.036  -0.622  -2.165  0.00  0.00    +0.190 A 
ATOM     39  O   UNL     1       2.063  -1.950  -2.400  0.00  0.00    -0.458 OA
ATOM     40  C   UNL     1       1.429  -2.210  -3.551  0.00  0.00    +0.196 A 
ENDBRANCH  23  38
ENDBRANCH   1  25
TORSDOF 7
