REMARK  Name = ZINC21136124
REMARK  5 active torsions:
REMARK  status: ('A' for Active; 'I' for Inactive)
REMARK    1  A    between atoms: C_6  and  S_7
REMARK    2  A    between atoms: S_7  and  N_10
REMARK    3  A    between atoms: C_13  and  C_16
REMARK    4  A    between atoms: C_16  and  O_18
REMARK    5  A    between atoms: O_18  and  C_19
REMARK                            x       y       z     vdW  Elec       q    Type
REMARK                         _______ _______ _______ _____ _____    ______ ____
ROOT
ATOM      1  N   UNL     1      -4.323  -1.195   1.601  0.00  0.00    -0.177 NA
ATOM      2  C   UNL     1      -3.868  -2.403   2.303  0.00  0.00    +0.110 C 
ATOM      3  C   UNL     1      -5.078  -3.112   2.908  0.00  0.00    +0.032 C 
ATOM      4  C   UNL     1      -5.856  -2.129   3.787  0.00  0.00    +0.100 C 
ATOM      5  C   UNL     1      -6.355  -0.962   2.932  0.00  0.00    +0.032 C 
ATOM      6  C   UNL     1      -5.155  -0.226   2.328  0.00  0.00    +0.110 C 
ENDROOT
BRANCH   1   7
ATOM      7  S   UNL     1      -3.911  -0.933   0.018  0.00  0.00    +0.061 S 
ATOM      8  O   UNL     1      -4.900  -0.066  -0.520  0.00  0.00    -0.153 OA
ATOM      9  O   UNL     1      -3.627  -2.207  -0.543  0.00  0.00    -0.153 OA
BRANCH   7  15
ATOM     10  C   UNL     1      -2.415   1.349   0.027  0.00  0.00    +0.032 A 
ATOM     11  C   UNL     1      -1.229   2.059   0.019  0.00  0.00    +0.051 A 
ATOM     12  C   UNL     1      -0.017   1.386   0.010  0.00  0.00    +0.162 A 
ATOM     13  C   UNL     1       0.002  -0.004   0.002  0.00  0.00    +0.164 A 
ATOM     14  C   UNL     1      -1.191  -0.710   0.004  0.00  0.00    +0.078 A 
ATOM     15  C   UNL     1      -2.397  -0.033   0.016  0.00  0.00    +0.109 A 
ATOM     16  O   UNL     1       1.181  -0.685  -0.007  0.00  0.00    -0.485 OA
ATOM     17  C   UNL     1       2.347   0.054  -0.388  0.00  0.00    +0.270 C 
ATOM     18  C   UNL     1       2.334   1.392   0.364  0.00  0.00    +0.270 C 
ATOM     19  O   UNL     1       1.143   2.098   0.002  0.00  0.00    -0.485 OA
ENDBRANCH   7  15
ENDBRANCH   1   7
BRANCH   4  20
ATOM     20  C   UNL     1      -7.033  -2.835   4.409  0.00  0.00    +0.311 C 
ATOM     21  O   UNL     1      -8.155  -2.445   4.192  0.00  0.00    -0.251 OA
BRANCH  20  22
ATOM     22  O   UNL     1      -6.834  -3.897   5.206  0.00  0.00    -0.453 OA
BRANCH  22  23
ATOM     23  C   UNL     1      -8.013  -4.527   5.771  0.00  0.00    +0.242 C 
ATOM     24  C   UNL     1      -7.744  -6.019   5.992  0.00  0.00    +0.052 C 
ATOM     25  C   UNL     1      -8.935  -6.649   6.716  0.00  0.00    +0.004 C 
ATOM     26  C   UNL     1      -9.085  -6.028   8.105  0.00  0.00    +0.008 C 
ATOM     27  C   UNL     1      -9.405  -4.536   7.964  0.00  0.00    +0.078 C 
ATOM     28  C   UNL     1      -8.340  -3.891   7.104  0.00  0.00    +0.174 C 
ATOM     29  O   UNL     1      -7.763  -2.897   7.474  0.00  0.00    -0.293 OA
ENDBRANCH  22  23
ENDBRANCH  20  22
ENDBRANCH   4  20
TORSDOF 5
