REMARK  Name = ZINC34746754
REMARK  12 active torsions:
REMARK  status: ('A' for Active; 'I' for Inactive)
REMARK    1  A    between atoms: C_1  and  C_2
REMARK    2  A    between atoms: C_2  and  C_4
REMARK    3  A    between atoms: C_2  and  N_17
REMARK    4  A    between atoms: N_14  and  C_15
REMARK    5  A    between atoms: N_17  and  C_18
REMARK    6  A    between atoms: C_18  and  C_19
REMARK    7  A    between atoms: C_19  and  C_20
REMARK    8  A    between atoms: C_20  and  C_21
REMARK    9  A    between atoms: C_21  and  C_22
REMARK   10  A    between atoms: C_22  and  C_23
REMARK   11  A    between atoms: C_23  and  N_24
REMARK   12  A    between atoms: C_25  and  C_27
REMARK                            x       y       z     vdW  Elec       q    Type
REMARK                         _______ _______ _______ _____ _____    ______ ____
ROOT
ATOM      1  N   UNL     1      -1.402  -0.658  -1.025  0.00  0.00    -0.288 N 
ATOM      2  C   UNL     1      -1.958   0.200  -1.903  0.00  0.00    +0.247 C 
ATOM      3  O   UNL     1      -3.124   0.522  -1.782  0.00  0.00    -0.270 OA
ENDROOT
BRANCH   2   4
ATOM      4  C   UNL     1      -1.151   0.749  -3.014  0.00  0.00    +0.040 A 
ATOM      5  C   UNL     1       0.234   0.868  -2.881  0.00  0.00    +0.013 A 
ATOM      6  C   UNL     1       0.983   1.380  -3.920  0.00  0.00    +0.004 A 
ATOM      7  C   UNL     1       0.365   1.776  -5.093  0.00  0.00    +0.038 A 
ATOM      8  C   UNL     1      -1.008   1.661  -5.232  0.00  0.00    +0.124 A 
ATOM      9  C   UNL     1      -1.769   1.144  -4.200  0.00  0.00    +0.051 A 
ATOM     10  F   UNL     1      -1.605   2.050  -6.380  0.00  0.00    -0.205 F 
ENDBRANCH   2   4
BRANCH   1  12
ATOM     11  C   UNL     1       0.256   1.028  -0.402  0.00  0.00    +0.036 C 
ATOM     12  C   UNL     1      -0.016  -0.466  -0.591  0.00  0.00    +0.139 C 
BRANCH  12  13
ATOM     13  C   UNL     1       0.919  -1.018  -1.635  0.00  0.00    +0.133 A 
ATOM     14  N   UNL     1       0.432  -1.322  -2.799  0.00  0.00    -0.232 NA
ATOM     15  C   UNL     1       1.214  -1.824  -3.788  0.00  0.00    +0.080 A 
ATOM     16  C   UNL     1       0.692  -2.151  -5.041  0.00  0.00    +0.048 A 
ATOM     17  C   UNL     1       1.527  -2.657  -6.013  0.00  0.00    +0.043 A 
ATOM     18  C   UNL     1       2.881  -2.847  -5.761  0.00  0.00    +0.021 A 
ATOM     19  C   UNL     1       3.414  -2.534  -4.540  0.00  0.00    +0.017 A 
ATOM     20  C   UNL     1       2.591  -2.020  -3.541  0.00  0.00    +0.065 A 
ATOM     21  C   UNL     1       3.110  -1.666  -2.212  0.00  0.00    +0.262 A 
ATOM     22  O   UNL     1       4.286  -1.809  -1.933  0.00  0.00    -0.267 OA
ATOM     23  N   UNL     1       2.230  -1.169  -1.311  0.00  0.00    -0.298 N 
ATOM     24  C   UNL     1       2.695  -0.795   0.027  0.00  0.00    +0.154 C 
ATOM     25 CL   UNL     1       0.881  -3.064  -7.572  0.00  0.00    -0.083 Cl
ENDBRANCH  12  13
ENDBRANCH   1  12
BRANCH   1  26
ATOM     26  C   UNL     1      -2.183  -1.783  -0.505  0.00  0.00    +0.109 C 
BRANCH  26  27
ATOM     27  C   UNL     1      -2.912  -1.352   0.769  0.00  0.00    +0.019 C 
BRANCH  27  28
ATOM     28  C   UNL     1      -3.728  -2.527   1.312  0.00  0.00    +0.001 C 
BRANCH  28  29
ATOM     29  C   UNL     1      -4.457  -2.097   2.586  0.00  0.00    -0.002 C 
BRANCH  29  30
ATOM     30  C   UNL     1      -5.272  -3.272   3.129  0.00  0.00    -0.020 C 
BRANCH  30  31
ATOM     31  C   UNL     1      -6.001  -2.841   4.404  0.00  0.00    -0.086 C 
BRANCH  31  32
ATOM     32  N   UNL     1      -6.785  -3.969   4.925  0.00  0.00    +0.378 N 
ATOM     33  H   UNL     1      -7.265  -3.685   5.765  0.00  0.00    -0.090 HD
ATOM     34  H   UNL     1      -7.459  -4.258   4.233  0.00  0.00    -0.090 HD
ATOM     35  H   UNL     1      -6.167  -4.739   5.135  0.00  0.00    -0.090 HD
ENDBRANCH  31  32
ENDBRANCH  30  31
ENDBRANCH  29  30
ENDBRANCH  28  29
ENDBRANCH  27  28
ENDBRANCH  26  27
ENDBRANCH   1  26
TORSDOF 10
