REMARK  Name = ZINC39637274
REMARK  7 active torsions:
REMARK  status: ('A' for Active; 'I' for Inactive)
REMARK    1  A    between atoms: C_1  and  C_2
REMARK    2  A    between atoms: C_3  and  C_14
REMARK    3  A    between atoms: C_4  and  C_7
REMARK    4  A    between atoms: C_18  and  C_27
REMARK    5  A    between atoms: N_29  and  C_30
REMARK    6  A    between atoms: C_35  and  C_40
REMARK    7  A    between atoms: C_37  and  C_39
REMARK                            x       y       z     vdW  Elec       q    Type
REMARK                         _______ _______ _______ _____ _____    ______ ____
ROOT
ATOM      1  C   UNL     1      -2.661  -0.313   0.172  0.00  0.00    +0.252 C 
ATOM      2  O   UNL     1      -3.398  -0.214  -0.789  0.00  0.00    -0.270 OA
ATOM      3  N   UNL     1      -3.126  -0.045   1.409  0.00  0.00    -0.296 N 
ATOM      4  C   UNL     1      -2.364  -0.021   2.680  0.00  0.00    +0.121 C 
ATOM      5  C   UNL     1      -2.942   1.181   3.459  0.00  0.00    +0.100 C 
ATOM      6  C   UNL     1      -4.353   1.382   2.881  0.00  0.00    -0.004 C 
ATOM      7  C   UNL     1      -4.513   0.300   1.803  0.00  0.00    +0.115 C 
ATOM      8  C   UNL     1      -4.475   2.766   2.252  0.00  0.00    -0.010 C 
ATOM      9  C   UNL     1      -5.903   2.963   1.735  0.00  0.00    -0.082 C 
ATOM     10  N   UNL     1      -6.851   2.824   2.847  0.00  0.00    +0.379 N 
ATOM     11  C   UNL     1      -6.793   1.460   3.387  0.00  0.00    -0.082 C 
ATOM     12  C   UNL     1      -5.403   1.199   3.973  0.00  0.00    -0.010 C 
ATOM     13  H   UNL     1      -6.614   3.482   3.574  0.00  0.00    -0.086 HD
ATOM     14  H   UNL     1      -7.785   3.014   2.517  0.00  0.00    -0.086 HD
ENDROOT
BRANCH   1  17
ATOM     15  C   UNL     1      -0.277   1.571  -0.558  0.00  0.00    +0.090 C 
ATOM     16  C   UNL     1      -0.208   0.083  -0.332  0.00  0.00    +0.147 A 
ATOM     17  C   UNL     1      -1.259  -0.726  -0.014  0.00  0.00    +0.106 A 
ATOM     18  C   UNL     1      -0.723  -2.090   0.108  0.00  0.00    +0.127 A 
ATOM     19  N   UNL     1       0.561  -2.017  -0.135  0.00  0.00    -0.077 NA
ATOM     20  O   UNL     1       0.891  -0.671  -0.414  0.00  0.00    -0.359 OA
BRANCH  18  21
ATOM     21  C   UNL     1      -1.491  -3.314   0.441  0.00  0.00    +0.023 A 
ATOM     22  C   UNL     1      -2.864  -3.239   0.670  0.00  0.00    +0.011 A 
ATOM     23  C   UNL     1      -3.573  -4.381   0.980  0.00  0.00    +0.001 A 
ATOM     24  C   UNL     1      -2.925  -5.600   1.064  0.00  0.00    +0.001 A 
ATOM     25  C   UNL     1      -1.563  -5.682   0.839  0.00  0.00    +0.020 A 
ATOM     26  C   UNL     1      -0.843  -4.547   0.522  0.00  0.00    +0.050 A 
ATOM     27 CL   UNL     1       0.865  -4.652   0.232  0.00  0.00    -0.083 Cl
ENDBRANCH  18  21
ENDBRANCH   1  17
BRANCH   5  28
ATOM     28  C   UNL     1      -2.099   2.409   3.230  0.00  0.00    +0.218 C 
ATOM     29  O   UNL     1      -1.446   2.515   2.214  0.00  0.00    -0.275 OA
ATOM     30  N   UNL     1      -2.072   3.390   4.154  0.00  0.00    -0.312 N 
ATOM     31  H   UNL     1      -2.535   3.274   4.998  0.00  0.00    +0.149 HD
BRANCH  30  32
ATOM     32  C   UNL     1      -1.342   4.631   3.883  0.00  0.00    +0.076 C 
ATOM     33  C   UNL     1       0.141   4.430   4.203  0.00  0.00    +0.022 C 
ATOM     34  C   UNL     1       0.904   5.726   3.921  0.00  0.00    +0.002 C 
ATOM     35  C   UNL     1       0.341   6.849   4.794  0.00  0.00    +0.003 C 
ATOM     36  C   UNL     1      -1.141   7.050   4.474  0.00  0.00    -0.009 C 
ATOM     37  C   UNL     1      -1.904   5.754   4.756  0.00  0.00    +0.009 C 
ATOM     38  C   UNL     1      -1.747   5.381   6.232  0.00  0.00    +0.009 C 
ATOM     39  C   UNL     1      -1.704   8.174   5.347  0.00  0.00    +0.008 C 
ENDBRANCH  30  32
ENDBRANCH   5  28
TORSDOF 4
