REMARK  Name = ZINC01034519
REMARK  4 active torsions:
REMARK  status: ('A' for Active; 'I' for Inactive)
REMARK    1  A    between atoms: C_1  and  C_2
REMARK    2  A    between atoms: C_7  and  S_8
REMARK    3  A    between atoms: S_8  and  N_11
REMARK    4  A    between atoms: N_11  and  C_12
REMARK                            x       y       z     vdW  Elec       q    Type
REMARK                         _______ _______ _______ _____ _____    ______ ____
ROOT
ATOM      1  N   UNL     1      -3.032   5.032   3.347  0.00  0.00    -0.216 N 
ATOM      2  H   UNL     1      -3.636   4.438   3.820  0.00  0.00    +0.174 HD
ENDROOT
BRANCH   1   3
ATOM      3  C   UNL     1      -2.442   4.619   2.146  0.00  0.00    +0.052 A 
ATOM      4  C   UNL     1      -2.424   5.474   1.052  0.00  0.00    +0.026 A 
ATOM      5  C   UNL     1      -1.836   5.067  -0.130  0.00  0.00    +0.028 A 
ATOM      6  C   UNL     1      -1.264   3.808  -0.231  0.00  0.00    +0.072 A 
ATOM      7  C   UNL     1      -1.290   2.938   0.865  0.00  0.00    +0.143 A 
ATOM      8  C   UNL     1      -1.877   3.356   2.050  0.00  0.00    +0.072 A 
ATOM      9  O   UNL     1      -0.763   1.683   0.804  0.00  0.00    -0.488 OA
ATOM     10  C   UNL     1      -0.070   1.281  -0.390  0.00  0.00    +0.251 C 
ATOM     11  C   UNL     1      -0.813   1.918  -1.559  0.00  0.00    +0.111 C 
ATOM     12  N   UNL     1      -0.658   3.388  -1.397  0.00  0.00    -0.321 N 
ATOM     13  C   UNL     1      -1.029   3.968  -2.680  0.00  0.00    +0.106 C 
ATOM     14  C   UNL     1      -0.650   2.905  -3.744  0.00  0.00    +0.021 C 
ATOM     15  C   UNL     1      -0.149   1.681  -2.926  0.00  0.00    +0.027 C 
ENDBRANCH   1   3
BRANCH   1  16
ATOM     16  S   UNL     1      -2.698   6.533   3.960  0.00  0.00    +0.073 S 
ATOM     17  O   UNL     1      -2.946   7.463   2.915  0.00  0.00    -0.150 OA
ATOM     18  O   UNL     1      -3.349   6.611   5.221  0.00  0.00    -0.150 OA
BRANCH  16  25
ATOM     19  C   UNL     1      -1.288   4.774   5.976  0.00  0.00    +0.046 C 
ATOM     20  C   UNL     1      -0.412   5.745   5.226  0.00  0.00    -0.024 A 
ATOM     21  C   UNL     1       0.947   5.785   5.478  0.00  0.00    +0.008 A 
ATOM     22  C   UNL     1       1.751   6.678   4.795  0.00  0.00    +0.039 A 
ATOM     23  C   UNL     1       1.195   7.529   3.854  0.00  0.00    +0.125 A 
ATOM     24  C   UNL     1      -0.165   7.484   3.600  0.00  0.00    +0.067 A 
ATOM     25  C   UNL     1      -0.967   6.590   4.284  0.00  0.00    +0.114 A 
ATOM     26  F   UNL     1       1.980   8.403   3.186  0.00  0.00    -0.205 F 
ENDBRANCH  16  25
ENDBRANCH   1  16
TORSDOF 3
