REMARK  Name = ZINC28731043
REMARK  10 active torsions:
REMARK  status: ('A' for Active; 'I' for Inactive)
REMARK    1  A    between atoms: C_1  and  C_2
REMARK    2  A    between atoms: C_2  and  C_3
REMARK    3  A    between atoms: C_3  and  C_28
REMARK    4  A    between atoms: N_6  and  N_10
REMARK    5  A    between atoms: C_11  and  C_13
REMARK    6  A    between atoms: C_13  and  N_14
REMARK    7  A    between atoms: N_14  and  C_15
REMARK    8  A    between atoms: N_14  and  C_21
REMARK    9  A    between atoms: C_15  and  C_16
REMARK   10  A    between atoms: C_21  and  C_22
REMARK                            x       y       z     vdW  Elec       q    Type
REMARK                         _______ _______ _______ _____ _____    ______ ____
ROOT
ATOM      1  N   UNL     1       2.487   1.113   0.153  0.00  0.00    -0.225 N 
ATOM      2  C   UNL     1       2.978   0.729  -1.041  0.00  0.00    +0.213 C 
ATOM      3  O   UNL     1       2.291   0.819  -2.037  0.00  0.00    -0.276 OA
ATOM      4  H   UNL     1       3.109   1.032   1.056  0.00  0.00    +0.173 HD
ENDROOT
BRANCH   1   8
ATOM      5  C   UNL     1      -0.629   2.992   0.457  0.00  0.00    +0.139 C 
ATOM      6  C   UNL     1       0.884   2.921   0.412  0.00  0.00    +0.268 C 
ATOM      7  O   UNL     1       1.664   3.844   0.508  0.00  0.00    -0.271 OA
ATOM      8  N   UNL     1       1.183   1.617   0.245  0.00  0.00    -0.137 N 
ATOM      9  C   UNL     1       0.079   0.863   0.179  0.00  0.00    +0.327 C 
ATOM     10  O   UNL     1       0.093  -0.343   0.030  0.00  0.00    -0.251 OA
ATOM     11  N   UNL     1      -1.047   1.590   0.288  0.00  0.00    -0.280 N 
ATOM     12  H   UNL     1      -2.117   1.333   0.274  0.00  0.00    +0.152 HD
BRANCH   5  13
ATOM     13  C   UNL     1      -1.096   3.534   1.783  0.00  0.00    -0.015 A 
ATOM     14  C   UNL     1      -1.278   4.894   1.948  0.00  0.00    +0.006 A 
ATOM     15  C   UNL     1      -1.710   5.391   3.164  0.00  0.00    +0.000 A 
ATOM     16  C   UNL     1      -1.951   4.529   4.217  0.00  0.00    +0.000 A 
ATOM     17  C   UNL     1      -1.763   3.169   4.053  0.00  0.00    +0.000 A 
ATOM     18  C   UNL     1      -1.335   2.672   2.836  0.00  0.00    +0.006 A 
ENDBRANCH   5  13
BRANCH   5  20
ATOM     19  C   UNL     1      -0.825   3.185  -2.027  0.00  0.00    +0.007 C 
ATOM     20  C   UNL     1      -1.161   3.852  -0.692  0.00  0.00    +0.037 C 
ENDBRANCH   5  20
ENDBRANCH   1   8
BRANCH   2  21
ATOM     21  C   UNL     1       4.381   0.187  -1.140  0.00  0.00    +0.021 C 
BRANCH  21  22
ATOM     22  N   UNL     1       4.676  -0.158  -2.537  0.00  0.00    +0.390 N 
ATOM     23  H   UNL     1       3.867  -0.808  -2.902  0.00  0.00    -0.081 HD
BRANCH  22  24
ATOM     24  C   UNL     1       5.936  -0.904  -2.640  0.00  0.00    -0.035 C 
BRANCH  24  25
ATOM     25  C   UNL     1       6.123  -1.382  -4.057  0.00  0.00    -0.027 A 
ATOM     26  C   UNL     1       6.669  -0.731  -5.113  0.00  0.00    +0.009 A 
ATOM     27  C   UNL     1       6.737  -1.373  -6.335  0.00  0.00    +0.008 A 
ATOM     28  C   UNL     1       6.256  -2.635  -6.442  0.00  0.00    +0.045 A 
ATOM     29  S   UNL     1       5.688  -2.956  -4.779  0.00  0.00    -0.103 S 
ENDBRANCH  24  25
ENDBRANCH  22  24
BRANCH  22  30
ATOM     30  C   UNL     1       4.705   1.044  -3.381  0.00  0.00    -0.046 C 
BRANCH  30  31
ATOM     31  C   UNL     1       5.663   2.071  -2.773  0.00  0.00    +0.102 C 
ATOM     32  C   UNL     1       5.610   3.382  -3.586  0.00  0.00    +0.032 C 
ATOM     33  C   UNL     1       7.100   3.819  -3.604  0.00  0.00    +0.030 C 
ATOM     34  C   UNL     1       7.810   2.443  -3.653  0.00  0.00    +0.160 C 
ATOM     35  O   UNL     1       7.006   1.578  -2.835  0.00  0.00    -0.378 OA
ENDBRANCH  30  31
ENDBRANCH  22  30
ENDBRANCH  21  22
ENDBRANCH   2  21
TORSDOF 9
