REMARK  Name = ZINC09280252
REMARK  13 active torsions:
REMARK  status: ('A' for Active; 'I' for Inactive)
REMARK    1  A    between atoms: C_1  and  C_2
REMARK    2  A    between atoms: C_2  and  C_3
REMARK    3  A    between atoms: C_2  and  C_4
REMARK    4  A    between atoms: C_2  and  C_5
REMARK    5  A    between atoms: C_8  and  C_11
REMARK    6  A    between atoms: C_14  and  C_15
REMARK    7  A    between atoms: C_14  and  O_26
REMARK    8  A    between atoms: C_21  and  O_24
REMARK    9  A    between atoms: O_24  and  C_25
REMARK   10  A    between atoms: N_31  and  C_32
REMARK   11  A    between atoms: C_32  and  C_33
REMARK   12  A    between atoms: C_33  and  C_34
REMARK   13  A    between atoms: C_34  and  N_75
REMARK                            x       y       z     vdW  Elec       q    Type
REMARK                         _______ _______ _______ _____ _____    ______ ____
ROOT
ATOM      1  C   UNL     1       1.448  -0.387  -0.185  0.00  0.00    +0.145 C 
ATOM      2  C   UNL     1       0.005  -0.009   0.054  0.00  0.00    +0.074 C 
ATOM      3  C   UNL     1      -1.094  -0.851   0.007  0.00  0.00    +0.168 C 
ATOM      4  C   UNL     1       0.002   1.364   0.332  0.00  0.00    +0.249 C 
ATOM      5  O   UNL     1      -0.982   2.041   0.574  0.00  0.00    -0.282 OA
ATOM      6  C   UNL     1       1.404   1.854   0.272  0.00  0.00    +0.288 C 
ATOM      7  O   UNL     1       1.749   3.002   0.465  0.00  0.00    -0.266 OA
ATOM      8  N   UNL     1       2.235   0.840  -0.026  0.00  0.00    -0.284 N 
ENDROOT
BRANCH   3   9
ATOM      9  C   UNL     1      -2.443  -0.300   0.134  0.00  0.00    +0.171 A 
ATOM     10  C   UNL     1      -3.420  -0.788   0.949  0.00  0.00    +0.061 A 
ATOM     11  C   UNL     1      -4.558   0.036   0.766  0.00  0.00    +0.025 A 
ATOM     12  C   UNL     1      -5.847   0.043   1.314  0.00  0.00    +0.012 A 
ATOM     13  C   UNL     1      -6.749   0.989   0.920  0.00  0.00    +0.004 A 
ATOM     14  C   UNL     1      -6.399   1.948  -0.022  0.00  0.00    +0.049 A 
ATOM     15  C   UNL     1      -5.133   1.962  -0.576  0.00  0.00    +0.163 A 
ATOM     16  C   UNL     1      -4.197   1.004  -0.188  0.00  0.00    +0.177 A 
ATOM     17  O   UNL     1      -2.917   0.768  -0.543  0.00  0.00    -0.448 OA
BRANCH  15  18
ATOM     18  O   UNL     1      -4.801   2.906  -1.497  0.00  0.00    -0.491 OA
ATOM     19  C   UNL     1      -5.811   3.855  -1.846  0.00  0.00    +0.277 C 
ENDBRANCH  15  18
ENDBRANCH   3   9
BRANCH   1  23
ATOM     20  C   UNL     1       2.690  -3.305   2.677  0.00  0.00    -0.042 A 
ATOM     21  C   UNL     1       2.362  -3.693   1.392  0.00  0.00    +0.004 A 
ATOM     22  C   UNL     1       1.960  -2.749   0.466  0.00  0.00    +0.006 A 
ATOM     23  C   UNL     1       1.887  -1.416   0.825  0.00  0.00    -0.022 A 
ATOM     24  C   UNL     1       2.220  -1.027   2.109  0.00  0.00    +0.006 A 
ATOM     25  C   UNL     1       2.618  -1.972   3.036  0.00  0.00    +0.004 A 
BRANCH  20  27
ATOM     26  C   UNL     1       4.388  -5.041   3.182  0.00  0.00    +0.015 C 
ATOM     27  C   UNL     1       3.128  -4.334   3.687  0.00  0.00    -0.013 C 
ATOM     28  C   UNL     1       3.430  -3.645   5.020  0.00  0.00    +0.015 C 
ATOM     29  C   UNL     1       2.012  -5.361   3.885  0.00  0.00    +0.015 C 
ENDBRANCH  20  27
ENDBRANCH   1  23
BRANCH   3  30
ATOM     30  O   UNL     1      -0.920  -2.181  -0.155  0.00  0.00    -0.503 OA
ATOM     31  H   UNL     1      -1.811  -2.635  -0.166  0.00  0.00    +0.292 HD
ENDBRANCH   3  30
BRANCH   8  32
ATOM     32  C   UNL     1       3.689   0.945  -0.169  0.00  0.00    +0.107 C 
BRANCH  32  33
ATOM     33  C   UNL     1       4.036   1.265  -1.624  0.00  0.00    +0.000 C 
BRANCH  33  34
ATOM     34  C   UNL     1       5.555   1.374  -1.774  0.00  0.00    -0.077 C 
BRANCH  34  40
ATOM     35  C   UNL     1       5.536   0.561  -4.055  0.00  0.00    -0.050 C 
ATOM     36  C   UNL     1       5.845   0.946  -5.505  0.00  0.00    +0.141 C 
ATOM     37  O   UNL     1       7.224   1.309  -5.613  0.00  0.00    -0.383 OA
ATOM     38  C   UNL     1       7.601   2.397  -4.766  0.00  0.00    +0.141 C 
ATOM     39  C   UNL     1       7.311   2.027  -3.309  0.00  0.00    -0.050 C 
ATOM     40  N   UNL     1       5.875   1.702  -3.180  0.00  0.00    +0.383 N 
ATOM     41  H   UNL     1       5.321   2.518  -3.466  0.00  0.00    -0.082 HD
ENDBRANCH  34  40
ENDBRANCH  33  34
ENDBRANCH  32  33
ENDBRANCH   8  32
TORSDOF 9
