REMARK  Name = ZINC39711251
REMARK  10 active torsions:
REMARK  status: ('A' for Active; 'I' for Inactive)
REMARK    1  A    between atoms: C_1  and  C_2
REMARK    2  A    between atoms: C_6  and  C_15
REMARK    3  A    between atoms: C_13  and  C_14
REMARK    4  A    between atoms: C_15  and  C_17
REMARK    5  A    between atoms: C_15  and  N_28
REMARK    6  A    between atoms: N_22  and  C_23
REMARK    7  A    between atoms: N_28  and  C_29
REMARK    8  A    between atoms: N_28  and  C_36
REMARK    9  A    between atoms: C_29  and  C_30
REMARK   10  A    between atoms: C_36  and  C_37
REMARK                            x       y       z     vdW  Elec       q    Type
REMARK                         _______ _______ _______ _____ _____    ______ ____
ROOT
ATOM      1  C   UNL     1       0.983  -5.921  -2.762  0.00  0.00    -0.009 C 
ENDROOT
BRANCH   1   7
ATOM      2  C   UNL     1      -5.732  -4.012  -4.270  0.00  0.00    +0.044 C 
ATOM      3  C   UNL     1      -4.312  -3.725  -3.852  0.00  0.00    -0.047 A 
ATOM      4  C   UNL     1      -3.562  -4.724  -3.320  0.00  0.00    +0.013 A 
ATOM      5  C   UNL     1      -2.185  -4.434  -2.918  0.00  0.00    -0.007 A 
ATOM      6  C   UNL     1      -1.394  -5.405  -2.379  0.00  0.00    -0.006 C 
ATOM      7  C   UNL     1       0.019  -5.016  -1.992  0.00  0.00    +0.088 C 
ATOM      8  C   UNL     1       0.436  -3.583  -2.235  0.00  0.00    +0.223 C 
ATOM      9  O   UNL     1       1.559  -3.216  -1.944  0.00  0.00    -0.275 OA
ATOM     10  N   UNL     1      -0.424  -2.730  -2.766  0.00  0.00    -0.285 N 
ATOM     11  C   UNL     1      -1.667  -3.068  -3.108  0.00  0.00    +0.041 A 
ATOM     12  C   UNL     1      -2.528  -2.107  -3.669  0.00  0.00    +0.027 A 
ATOM     13  C   UNL     1      -3.795  -2.441  -4.026  0.00  0.00    -0.046 A 
ATOM     14  C   UNL     1      -4.680  -1.381  -4.629  0.00  0.00    +0.044 C 
ATOM     15  H   UNL     1      -0.136  -1.815  -2.914  0.00  0.00    +0.155 HD
ENDBRANCH   1   7
BRANCH   1  16
ATOM     16  C   UNL     1       0.701  -5.810  -4.261  0.00  0.00    +0.205 C 
ATOM     17  N   UNL     1       1.676  -6.597  -5.027  0.00  0.00    -0.152 NA
ATOM     18  N   UNL     1       2.306  -5.840  -5.768  0.00  0.00    -0.070 NA
ATOM     19  N   UNL     1       1.907  -4.509  -5.651  0.00  0.00    -0.179 N 
ATOM     20  N   UNL     1       0.900  -4.419  -4.722  0.00  0.00    -0.185 NA
ATOM     21  H   UNL     1       2.280  -3.765  -6.147  0.00  0.00    +0.191 HD
BRANCH  20  22
ATOM     22  C   UNL     1      -0.329  -3.883  -5.323  0.00  0.00    +0.080 C 
ATOM     23  C   UNL     1      -0.593  -4.565  -6.682  0.00  0.00    +0.021 C 
ATOM     24  C   UNL     1      -1.164  -3.432  -7.571  0.00  0.00    +0.002 C 
ATOM     25  C   UNL     1      -0.331  -2.202  -7.133  0.00  0.00    +0.002 C 
ATOM     26  C   UNL     1      -0.162  -2.381  -5.611  0.00  0.00    +0.021 C 
ENDBRANCH  20  22
ENDBRANCH   1  16
BRANCH   1  27
ATOM     27  N   UNL     1       0.797  -7.313  -2.330  0.00  0.00    +0.390 N 
ATOM     28  H   UNL     1      -0.118  -7.632  -2.610  0.00  0.00    -0.080 HD
BRANCH  27  29
ATOM     29  C   UNL     1       0.917  -7.393  -0.869  0.00  0.00    -0.042 C 
BRANCH  29  30
ATOM     30  C   UNL     1       2.209  -6.749  -0.435  0.00  0.00    -0.064 A 
ATOM     31  C   UNL     1       3.395  -7.455  -0.517  0.00  0.00    +0.002 A 
ATOM     32  C   UNL     1       4.580  -6.864  -0.119  0.00  0.00    +0.000 A 
ATOM     33  C   UNL     1       4.578  -5.567   0.360  0.00  0.00    +0.000 A 
ATOM     34  C   UNL     1       3.393  -4.861   0.442  0.00  0.00    +0.000 A 
ATOM     35  C   UNL     1       2.208  -5.451   0.040  0.00  0.00    +0.002 A 
ENDBRANCH  29  30
ENDBRANCH  27  29
BRANCH  27  36
ATOM     36  C   UNL     1       1.823  -8.160  -2.953  0.00  0.00    -0.040 C 
BRANCH  36  37
ATOM     37  C   UNL     1       1.511  -9.609  -2.680  0.00  0.00    -0.046 A 
ATOM     38  C   UNL     1       1.893 -10.196  -1.483  0.00  0.00    +0.005 A 
ATOM     39  C   UNL     1       1.585 -11.532  -1.276  0.00  0.00    +0.020 A 
ATOM     40  C   UNL     1       0.913 -12.229  -2.262  0.00  0.00    +0.111 A 
ATOM     41  N   UNL     1       0.567 -11.639  -3.389  0.00  0.00    -0.263 NA
ATOM     42  C   UNL     1       0.837 -10.368  -3.618  0.00  0.00    +0.112 A 
ENDBRANCH  36  37
ENDBRANCH  27  36
ENDBRANCH   1  27
TORSDOF 8
