REMARK  Name = ZINC13199404
REMARK  6 active torsions:
REMARK  status: ('A' for Active; 'I' for Inactive)
REMARK    1  A    between atoms: C_1  and  N_2
REMARK    2  A    between atoms: C_8  and  C_26
REMARK    3  A    between atoms: C_12  and  S_13
REMARK    4  A    between atoms: S_13  and  C_14
REMARK    5  A    between atoms: C_14  and  C_15
REMARK    6  A    between atoms: N_17  and  C_18
REMARK                            x       y       z     vdW  Elec       q    Type
REMARK                         _______ _______ _______ _____ _____    ______ ____
ROOT
ATOM      1  C   UNL     1       1.129   4.516  -0.044  0.00  0.00    +0.154 C 
ATOM      2  N   UNL     1       2.120   3.438  -0.056  0.00  0.00    -0.290 N 
ATOM      3  C   UNL     1       3.439   3.740  -0.072  0.00  0.00    +0.262 A 
ATOM      4  O   UNL     1       3.822   4.895  -0.077  0.00  0.00    -0.267 OA
ATOM      5  C   UNL     1       4.394   2.620  -0.089  0.00  0.00    +0.065 A 
ATOM      6  C   UNL     1       5.772   2.832  -0.113  0.00  0.00    +0.016 A 
ATOM      7  C   UNL     1       6.625   1.766  -0.129  0.00  0.00    +0.016 A 
ATOM      8  C   UNL     1       6.128   0.456  -0.121  0.00  0.00    +0.065 A 
ATOM      9  C   UNL     1       4.760   0.221  -0.098  0.00  0.00    +0.043 A 
ATOM     10  C   UNL     1       3.877   1.304  -0.082  0.00  0.00    +0.080 A 
ATOM     11  N   UNL     1       2.535   1.123  -0.059  0.00  0.00    -0.223 NA
ATOM     12  C   UNL     1       1.706   2.137  -0.044  0.00  0.00    +0.172 A 
ENDROOT
BRANCH   8  13
ATOM     13  C   UNL     1       7.069  -0.686  -0.139  0.00  0.00    +0.387 C 
ATOM     14  O   UNL     1       6.644  -1.823  -0.133  0.00  0.00    -0.241 OA
ATOM     15  O   UNL     1       8.398  -0.463  -0.161  0.00  0.00    -0.241 OA
ENDBRANCH   8  13
BRANCH  12  16
ATOM     16  S   UNL     1      -0.025   1.807  -0.016  0.00  0.00    -0.078 S 
BRANCH  16  17
ATOM     17  C   UNL     1       0.001  -0.003  -0.018  0.00  0.00    +0.173 C 
BRANCH  17  18
ATOM     18  C   UNL     1      -1.412  -0.526   0.005  0.00  0.00    +0.228 C 
ATOM     19  O   UNL     1      -2.345   0.250   0.022  0.00  0.00    -0.275 OA
ATOM     20  N   UNL     1      -1.640  -1.854   0.008  0.00  0.00    -0.283 N 
ATOM     21  H   UNL     1      -0.898  -2.473  -0.070  0.00  0.00    +0.155 HD
BRANCH  20  22
ATOM     22  C   UNL     1      -2.949  -2.340   0.123  0.00  0.00    +0.069 A 
ATOM     23  C   UNL     1      -4.002  -1.645  -0.454  0.00  0.00    +0.027 A 
ATOM     24  C   UNL     1      -5.292  -2.126  -0.339  0.00  0.00    +0.022 A 
ATOM     25  C   UNL     1      -5.535  -3.301   0.351  0.00  0.00    +0.044 A 
ATOM     26  C   UNL     1      -4.488  -3.997   0.928  0.00  0.00    +0.060 A 
ATOM     27  C   UNL     1      -3.194  -3.523   0.812  0.00  0.00    +0.146 A 
ATOM     28  F   UNL     1      -2.171  -4.206   1.370  0.00  0.00    -0.203 F 
ATOM     29 CL   UNL     1      -7.158  -3.902   0.494  0.00  0.00    -0.083 Cl
ENDBRANCH  20  22
ENDBRANCH  17  18
ENDBRANCH  16  17
ENDBRANCH  12  16
TORSDOF 5
