REMARK  Name = ZINC05306269
REMARK  5 active torsions:
REMARK  status: ('A' for Active; 'I' for Inactive)
REMARK    1  A    between atoms: C_1  and  C_2
REMARK    2  A    between atoms: C_6  and  C_24
REMARK    3  A    between atoms: C_8  and  C_17
REMARK    4  A    between atoms: C_10  and  C_14
REMARK    5  A    between atoms: C_24  and  C_26
REMARK                            x       y       z     vdW  Elec       q    Type
REMARK                         _______ _______ _______ _____ _____    ______ ____
ROOT
ATOM      1  C   UNL     1      -1.844   4.321  -0.612  0.00  0.00    +0.043 C 
ATOM      2  C   UNL     1      -0.693   3.450  -0.180  0.00  0.00    -0.052 C 
ATOM      3  C   UNL     1       0.462   4.023   0.168  0.00  0.00    -0.002 C 
ATOM      4  C   UNL     1       1.610   3.142   0.593  0.00  0.00    +0.091 C 
ATOM      5  C   UNL     1       2.956   3.714   0.117  0.00  0.00    +0.092 C 
ATOM      6  C   UNL     1       3.770   2.424  -0.182  0.00  0.00    +0.059 C 
ATOM      7  C   UNL     1       2.686   1.493  -0.781  0.00  0.00    +0.151 C 
ATOM      8  C   UNL     1       0.221   1.190  -0.130  0.00  0.00    +0.053 C 
ATOM      9  C   UNL     1      -0.869   1.993  -0.158  0.00  0.00    +0.016 C 
ATOM     10  N   UNL     1       1.583   1.756   0.202  0.00  0.00    -0.384 NA
ATOM     11  H   UNL     1       1.859   1.243   1.048  0.00  0.00    +0.127 HD
ENDROOT
BRANCH   6  12
ATOM     12  C   UNL     1       4.861   2.696  -1.186  0.00  0.00    -0.041 A 
ATOM     13  C   UNL     1       6.176   2.403  -0.875  0.00  0.00    +0.005 A 
ATOM     14  C   UNL     1       7.175   2.647  -1.797  0.00  0.00    +0.020 A 
ATOM     15  C   UNL     1       6.862   3.195  -3.029  0.00  0.00    +0.041 A 
ATOM     16  C   UNL     1       5.546   3.494  -3.337  0.00  0.00    +0.020 A 
ATOM     17  C   UNL     1       4.547   3.244  -2.416  0.00  0.00    +0.005 A 
ATOM     18 CL   UNL     1       8.118   3.508  -4.185  0.00  0.00    -0.084 Cl
ENDBRANCH   6  12
BRANCH   7  19
ATOM     19  C   UNL     1       2.562   1.726  -2.265  0.00  0.00    +0.230 C 
ATOM     20  O   UNL     1       1.632   2.370  -2.702  0.00  0.00    -0.274 OA
ATOM     21  N   UNL     1       3.485   1.218  -3.106  0.00  0.00    -0.328 N 
ATOM     22  H   UNL     1       4.229   0.704  -2.756  0.00  0.00    +0.145 HD
ATOM     23  H   UNL     1       3.405   1.368  -4.061  0.00  0.00    +0.145 HD
ENDBRANCH   7  19
BRANCH   5  24
ATOM     24  C   UNL     1       2.778   4.540  -1.131  0.00  0.00    +0.169 C 
ATOM     25  O   UNL     1       1.822   4.351  -1.853  0.00  0.00    -0.292 OA
BRANCH  24  26
ATOM     26  C   UNL     1       3.764   5.577  -1.475  0.00  0.00    +0.018 A 
ATOM     27  C   UNL     1       4.865   5.802  -0.643  0.00  0.00    +0.011 A 
ATOM     28  C   UNL     1       5.788   6.772  -0.974  0.00  0.00    +0.001 A 
ATOM     29  C   UNL     1       5.621   7.528  -2.121  0.00  0.00    +0.000 A 
ATOM     30  C   UNL     1       4.531   7.314  -2.947  0.00  0.00    +0.001 A 
ATOM     31  C   UNL     1       3.603   6.345  -2.632  0.00  0.00    +0.011 A 
ENDBRANCH  24  26
ENDBRANCH   5  24
TORSDOF 4
