REMARK  Name = ZINC36586788
REMARK  19 active torsions:
REMARK  status: ('A' for Active; 'I' for Inactive)
REMARK    1  A    between atoms: C_1  and  C_2
REMARK    2  A    between atoms: C_3  and  C_4
REMARK    3  A    between atoms: C_4  and  C_6
REMARK    4  A    between atoms: C_4  and  N_17
REMARK    5  A    between atoms: N_8  and  C_9
REMARK    6  A    between atoms: C_9  and  C_10
REMARK    7  A    between atoms: C_9  and  C_11
REMARK    8  A    between atoms: C_9  and  C_12
REMARK    9  A    between atoms: C_12  and  C_13
REMARK   10  A    between atoms: C_13  and  C_14
REMARK   11  A    between atoms: C_13  and  C_15
REMARK   12  A    between atoms: C_13  and  C_16
REMARK   13  A    between atoms: N_17  and  C_28
REMARK   14  A    between atoms: C_18  and  C_20
REMARK   15  A    between atoms: C_21  and  O_27
REMARK   16  A    between atoms: C_25  and  O_26
REMARK   17  A    between atoms: C_28  and  C_29
REMARK   18  A    between atoms: C_28  and  C_30
REMARK   19  A    between atoms: C_28  and  C_31
REMARK                            x       y       z     vdW  Elec       q    Type
REMARK                         _______ _______ _______ _____ _____    ______ ____
ROOT
ATOM      1  N   UNL     1       1.084  -3.959  -0.636  0.00  0.00    -0.277 N 
ATOM      2  C   UNL     1       0.554  -5.191  -0.776  0.00  0.00    +0.255 C 
ATOM      3  O   UNL     1       0.518  -5.716  -1.872  0.00  0.00    -0.270 OA
ENDROOT
BRANCH   2   4
ATOM      4  C   UNL     1       0.019  -5.900   0.398  0.00  0.00    +0.119 A 
ATOM      5  C   UNL     1      -1.348  -5.833   0.701  0.00  0.00    +0.133 A 
ATOM      6  C   UNL     1      -1.841  -6.505   1.808  0.00  0.00    +0.046 A 
ATOM      7  C   UNL     1      -0.990  -7.238   2.614  0.00  0.00    +0.007 A 
ATOM      8  C   UNL     1       0.360  -7.309   2.325  0.00  0.00    +0.046 A 
ATOM      9  C   UNL     1       0.873  -6.651   1.219  0.00  0.00    +0.133 A 
BRANCH   9  10
ATOM     10  O   UNL     1       2.197  -6.728   0.935  0.00  0.00    -0.506 OA
ATOM     11  H   UNL     1       2.730  -6.036   1.351  0.00  0.00    +0.292 HD
ENDBRANCH   9  10
BRANCH   5  12
ATOM     12  O   UNL     1      -2.186  -5.114  -0.088  0.00  0.00    -0.506 OA
ATOM     13  H   UNL     1      -2.573  -5.621  -0.815  0.00  0.00    +0.292 HD
ENDBRANCH   5  12
ENDBRANCH   2   4
BRANCH   1  14
ATOM     14  C   UNL     1       0.958  -3.248   0.638  0.00  0.00    +0.030 C 
ATOM     15  C   UNL     1       1.432  -1.804   0.465  0.00  0.00    +0.031 C 
ATOM     16  C   UNL     1      -0.506  -3.254   1.082  0.00  0.00    +0.031 C 
ATOM     17  C   UNL     1       1.815  -3.943   1.698  0.00  0.00    +0.031 C 
ENDBRANCH   1  14
BRANCH   1  18
ATOM     18  C   UNL     1       1.787  -3.333  -1.759  0.00  0.00    +0.186 C 
BRANCH  18  19
ATOM     19  C   UNL     1       3.154  -2.886  -1.309  0.00  0.00    +0.238 C 
ATOM     20  O   UNL     1       3.593  -3.258  -0.241  0.00  0.00    -0.273 OA
ATOM     21  N   UNL     1       3.890  -2.075  -2.094  0.00  0.00    -0.308 N 
ATOM     22  H   UNL     1       3.540  -1.778  -2.948  0.00  0.00    +0.149 HD
BRANCH  21  23
ATOM     23  C   UNL     1       5.220  -1.641  -1.657  0.00  0.00    +0.030 C 
ATOM     24  C   UNL     1       5.076  -0.566  -0.579  0.00  0.00    +0.031 C 
ATOM     25  C   UNL     1       5.984  -2.837  -1.086  0.00  0.00    +0.031 C 
BRANCH  23  26
ATOM     26  C   UNL     1       5.987  -1.068  -2.850  0.00  0.00    +0.031 C 
BRANCH  26  27
ATOM     27  C   UNL     1       5.554  -1.788  -4.129  0.00  0.00    -0.036 C 
ATOM     28  C   UNL     1       4.237  -1.191  -4.629  0.00  0.00    +0.010 C 
ATOM     29  C   UNL     1       6.631  -1.616  -5.201  0.00  0.00    +0.010 C 
ATOM     30  C   UNL     1       5.359  -3.277  -3.835  0.00  0.00    +0.010 C 
ENDBRANCH  26  27
ENDBRANCH  23  26
ENDBRANCH  21  23
ENDBRANCH  18  19
BRANCH  18  33
ATOM     31  C   UNL     1      -0.904  -0.619  -2.103  0.00  0.00    +0.035 C 
ATOM     32  C   UNL     1      -0.188  -1.897  -1.748  0.00  0.00    -0.032 C 
ATOM     33  C   UNL     1       1.002  -2.139  -2.239  0.00  0.00    +0.000 C 
ENDBRANCH  18  33
ENDBRANCH   1  18
TORSDOF 10
