REMARK  Name = ZINC21129250
REMARK  8 active torsions:
REMARK  status: ('A' for Active; 'I' for Inactive)
REMARK    1  A    between atoms: C_3  and  N_29
REMARK    2  A    between atoms: C_6  and  C_7
REMARK    3  A    between atoms: N_9  and  N_10
REMARK    4  A    between atoms: C_11  and  C_13
REMARK    5  A    between atoms: C_13  and  S_14
REMARK    6  A    between atoms: S_14  and  C_15
REMARK    7  A    between atoms: C_18  and  C_21
REMARK    8  A    between atoms: N_19  and  N_20
REMARK                            x       y       z     vdW  Elec       q    Type
REMARK                         _______ _______ _______ _____ _____    ______ ____
ROOT
ATOM      1  C   UNL     1       3.645  -6.430  -0.690  0.00  0.00    +0.174 C 
ENDROOT
BRANCH   1   3
ATOM      2  N   UNL     1       2.427  -4.314  -1.088  0.00  0.00    -0.233 N 
ATOM      3  C   UNL     1       3.608  -4.941  -0.917  0.00  0.00    +0.239 C 
ATOM      4  O   UNL     1       4.641  -4.306  -0.947  0.00  0.00    -0.273 OA
ATOM      5  H   UNL     1       1.490  -4.890  -1.061  0.00  0.00    +0.173 HD
BRANCH   2   8
ATOM      6  C   UNL     1       1.212  -2.303  -1.470  0.00  0.00    +0.260 C 
ATOM      7  O   UNL     1       0.177  -2.939  -1.440  0.00  0.00    -0.269 OA
ATOM      8  N   UNL     1       2.393  -2.930  -1.299  0.00  0.00    -0.230 N 
ATOM      9  H   UNL     1       3.330  -2.354  -1.326  0.00  0.00    +0.173 HD
BRANCH   6  15
ATOM     10  C   UNL     1      -0.046  -0.190  -1.870  0.00  0.00    +0.015 A 
ATOM     11  C   UNL     1      -0.072   1.174  -2.077  0.00  0.00    +0.033 A 
ATOM     12  C   UNL     1       1.108   1.895  -2.110  0.00  0.00    +0.126 A 
ATOM     13  C   UNL     1       2.322   1.255  -1.935  0.00  0.00    +0.033 A 
ATOM     14  C   UNL     1       2.363  -0.108  -1.727  0.00  0.00    +0.015 A 
ATOM     15  C   UNL     1       1.176  -0.842  -1.693  0.00  0.00    +0.038 A 
BRANCH  12  16
ATOM     16  N   UNL     1       1.072   3.358  -2.333  0.00  0.00    +0.056 N 
ATOM     17  O   UNL     1       0.004   3.924  -2.487  0.00  0.00    -0.126 OA
ATOM     18  O   UNL     1       2.109   3.995  -2.362  0.00  0.00    -0.126 OA
ENDBRANCH  12  16
ENDBRANCH   6  15
ENDBRANCH   2   8
ENDBRANCH   1   3
BRANCH   1  19
ATOM     19  S   UNL     1       5.362  -6.969  -0.498  0.00  0.00    -0.075 S 
BRANCH  19  20
ATOM     20  C   UNL     1       5.116  -8.696  -0.253  0.00  0.00    +0.209 A 
ATOM     21  N   UNL     1       3.961  -9.323  -0.227  0.00  0.00    -0.121 NA
ATOM     22  N   UNL     1       4.145 -10.579  -0.031  0.00  0.00    -0.127 NA
ATOM     23  C   UNL     1       5.427 -10.831   0.089  0.00  0.00    +0.183 A 
ATOM     24  N   UNL     1       6.089  -9.633  -0.049  0.00  0.00    -0.224 N 
BRANCH  23  25
ATOM     25  C   UNL     1       6.045 -12.153   0.328  0.00  0.00    +0.040 A 
ATOM     26  C   UNL     1       7.027 -12.301   1.308  0.00  0.00    +0.033 A 
ATOM     27  C   UNL     1       7.600 -13.538   1.526  0.00  0.00    +0.042 A 
ATOM     28  C   UNL     1       7.201 -14.631   0.774  0.00  0.00    +0.021 A 
ATOM     29  C   UNL     1       6.228 -14.491  -0.199  0.00  0.00    +0.022 A 
ATOM     30  C   UNL     1       5.644 -13.260  -0.422  0.00  0.00    +0.052 A 
ATOM     31 CL   UNL     1       4.417 -13.088  -1.639  0.00  0.00    -0.083 Cl
ATOM     32 CL   UNL     1       8.822 -13.724   2.744  0.00  0.00    -0.084 Cl
ENDBRANCH  23  25
BRANCH  24  33
ATOM     33  N   UNL     1       7.438  -9.423   0.006  0.00  0.00    -0.295 N 
ATOM     34  H   UNL     1       8.119 -10.269   0.177  0.00  0.00    +0.163 HD
ATOM     35  H   UNL     1       7.842  -8.408  -0.121  0.00  0.00    +0.163 HD
ENDBRANCH  24  33
ENDBRANCH  19  20
ENDBRANCH   1  19
TORSDOF 8
