REMARK  Name = ZINC09383101
REMARK  13 active torsions:
REMARK  status: ('A' for Active; 'I' for Inactive)
REMARK    1  A    between atoms: C_1  and  C_2
REMARK    2  A    between atoms: C_2  and  O_3
REMARK    3  A    between atoms: O_3  and  C_4
REMARK    4  A    between atoms: C_4  and  C_6
REMARK    5  A    between atoms: C_10  and  N_11
REMARK    6  A    between atoms: C_12  and  C_14
REMARK    7  A    between atoms: C_18  and  S_20
REMARK    8  A    between atoms: S_20  and  C_23
REMARK    9  A    between atoms: C_23  and  C_24
REMARK   10  A    between atoms: C_25  and  C_30
REMARK   11  A    between atoms: C_25  and  C_31
REMARK   12  A    between atoms: C_26  and  C_28
REMARK   13  A    between atoms: C_26  and  C_29
REMARK                            x       y       z     vdW  Elec       q    Type
REMARK                         _______ _______ _______ _____ _____    ______ ____
ROOT
ATOM      1  C   UNL     1       5.611   1.912   7.594  0.00  0.00    +0.091 A 
ATOM      2  C   UNL     1       6.643   2.862   7.952  0.00  0.00    -0.024 A 
ATOM      3  C   UNL     1       6.665   4.003   7.223  0.00  0.00    -0.016 A 
ATOM      4  S   UNL     1       5.338   3.819   6.067  0.00  0.00    -0.079 S 
ATOM      5  C   UNL     1       4.763   2.256   6.546  0.00  0.00    +0.086 A 
ATOM      6  C   UNL     1       7.609   5.148   7.391  0.00  0.00    -0.041 C 
ATOM      7  C   UNL     1       8.948   3.430   8.613  0.00  0.00    -0.069 C 
ATOM      8  C   UNL     1       7.683   2.682   9.049  0.00  0.00    +0.024 C 
ATOM      9  C   UNL     1       9.556   2.727   7.396  0.00  0.00    -0.010 C 
ATOM     10  C   UNL     1       9.966   3.347   9.765  0.00  0.00    -0.010 C 
ATOM     11  C   UNL     1       8.192   5.531   6.024  0.00  0.00    -0.005 C 
ATOM     12  C   UNL     1       6.817   6.356   7.926  0.00  0.00    -0.005 C 
ATOM     13  N   UNL     1       8.714   4.874   8.355  0.00  0.00    +0.389 N 
ATOM     14  H   UNL     1       8.484   5.328   9.246  0.00  0.00    -0.084 HD
ATOM     15  H   UNL     1       9.579   5.279   7.978  0.00  0.00    -0.084 HD
ENDROOT
BRANCH   5  16
ATOM     16  N   UNL     1       3.713   1.525   6.016  0.00  0.00    -0.275 N 
ATOM     17  C   UNL     1       2.994   2.024   4.991  0.00  0.00    +0.249 C 
ATOM     18  O   UNL     1       3.268   3.115   4.530  0.00  0.00    -0.270 OA
ATOM     19  H   UNL     1       3.494   0.655   6.383  0.00  0.00    +0.156 HD
BRANCH  17  20
ATOM     20  C   UNL     1       1.873   1.244   4.426  0.00  0.00    +0.039 A 
ATOM     21  C   UNL     1       1.555  -0.009   4.952  0.00  0.00    +0.013 A 
ATOM     22  C   UNL     1       0.507  -0.732   4.420  0.00  0.00    +0.003 A 
ATOM     23  C   UNL     1      -0.231  -0.215   3.371  0.00  0.00    +0.027 A 
ATOM     24  C   UNL     1       0.082   1.024   2.841  0.00  0.00    +0.089 A 
ATOM     25  C   UNL     1       1.127   1.758   3.363  0.00  0.00    +0.040 A 
BRANCH  24  26
ATOM     26  S   UNL     1      -0.862   1.671   1.500  0.00  0.00    -0.003 S 
ATOM     27  O   UNL     1      -0.735   3.082   1.615  0.00  0.00    -0.169 OA
ATOM     28  O   UNL     1      -2.133   1.046   1.617  0.00  0.00    -0.169 OA
BRANCH  26  29
ATOM     29  C   UNL     1      -0.013   1.086   0.008  0.00  0.00    +0.168 C 
ATOM     30  C   UNL     1      -0.753   1.593  -1.232  0.00  0.00    +0.028 C 
ENDBRANCH  26  29
ENDBRANCH  24  26
ENDBRANCH  17  20
ENDBRANCH   5  16
BRANCH   1  31
ATOM     31  C   UNL     1       5.454   0.639   8.300  0.00  0.00    +0.342 C 
ATOM     32  O   UNL     1       6.046  -0.350   7.911  0.00  0.00    -0.245 OA
BRANCH  31  33
ATOM     33  O   UNL     1       4.652   0.563   9.383  0.00  0.00    -0.461 OA
BRANCH  33  35
ATOM     34  C   UNL     1       3.598  -0.622  11.231  0.00  0.00    +0.048 C 
ATOM     35  C   UNL     1       4.543  -0.731  10.033  0.00  0.00    +0.229 C 
ENDBRANCH  33  35
ENDBRANCH  31  33
ENDBRANCH   1  31
TORSDOF 7
