REMARK  Name = ZINC09850357
REMARK  8 active torsions:
REMARK  status: ('A' for Active; 'I' for Inactive)
REMARK    1  A    between atoms: C_1  and  C_2
REMARK    2  A    between atoms: N_5  and  N_6
REMARK    3  A    between atoms: C_10  and  C_13
REMARK    4  A    between atoms: C_13  and  C_14
REMARK    5  A    between atoms: N_16  and  C_17
REMARK    6  A    between atoms: C_22  and  C_23
REMARK    7  A    between atoms: C_30  and  C_32
REMARK    8  A    between atoms: C_30  and  C_33
REMARK                            x       y       z     vdW  Elec       q    Type
REMARK                         _______ _______ _______ _____ _____    ______ ____
ROOT
ATOM      1  N   UNL     1      -0.437  -2.093  -3.435  0.00  0.00    -0.127 NA
ATOM      2  C   UNL     1      -0.658  -2.719  -4.573  0.00  0.00    +0.183 C 
ATOM      3  N   UNL     1      -0.694  -4.076  -4.806  0.00  0.00    -0.263 N 
ATOM      4  C   UNL     1      -0.927  -4.586  -6.003  0.00  0.00    +0.233 C 
ATOM      5  C   UNL     1      -1.156  -3.579  -7.118  0.00  0.00    +0.149 C 
ATOM      6  S   UNL     1      -0.990  -2.005  -6.177  0.00  0.00    -0.075 S 
ATOM      7  O   UNL     1      -0.956  -5.783  -6.199  0.00  0.00    -0.274 OA
ATOM      8  H   UNL     1      -0.541  -4.681  -4.062  0.00  0.00    +0.157 HD
ENDROOT
BRANCH   1  13
ATOM      9  C   UNL     1      -0.010   1.440   0.036  0.00  0.00    +0.039 C 
ATOM     10  C   UNL     1       0.003  -0.067   0.018  0.00  0.00    -0.070 C 
ATOM     11  C   UNL     1       0.004  -0.685  -1.156  0.00  0.00    +0.024 C 
ATOM     12  C   UNL     1       0.008  -2.150  -1.230  0.00  0.00    +0.064 C 
ATOM     13  N   UNL     1      -0.212  -2.770  -2.360  0.00  0.00    -0.152 NA
ATOM     14  C   UNL     1       0.275  -2.920   0.047  0.00  0.00    +0.064 C 
ATOM     15  C   UNL     1      -0.506  -2.224   1.171  0.00  0.00    -0.026 C 
ATOM     16  C   UNL     1       0.020  -0.796   1.329  0.00  0.00    +0.037 C 
ATOM     17  C   UNL     1      -0.308  -2.989   2.481  0.00  0.00    +0.011 C 
ATOM     18  C   UNL     1      -1.994  -2.191   0.815  0.00  0.00    +0.011 C 
ENDBRANCH   1  13
BRANCH   5  19
ATOM     19  C   UNL     1      -0.084  -3.699  -8.203  0.00  0.00    +0.120 C 
BRANCH  19  20
ATOM     20  C   UNL     1      -0.417  -2.771  -9.343  0.00  0.00    +0.219 C 
ATOM     21  O   UNL     1      -1.413  -2.081  -9.292  0.00  0.00    -0.275 OA
ATOM     22  N   UNL     1       0.392  -2.708 -10.419  0.00  0.00    -0.285 N 
ATOM     23  H   UNL     1       1.229  -3.198 -10.425  0.00  0.00    +0.155 HD
BRANCH  22  24
ATOM     24  C   UNL     1       0.025  -1.935 -11.526  0.00  0.00    +0.045 A 
ATOM     25  C   UNL     1      -1.314  -1.661 -11.770  0.00  0.00    +0.025 A 
ATOM     26  C   UNL     1      -1.674  -0.898 -12.864  0.00  0.00    +0.022 A 
ATOM     27  C   UNL     1      -0.701  -0.407 -13.716  0.00  0.00    +0.042 A 
ATOM     28  C   UNL     1       0.634  -0.678 -13.476  0.00  0.00    +0.034 A 
ATOM     29  C   UNL     1       1.000  -1.436 -12.380  0.00  0.00    +0.077 A 
ATOM     30 CL   UNL     1      -1.156   0.551 -15.091  0.00  0.00    -0.084 Cl
BRANCH  29  31
ATOM     31  C   UNL     1       2.455  -1.726 -12.115  0.00  0.00    +0.419 C 
ATOM     32  F   UNL     1       3.239  -1.121 -13.103  0.00  0.00    -0.166 F 
ATOM     33  F   UNL     1       2.811  -1.216 -10.861  0.00  0.00    -0.166 F 
ATOM     34  F   UNL     1       2.666  -3.108 -12.133  0.00  0.00    -0.166 F 
ENDBRANCH  29  31
ENDBRANCH  22  24
ENDBRANCH  19  20
ENDBRANCH   5  19
TORSDOF 5
