REMARK  Name = ZINC59877318
REMARK  7 active torsions:
REMARK  status: ('A' for Active; 'I' for Inactive)
REMARK    1  A    between atoms: N_9  and  C_10
REMARK    2  A    between atoms: C_15  and  N_16
REMARK    3  A    between atoms: C_17  and  C_19
REMARK    4  A    between atoms: C_19  and  C_20
REMARK    5  A    between atoms: C_20  and  C_21
REMARK    6  A    between atoms: C_21  and  C_22
REMARK    7  A    between atoms: C_22  and  C_23
REMARK                            x       y       z     vdW  Elec       q    Type
REMARK                         _______ _______ _______ _____ _____    ______ ____
ROOT
ATOM      1  N   UNL     1       4.821  -0.429  -2.468  0.00  0.00    -0.284 N 
ATOM      2  C   UNL     1       5.426  -0.130  -3.634  0.00  0.00    +0.217 C 
ATOM      3  O   UNL     1       6.587   0.222  -3.643  0.00  0.00    -0.275 OA
ATOM      4  H   UNL     1       3.914  -0.772  -2.466  0.00  0.00    +0.155 HD
ENDROOT
BRANCH   1  10
ATOM      5  C   UNL     1       4.809   0.164  -0.119  0.00  0.00    +0.055 A 
ATOM      6  C   UNL     1       5.489   0.339   1.078  0.00  0.00    +0.025 A 
ATOM      7  C   UNL     1       6.851   0.114   1.137  0.00  0.00    +0.002 A 
ATOM      8  C   UNL     1       7.540  -0.286   0.007  0.00  0.00    +0.002 A 
ATOM      9  C   UNL     1       6.871  -0.462  -1.190  0.00  0.00    +0.025 A 
ATOM     10  C   UNL     1       5.503  -0.244  -1.257  0.00  0.00    +0.055 A 
BRANCH   5  19
ATOM     11  C   UNL     1       1.275   3.843  -1.060  0.00  0.00    +0.000 A 
ATOM     12  C   UNL     1       2.655   3.940  -1.079  0.00  0.00    +0.002 A 
ATOM     13  C   UNL     1       3.432   2.838  -0.799  0.00  0.00    +0.024 A 
ATOM     14  C   UNL     1       2.833   1.613  -0.492  0.00  0.00    +0.037 A 
ATOM     15  C   UNL     1       1.450   1.527  -0.475  0.00  0.00    -0.025 A 
ATOM     16  C   UNL     1       0.675   2.635  -0.757  0.00  0.00    +0.005 A 
ATOM     17  C   UNL     1       1.061   0.109  -0.119  0.00  0.00    +0.056 C 
ATOM     18  C   UNL     1       2.400  -0.622   0.071  0.00  0.00    +0.116 C 
ATOM     19  N   UNL     1       3.429   0.390  -0.181  0.00  0.00    -0.298 N 
ENDBRANCH   5  19
ENDBRANCH   1  10
BRANCH   2  20
ATOM     20  C   UNL     1       4.660  -0.232  -4.928  0.00  0.00    +0.096 C 
BRANCH  20  21
ATOM     21  C   UNL     1       5.572   0.160  -6.093  0.00  0.00    +0.009 C 
BRANCH  21  22
ATOM     22  C   UNL     1       4.795   0.056  -7.406  0.00  0.00    +0.002 C 
BRANCH  22  23
ATOM     23  C   UNL     1       5.707   0.448  -8.571  0.00  0.00    +0.016 C 
BRANCH  23  24
ATOM     24  C   UNL     1       4.929   0.344  -9.885  0.00  0.00    +0.069 C 
ATOM     25  C   UNL     1       5.804   0.773 -11.082  0.00  0.00    +0.108 C 
ATOM     26  C   UNL     1       5.616  -0.101 -12.326  0.00  0.00    +0.105 C 
ATOM     27  C   UNL     1       4.596  -1.243 -12.133  0.00  0.00    +0.093 C 
ATOM     28  S   UNL     1       4.572  -1.417 -10.306  0.00  0.00    -0.154 S 
ATOM     29  N   UNL     1       6.946  -0.688 -12.555  0.00  0.00    -0.294 N 
ATOM     30  C   UNL     1       7.787  -0.243 -11.611  0.00  0.00    +0.300 C 
ATOM     31  O   UNL     1       8.958  -0.569 -11.559  0.00  0.00    -0.253 OA
ATOM     32  N   UNL     1       7.221   0.584 -10.734  0.00  0.00    -0.294 N 
ATOM     33  H   UNL     1       7.176  -1.298 -13.272  0.00  0.00    +0.151 HD
ATOM     34  H   UNL     1       7.678   0.998  -9.985  0.00  0.00    +0.151 HD
ENDBRANCH  23  24
ENDBRANCH  22  23
ENDBRANCH  21  22
ENDBRANCH  20  21
ENDBRANCH   2  20
TORSDOF 7
