REMARK  Name = ZINC62361789
REMARK  6 active torsions:
REMARK  status: ('A' for Active; 'I' for Inactive)
REMARK    1  A    between atoms: C_1  and  C_2
REMARK    2  A    between atoms: C_5  and  C_8
REMARK    3  A    between atoms: C_8  and  C_10
REMARK    4  A    between atoms: C_8  and  N_27
REMARK    5  A    between atoms: C_10  and  N_11
REMARK    6  A    between atoms: C_12  and  C_14
REMARK                            x       y       z     vdW  Elec       q    Type
REMARK                         _______ _______ _______ _____ _____    ______ ____
ROOT
ATOM      1  N   UNL     1      -2.245  -4.450  -0.735  0.00  0.00    -0.312 N 
ATOM      2  C   UNL     1      -3.541  -4.800  -0.607  0.00  0.00    +0.249 C 
ATOM      3  O   UNL     1      -3.881  -5.559   0.281  0.00  0.00    -0.270 OA
ATOM      4  H   UNL     1      -1.963  -3.902  -1.483  0.00  0.00    +0.149 HD
ENDROOT
BRANCH   2   5
ATOM      5  C   UNL     1      -4.544  -4.264  -1.542  0.00  0.00    +0.101 A 
ATOM      6  C   UNL     1      -4.152  -3.490  -2.620  0.00  0.00    +0.028 A 
ATOM      7  C   UNL     1      -5.138  -2.990  -3.502  0.00  0.00    -0.001 A 
ATOM      8  C   UNL     1      -4.768  -2.203  -4.605  0.00  0.00    +0.013 A 
ATOM      9  C   UNL     1      -5.725  -1.724  -5.450  0.00  0.00    +0.039 A 
ATOM     10  C   UNL     1      -7.070  -2.009  -5.229  0.00  0.00    +0.125 A 
ATOM     11  C   UNL     1      -7.457  -2.780  -4.152  0.00  0.00    +0.064 A 
ATOM     12  C   UNL     1      -6.498  -3.280  -3.276  0.00  0.00    +0.052 A 
ATOM     13  N   UNL     1      -6.882  -4.051  -2.199  0.00  0.00    -0.321 N 
ATOM     14  H   UNL     1      -7.822  -4.242  -2.058  0.00  0.00    +0.169 HD
ATOM     15  C   UNL     1      -5.968  -4.548  -1.344  0.00  0.00    +0.261 A 
ATOM     16  O   UNL     1      -6.327  -5.231  -0.402  0.00  0.00    -0.267 OA
ATOM     17  F   UNL     1      -8.004  -1.525  -6.077  0.00  0.00    -0.205 F 
ENDBRANCH   2   5
BRANCH   1  18
ATOM     18  C   UNL     1      -1.264  -4.898   0.258  0.00  0.00    +0.094 C 
BRANCH  18  19
ATOM     19  C   UNL     1       0.094  -4.261  -0.045  0.00  0.00    -0.020 C 
BRANCH  19  24
ATOM     20  C   UNL     1      -0.252   1.458   0.705  0.00  0.00    +0.044 C 
ATOM     21  C   UNL     1      -0.162  -0.034   0.510  0.00  0.00    -0.050 A 
ATOM     22  C   UNL     1      -0.232  -0.569  -0.763  0.00  0.00    +0.003 A 
ATOM     23  C   UNL     1      -0.149  -1.937  -0.942  0.00  0.00    +0.002 A 
ATOM     24  C   UNL     1       0.004  -2.770   0.150  0.00  0.00    -0.059 A 
ATOM     25  C   UNL     1       0.075  -2.234   1.423  0.00  0.00    +0.002 A 
ATOM     26  C   UNL     1      -0.003  -0.866   1.602  0.00  0.00    +0.003 A 
ENDBRANCH  19  24
BRANCH  19  27
ATOM     27  N   UNL     1       1.107  -4.815   0.863  0.00  0.00    +0.385 N 
ATOM     28  C   UNL     1       1.326  -6.254   0.570  0.00  0.00    -0.078 C 
ATOM     29  C   UNL     1       2.732  -6.526   1.160  0.00  0.00    -0.020 C 
ATOM     30  C   UNL     1       3.500  -5.223   0.838  0.00  0.00    -0.020 C 
ATOM     31  C   UNL     1       2.411  -4.154   0.636  0.00  0.00    -0.078 C 
ATOM     32  H   UNL     1       0.818  -4.694   1.822  0.00  0.00    -0.081 HD
ENDBRANCH  19  27
ENDBRANCH  18  19
ENDBRANCH   1  18
TORSDOF 5
