REMARK  Name = ZINC63383711
REMARK  11 active torsions:
REMARK  status: ('A' for Active; 'I' for Inactive)
REMARK    1  A    between atoms: C_1  and  C_2
REMARK    2  A    between atoms: C_2  and  C_3
REMARK    3  A    between atoms: C_3  and  C_5
REMARK    4  A    between atoms: C_3  and  C_6
REMARK    5  A    between atoms: C_6  and  C_8
REMARK    6  A    between atoms: C_6  and  N_15
REMARK    7  A    between atoms: N_10  and  C_11
REMARK    8  A    between atoms: C_11  and  C_12
REMARK    9  A    between atoms: C_12  and  O_13
REMARK   10  A    between atoms: O_13  and  C_14
REMARK   11  A    between atoms: C_16  and  C_18
REMARK                            x       y       z     vdW  Elec       q    Type
REMARK                         _______ _______ _______ _____ _____    ______ ____
ROOT
ATOM      1  C   UNL     1      -1.708   3.534  -2.416  0.00  0.00    +0.167 C 
ATOM      2  C   UNL     1      -2.975   3.735  -3.271  0.00  0.00    +0.065 C 
ATOM      3  C   UNL     1      -2.547   4.440  -4.534  0.00  0.00    -0.034 C 
ATOM      4  C   UNL     1      -3.025   5.538  -5.114  0.00  0.00    -0.001 A 
ATOM      5  C   UNL     1      -4.181   6.389  -4.790  0.00  0.00    +0.010 A 
ATOM      6  C   UNL     1      -4.377   7.465  -5.598  0.00  0.00    +0.001 A 
ATOM      7  C   UNL     1      -3.550   7.774  -6.681  0.00  0.00    +0.002 A 
ATOM      8  C   UNL     1      -2.470   7.043  -7.055  0.00  0.00    +0.026 A 
ATOM      9  C   UNL     1      -2.164   5.883  -6.285  0.00  0.00    +0.043 A 
ATOM     10  N   UNL     1      -1.216   5.005  -6.426  0.00  0.00    -0.375 N 
ATOM     11  C   UNL     1      -1.389   3.972  -5.404  0.00  0.00    +0.131 C 
ATOM     12  C   UNL     1      -0.164   3.846  -4.501  0.00  0.00    +0.134 C 
ATOM     13  N   UNL     1      -0.579   4.158  -3.118  0.00  0.00    -0.276 N 
ATOM     14  C   UNL     1       0.237   5.111  -2.629  0.00  0.00    +0.248 C 
ATOM     15  O   UNL     1       0.242   5.502  -1.478  0.00  0.00    -0.270 OA
ATOM     16  C   UNL     1       1.119   5.608  -3.688  0.00  0.00    +0.042 A 
ATOM     17  C   UNL     1       0.895   4.832  -4.870  0.00  0.00    -0.013 A 
ATOM     18  C   UNL     1       1.577   5.054  -6.046  0.00  0.00    +0.006 A 
ATOM     19  C   UNL     1       2.526   6.071  -6.044  0.00  0.00    +0.000 A 
ATOM     20  C   UNL     1       2.780   6.827  -4.917  0.00  0.00    +0.001 A 
ATOM     21  C   UNL     1       2.069   6.632  -3.679  0.00  0.00    +0.013 A 
ATOM     22  H   UNL     1      -0.514   5.030  -7.095  0.00  0.00    +0.160 HD
ENDROOT
BRANCH   1  24
ATOM     23  N   UNL     1      -2.359   1.283  -1.624  0.00  0.00    -0.302 N 
ATOM     24  C   UNL     1      -1.445   2.062  -2.236  0.00  0.00    +0.235 C 
ATOM     25  O   UNL     1      -0.409   1.577  -2.641  0.00  0.00    -0.274 OA
ATOM     26  H   UNL     1      -3.218   1.654  -1.368  0.00  0.00    +0.150 HD
BRANCH  23  27
ATOM     27  C   UNL     1      -2.056  -0.123  -1.346  0.00  0.00    +0.162 C 
BRANCH  27  28
ATOM     28  C   UNL     1      -3.323  -0.935  -1.428  0.00  0.00    +0.234 C 
ATOM     29  O   UNL     1      -4.373  -0.395  -1.703  0.00  0.00    -0.274 OA
ATOM     30  N   UNL     1      -3.288  -2.263  -1.196  0.00  0.00    -0.312 N 
ATOM     31  H   UNL     1      -2.463  -2.683  -0.906  0.00  0.00    +0.149 HD
BRANCH  30  32
ATOM     32  C   UNL     1      -4.496  -3.071  -1.383  0.00  0.00    +0.132 C 
BRANCH  32  33
ATOM     33  C   UNL     1      -4.187  -4.533  -1.055  0.00  0.00    +0.178 C 
BRANCH  33  34
ATOM     34  O   UNL     1      -3.863  -4.652   0.331  0.00  0.00    -0.381 OA
ATOM     35  C   UNL     1      -3.556  -5.985   0.744  0.00  0.00    +0.194 C 
ENDBRANCH  33  34
ENDBRANCH  32  33
ENDBRANCH  30  32
ENDBRANCH  27  28
BRANCH  27  36
ATOM     36  C   UNL     1      -1.460  -0.248   0.057  0.00  0.00    +0.015 C 
ATOM     37  C   UNL     1      -0.092   0.437   0.093  0.00  0.00    +0.010 C 
BRANCH  36  39
ATOM     38  C   UNL     1      -3.684  -0.390   1.186  0.00  0.00    +0.004 C 
ATOM     39  C   UNL     1      -2.392   0.421   1.069  0.00  0.00    +0.002 C 
ENDBRANCH  36  39
ENDBRANCH  27  36
ENDBRANCH  23  27
ENDBRANCH   1  24
TORSDOF 8
