REMARK  Name = ZINC63648749
REMARK  6 active torsions:
REMARK  status: ('A' for Active; 'I' for Inactive)
REMARK    1  A    between atoms: C_6  and  C_10
REMARK    2  A    between atoms: C_10  and  N_11
REMARK    3  A    between atoms: C_12  and  C_14
REMARK    4  A    between atoms: C_14  and  S_15
REMARK    5  A    between atoms: S_15  and  C_16
REMARK    6  A    between atoms: C_19  and  C_27
REMARK                            x       y       z     vdW  Elec       q    Type
REMARK                         _______ _______ _______ _____ _____    ______ ____
ROOT
ATOM      1  S   UNL     1       3.350  -2.693  -6.430  0.00  0.00    -0.104 S 
ENDROOT
BRANCH   1   2
ATOM      2  C   UNL     1       2.642  -1.718  -7.786  0.00  0.00    +0.272 C 
ATOM      3  N   UNL     1       3.238  -0.372  -7.737  0.00  0.00    -0.230 NA
ATOM      4  C   UNL     1       2.440   0.656  -7.609  0.00  0.00    +0.160 C 
ATOM      5  N   UNL     1       1.098   0.516  -7.522  0.00  0.00    -0.215 NA
ATOM      6  C   UNL     1       0.486  -0.629  -7.556  0.00  0.00    +0.128 C 
ATOM      7  N   UNL     1       1.172  -1.798  -7.685  0.00  0.00    -0.203 N 
ATOM      8  N   UNL     1       0.307  -2.890  -7.698  0.00  0.00    -0.230 N 
ATOM      9  C   UNL     1      -0.979  -2.513  -7.580  0.00  0.00    +0.236 C 
ATOM     10  O   UNL     1      -1.950  -3.240  -7.560  0.00  0.00    -0.274 OA
ATOM     11  C   UNL     1      -0.978  -1.004  -7.476  0.00  0.00    +0.170 C 
ATOM     12  H   UNL     1       0.596  -3.812  -7.782  0.00  0.00    +0.173 HD
BRANCH   4  13
ATOM     13  C   UNL     1       3.026   2.018  -7.559  0.00  0.00    +0.020 A 
ATOM     14  C   UNL     1       4.406   2.189  -7.652  0.00  0.00    +0.011 A 
ATOM     15  C   UNL     1       4.946   3.458  -7.604  0.00  0.00    +0.002 A 
ATOM     16  C   UNL     1       4.120   4.560  -7.464  0.00  0.00    +0.020 A 
ATOM     17  C   UNL     1       2.749   4.396  -7.370  0.00  0.00    +0.042 A 
ATOM     18  C   UNL     1       2.197   3.130  -7.423  0.00  0.00    +0.031 A 
ATOM     19 CL   UNL     1       1.720   5.783  -7.193  0.00  0.00    -0.084 Cl
ENDBRANCH   4  13
ENDBRANCH   1   2
BRANCH   1  20
ATOM     20  C   UNL     1       2.793  -1.834  -4.933  0.00  0.00    +0.168 C 
BRANCH  20  22
ATOM     21  N   UNL     1       3.030  -2.089  -2.484  0.00  0.00    -0.311 N 
ATOM     22  C   UNL     1       3.319  -2.551  -3.717  0.00  0.00    +0.223 C 
ATOM     23  O   UNL     1       4.003  -3.545  -3.847  0.00  0.00    -0.275 OA
ATOM     24  H   UNL     1       2.483  -1.295  -2.380  0.00  0.00    +0.149 HD
BRANCH  21  25
ATOM     25  C   UNL     1       3.542  -2.787  -1.302  0.00  0.00    +0.151 C 
BRANCH  25  31
ATOM     26  C   UNL     1      -0.016   1.344   0.009  0.00  0.00    +0.002 A 
ATOM     27  C   UNL     1       1.158   2.118   0.002  0.00  0.00    +0.002 A 
ATOM     28  C   UNL     1       2.389   1.570  -0.013  0.00  0.00    +0.027 A 
ATOM     29  C   UNL     1       2.533   0.108  -0.022  0.00  0.00    +0.060 A 
ATOM     30  N   UNL     1       3.569  -0.680  -0.036  0.00  0.00    -0.362 N 
ATOM     31  C   UNL     1       3.071  -2.062  -0.039  0.00  0.00    +0.191 C 
ATOM     32  N   UNL     1       1.606  -1.974  -0.024  0.00  0.00    -0.362 N 
ATOM     33  C   UNL     1       1.290  -0.712  -0.014  0.00  0.00    +0.060 A 
ATOM     34  C   UNL     1       0.002  -0.004   0.002  0.00  0.00    +0.027 A 
ATOM     35  H   UNL     1       4.499  -0.405  -0.045  0.00  0.00    +0.162 HD
ATOM     36  H   UNL     1       0.987  -2.721  -0.022  0.00  0.00    +0.162 HD
ENDBRANCH  25  31
ENDBRANCH  21  25
ENDBRANCH  20  22
ENDBRANCH   1  20
TORSDOF 6
