REMARK  Name = ZINC14271362
REMARK  5 active torsions:
REMARK  status: ('A' for Active; 'I' for Inactive)
REMARK    1  A    between atoms: C_9  and  N_12
REMARK    2  A    between atoms: N_12  and  C_13
REMARK    3  A    between atoms: C_13  and  N_15
REMARK    4  A    between atoms: C_16  and  C_18
REMARK    5  A    between atoms: C_21  and  C_23
REMARK                            x       y       z     vdW  Elec       q    Type
REMARK                         _______ _______ _______ _____ _____    ______ ____
ROOT
ATOM      1  N   UNL     1       0.061  -4.118   0.184  0.00  0.00    -0.261 N 
ATOM      2  C   UNL     1      -1.099  -4.794   0.294  0.00  0.00    +0.285 C 
ATOM      3  O   UNL     1      -2.156  -4.190   0.307  0.00  0.00    -0.266 OA
ATOM      4  H   UNL     1       0.904  -4.599   0.173  0.00  0.00    +0.157 HD
ENDROOT
BRANCH   2   5
ATOM      5  C   UNL     1      -1.089  -6.254   0.396  0.00  0.00    +0.190 A 
ATOM      6  C   UNL     1      -2.198  -7.065   0.513  0.00  0.00    +0.055 A 
ATOM      7  C   UNL     1      -1.730  -8.380   0.581  0.00  0.00    +0.050 A 
ATOM      8  C   UNL     1      -0.367  -8.326   0.505  0.00  0.00    +0.136 A 
ATOM      9  O   UNL     1       0.007  -7.041   0.388  0.00  0.00    -0.450 OA
BRANCH   8  10
ATOM     10  C   UNL     1       0.544  -9.488   0.539  0.00  0.00    +0.019 A 
ATOM     11  C   UNL     1       1.925  -9.299   0.452  0.00  0.00    +0.013 A 
ATOM     12  C   UNL     1       2.771 -10.388   0.484  0.00  0.00    +0.022 A 
ATOM     13  C   UNL     1       2.254 -11.667   0.601  0.00  0.00    +0.059 A 
ATOM     14  C   UNL     1       0.884 -11.862   0.688  0.00  0.00    +0.060 A 
ATOM     15  C   UNL     1       0.028 -10.780   0.663  0.00  0.00    +0.033 A 
ATOM     16 CL   UNL     1       0.245 -13.470   0.834  0.00  0.00    -0.082 Cl
ATOM     17 CL   UNL     1       3.325 -13.033   0.640  0.00  0.00    -0.082 Cl
ENDBRANCH   8  10
ENDBRANCH   2   5
BRANCH   1  18
ATOM     18  C   UNL     1       0.052  -2.773   0.089  0.00  0.00    +0.141 C 
ATOM     19  S   UNL     1      -1.435  -1.924   0.108  0.00  0.00    -0.018 S 
BRANCH  18  20
ATOM     20  N   UNL     1       1.213  -2.097  -0.020  0.00  0.00    -0.297 N 
ATOM     21  H   UNL     1       2.050  -2.581  -0.093  0.00  0.00    +0.154 HD
BRANCH  20  30
ATOM     22  C   UNL     1      -0.658   2.137  -1.632  0.00  0.00    +0.018 A 
ATOM     23  C   UNL     1      -0.605   3.492  -1.593  0.00  0.00    +0.092 A 
ATOM     24  C   UNL     1       0.354   4.134  -0.780  0.00  0.00    +0.337 A 
ATOM     25  O   UNL     1       0.391   5.351  -0.754  0.00  0.00    -0.245 OA
ATOM     26  O   UNL     1       1.226   3.437  -0.036  0.00  0.00    -0.422 OA
ATOM     27  C   UNL     1       1.227   2.086  -0.028  0.00  0.00    +0.139 A 
ATOM     28  C   UNL     1       0.298   1.383  -0.815  0.00  0.00    +0.019 A 
ATOM     29  C   UNL     1       0.295  -0.015  -0.811  0.00  0.00    +0.034 A 
ATOM     30  C   UNL     1       1.209  -0.697  -0.029  0.00  0.00    +0.033 A 
ATOM     31  C   UNL     1       2.128   0.005   0.748  0.00  0.00    +0.027 A 
ATOM     32  C   UNL     1       2.137   1.383   0.750  0.00  0.00    +0.049 A 
ENDBRANCH  20  30
ENDBRANCH  18  20
ENDBRANCH   1  18
TORSDOF 5
