REMARK  Name = ZINC09692150
REMARK  10 active torsions:
REMARK  status: ('A' for Active; 'I' for Inactive)
REMARK    1  A    between atoms: C_1  and  C_2
REMARK    2  A    between atoms: C_2  and  C_3
REMARK    3  A    between atoms: C_12  and  S_14
REMARK    4  A    between atoms: S_14  and  N_17
REMARK    5  A    between atoms: N_17  and  C_18
REMARK    6  A    between atoms: C_18  and  C_20
REMARK    7  A    between atoms: C_18  and  C_23
REMARK    8  A    between atoms: C_20  and  C_21
REMARK    9  A    between atoms: C_20  and  C_22
REMARK   10  A    between atoms: C_31  and  C_35
REMARK                            x       y       z     vdW  Elec       q    Type
REMARK                         _______ _______ _______ _____ _____    ______ ____
ROOT
ATOM      1  N   UNL     1       2.241   0.782   0.099  0.00  0.00    -0.178 NA
ATOM      2  H   UNL     1       2.033  -0.048  -0.359  0.00  0.00    +0.149 HD
ENDROOT
BRANCH   1   3
ATOM      3  S   UNL     1       3.726   0.988   0.803  0.00  0.00    +0.059 S 
ATOM      4  O   UNL     1       4.424  -0.240   0.646  0.00  0.00    -0.153 OA
ATOM      5  O   UNL     1       4.237   2.222   0.320  0.00  0.00    -0.153 OA
BRANCH   3  15
ATOM      6  C   UNL     1       2.627   2.541   7.433  0.00  0.00    +0.220 C 
ATOM      7  O   UNL     1       2.591   3.653   6.950  0.00  0.00    -0.275 OA
ATOM      8  N   UNL     1       2.842   1.471   6.643  0.00  0.00    -0.271 N 
ATOM      9  C   UNL     1       2.907   0.083   7.109  0.00  0.00    +0.118 C 
ATOM     10  C   UNL     1       3.167  -0.755   5.846  0.00  0.00    +0.056 C 
ATOM     11  C   UNL     1       3.232   0.258   4.724  0.00  0.00    -0.023 A 
ATOM     12  C   UNL     1       3.036   1.521   5.259  0.00  0.00    +0.040 A 
ATOM     13  C   UNL     1       3.053   2.627   4.408  0.00  0.00    +0.026 A 
ATOM     14  C   UNL     1       3.268   2.462   3.056  0.00  0.00    +0.030 A 
ATOM     15  C   UNL     1       3.458   1.196   2.532  0.00  0.00    +0.106 A 
ATOM     16  C   UNL     1       3.442   0.096   3.369  0.00  0.00    +0.034 A 
BRANCH   6  18
ATOM     17  C   UNL     1       2.208   3.720   9.574  0.00  0.00    +0.013 C 
ATOM     18  C   UNL     1       2.432   2.357   8.916  0.00  0.00    +0.093 C 
ENDBRANCH   6  18
ENDBRANCH   3  15
ENDBRANCH   1   3
BRANCH   1  19
ATOM     19  C   UNL     1       1.244   1.852   0.166  0.00  0.00    +0.165 C 
BRANCH  19  20
ATOM     20  C   UNL     1       0.073   1.396   0.999  0.00  0.00    +0.238 C 
ATOM     21  O   UNL     1      -0.014   0.235   1.337  0.00  0.00    -0.274 OA
ATOM     22  N   UNL     1      -0.879   2.278   1.362  0.00  0.00    -0.263 N 
ATOM     23  C   UNL     1      -1.899   1.884   2.213  0.00  0.00    +0.165 A 
ATOM     24  N   UNL     1      -2.104   0.711   2.765  0.00  0.00    -0.225 NA
ATOM     25  C   UNL     1      -3.150   0.467   3.583  0.00  0.00    +0.080 A 
ATOM     26  C   UNL     1      -3.483  -0.742   4.237  0.00  0.00    +0.029 A 
ATOM     27  C   UNL     1      -4.590  -0.821   5.042  0.00  0.00    +0.005 A 
ATOM     28  C   UNL     1      -5.419   0.273   5.244  0.00  0.00    -0.049 A 
ATOM     29  C   UNL     1      -5.123   1.471   4.620  0.00  0.00    +0.020 A 
ATOM     30  C   UNL     1      -4.017   1.559   3.812  0.00  0.00    +0.041 A 
ATOM     31  S   UNL     1      -3.264   2.848   2.847  0.00  0.00    -0.052 S 
ATOM     32  C   UNL     1      -6.629   0.157   6.134  0.00  0.00    +0.044 C 
ATOM     33  H   UNL     1      -0.852   3.188   1.027  0.00  0.00    +0.157 HD
ENDBRANCH  19  20
BRANCH  19  34
ATOM     34  C   UNL     1       0.764   2.192  -1.246  0.00  0.00    +0.010 C 
ATOM     35  C   UNL     1       1.947   2.683  -2.083  0.00  0.00    +0.009 C 
ATOM     36  C   UNL     1       0.164   0.943  -1.895  0.00  0.00    +0.009 C 
ENDBRANCH  19  34
ENDBRANCH   1  19
TORSDOF 6
