REMARK  Name = ZINC03226755
REMARK  6 active torsions:
REMARK  status: ('A' for Active; 'I' for Inactive)
REMARK    1  A    between atoms: C_2  and  C_3
REMARK    2  A    between atoms: C_2  and  N_17
REMARK    3  A    between atoms: N_17  and  N_18
REMARK    4  A    between atoms: C_19  and  C_21
REMARK    5  A    between atoms: C_21  and  N_22
REMARK    6  A    between atoms: C_25  and  C_27
REMARK                            x       y       z     vdW  Elec       q    Type
REMARK                         _______ _______ _______ _____ _____    ______ ____
ROOT
ATOM      1  C   UNL     1      -6.587   6.180   1.782  0.00  0.00    +0.035 C 
ATOM      2  C   UNL     1      -5.605   7.082   1.826  0.00  0.00    +0.045 C 
ENDROOT
BRANCH   2   3
ATOM      3  C   UNL     1      -4.242   6.715   1.381  0.00  0.00    -0.001 A 
ATOM      4  C   UNL     1      -3.215   7.658   1.427  0.00  0.00    +0.011 A 
ATOM      5  C   UNL     1      -1.946   7.310   1.014  0.00  0.00    +0.017 A 
ATOM      6  C   UNL     1      -1.685   6.026   0.552  0.00  0.00    +0.034 A 
ATOM      7  C   UNL     1      -2.705   5.078   0.498  0.00  0.00    +0.046 A 
ATOM      8  C   UNL     1      -3.983   5.427   0.915  0.00  0.00    +0.034 A 
ATOM      9  N   UNL     1      -2.484   3.783   0.034  0.00  0.00    -0.313 N 
ATOM     10  C   UNL     1      -1.250   3.139   0.028  0.00  0.00    +0.045 A 
ATOM     11  C   UNL     1      -1.220   1.748   0.017  0.00  0.00    +0.024 A 
ATOM     12  C   UNL     1      -0.013   1.076   0.008  0.00  0.00    +0.002 A 
ATOM     13  C   UNL     1       1.176   1.781   0.000  0.00  0.00    +0.001 A 
ATOM     14  C   UNL     1       1.158   3.163   0.008  0.00  0.00    +0.017 A 
ATOM     15  C   UNL     1      -0.050   3.845   0.023  0.00  0.00    +0.034 A 
ATOM     16  S   UNL     1      -0.053   5.606   0.039  0.00  0.00    -0.086 S 
ATOM     17  H   UNL     1      -3.247   3.294  -0.311  0.00  0.00    +0.152 HD
ENDBRANCH   2   3
BRANCH   2  18
ATOM     18  N   UNL     1      -5.863   8.372   2.293  0.00  0.00    -0.264 N 
ATOM     19  H   UNL     1      -5.150   9.028   2.325  0.00  0.00    +0.170 HD
BRANCH  18  20
ATOM     20  N   UNL     1      -7.154   8.719   2.714  0.00  0.00    -0.235 N 
ATOM     21  C   UNL     1      -7.403   9.964   3.164  0.00  0.00    +0.250 C 
ATOM     22  O   UNL     1      -6.511  10.784   3.205  0.00  0.00    -0.272 OA
ATOM     23  H   UNL     1      -7.867   8.063   2.681  0.00  0.00    +0.173 HD
BRANCH  21  24
ATOM     24  C   UNL     1      -8.791  10.338   3.618  0.00  0.00    +0.240 C 
BRANCH  24  25
ATOM     25  N   UNL     1      -8.802  11.735   4.058  0.00  0.00    -0.262 N 
ATOM     26  C   UNL     1      -9.615  12.707   3.595  0.00  0.00    +0.109 A 
ATOM     27  C   UNL     1      -9.312  13.848   4.256  0.00  0.00    +0.053 A 
ATOM     28  C   UNL     1      -8.272  13.566   5.148  0.00  0.00    +0.165 A 
ATOM     29  N   UNL     1      -7.965  12.299   5.030  0.00  0.00    -0.167 NA
BRANCH  28  30
ATOM     30  C   UNL     1      -7.619  14.550   6.083  0.00  0.00    +0.436 C 
ATOM     31  F   UNL     1      -6.546  13.932   6.734  0.00  0.00    -0.164 F 
ATOM     32  F   UNL     1      -7.151  15.647   5.352  0.00  0.00    -0.164 F 
ATOM     33  F   UNL     1      -8.552  14.984   7.030  0.00  0.00    -0.164 F 
ENDBRANCH  28  30
ENDBRANCH  24  25
ENDBRANCH  21  24
ENDBRANCH  18  20
ENDBRANCH   2  18
TORSDOF 6
