REMARK  Name = ZINC39673787
REMARK  10 active torsions:
REMARK  status: ('A' for Active; 'I' for Inactive)
REMARK    1  A    between atoms: C_1  and  C_2
REMARK    2  A    between atoms: C_2  and  C_3
REMARK    3  A    between atoms: C_3  and  C_4
REMARK    4  A    between atoms: C_4  and  C_6
REMARK    5  A    between atoms: C_4  and  N_7
REMARK    6  A    between atoms: C_8  and  C_10
REMARK    7  A    between atoms: C_21  and  C_23
REMARK    8  A    between atoms: C_25  and  C_30
REMARK    9  A    between atoms: N_27  and  C_28
REMARK   10  A    between atoms: C_28  and  C_29
REMARK                            x       y       z     vdW  Elec       q    Type
REMARK                         _______ _______ _______ _____ _____    ______ ____
ROOT
ATOM      1  C   UNL     1      -2.353  -4.153  -1.038  0.00  0.00    +0.100 C 
ATOM      2  C   UNL     1      -3.302  -3.197  -0.282  0.00  0.00    +0.121 C 
ATOM      3  N   UNL     1      -4.368  -4.076   0.255  0.00  0.00    -0.295 N 
ATOM      4  C   UNL     1      -3.653  -5.299   0.692  0.00  0.00    +0.115 C 
ATOM      5  C   UNL     1      -2.586  -5.531  -0.396  0.00  0.00    -0.004 C 
ATOM      6  C   UNL     1      -3.100  -6.519  -1.438  0.00  0.00    -0.010 C 
ATOM      7  C   UNL     1      -3.270  -7.896  -0.789  0.00  0.00    -0.082 C 
ATOM      8  N   UNL     1      -1.981  -8.348  -0.252  0.00  0.00    +0.379 N 
ATOM      9  C   UNL     1      -1.538  -7.442   0.815  0.00  0.00    -0.082 C 
ATOM     10  C   UNL     1      -1.295  -6.046   0.234  0.00  0.00    -0.010 C 
ATOM     11  C   UNL     1      -5.690  -3.821   0.329  0.00  0.00    +0.266 C 
ATOM     12  O   UNL     1      -6.431  -4.608   0.886  0.00  0.00    -0.268 OA
ATOM     13  H   UNL     1      -2.082  -9.280   0.121  0.00  0.00    -0.086 HD
ATOM     14  H   UNL     1      -1.294  -8.356  -0.991  0.00  0.00    -0.086 HD
ENDROOT
BRANCH  11  15
ATOM     15  C   UNL     1      -6.235  -2.590  -0.263  0.00  0.00    +0.138 A 
ATOM     16  C   UNL     1      -6.546  -1.415   0.401  0.00  0.00    +0.071 A 
ATOM     17  C   UNL     1      -7.027  -0.549  -0.585  0.00  0.00    +0.075 A 
ATOM     18  N   UNL     1      -6.993  -1.184  -1.728  0.00  0.00    -0.175 NA
ATOM     19  N   UNL     1      -6.532  -2.374  -1.580  0.00  0.00    -0.258 N 
ATOM     20  C   UNL     1      -7.501   0.865  -0.370  0.00  0.00    +0.069 C 
ATOM     21 BR   UNL     1      -6.360  -1.058   2.249  0.00  0.00    -0.046 Br
BRANCH  19  22
ATOM     22  C   UNL     1      -6.354  -3.351  -2.656  0.00  0.00    +0.141 C 
ATOM     23  C   UNL     1      -7.671  -4.093  -2.894  0.00  0.00    +0.029 C 
ENDBRANCH  19  22
ENDBRANCH  11  15
BRANCH   1  25
ATOM     24  N   UNL     1      -0.013  -3.972  -1.819  0.00  0.00    -0.312 N 
ATOM     25  C   UNL     1      -0.920  -3.724  -0.854  0.00  0.00    +0.218 C 
ATOM     26  O   UNL     1      -0.583  -3.155   0.163  0.00  0.00    -0.275 OA
ATOM     27  H   UNL     1      -0.264  -4.492  -2.599  0.00  0.00    +0.149 HD
BRANCH  24  28
ATOM     28  C   UNL     1       1.352  -3.455  -1.691  0.00  0.00    +0.070 C 
ATOM     29  C   UNL     1       2.190  -4.428  -0.859  0.00  0.00    +0.028 C 
BRANCH  28  30
ATOM     30  C   UNL     1       1.974  -3.308  -3.082  0.00  0.00    +0.022 C 
BRANCH  30  32
ATOM     31  C   UNL     1       1.833  -2.096  -5.262  0.00  0.00    +0.004 C 
ATOM     32  C   UNL     1       1.211  -2.243  -3.872  0.00  0.00    -0.002 C 
ENDBRANCH  30  32
ENDBRANCH  28  30
ENDBRANCH  24  28
ENDBRANCH   1  25
TORSDOF 6
