REMARK  Name = ZINC09253442
REMARK  5 active torsions:
REMARK  status: ('A' for Active; 'I' for Inactive)
REMARK    1  A    between atoms: C_1  and  C_2
REMARK    2  A    between atoms: N_10  and  N_14
REMARK    3  A    between atoms: C_15  and  C_17
REMARK    4  A    between atoms: C_17  and  N_65
REMARK    5  A    between atoms: C_21  and  C_23
REMARK                            x       y       z     vdW  Elec       q    Type
REMARK                         _______ _______ _______ _____ _____    ______ ____
ROOT
ATOM      1  N   UNL     1      -3.221   3.888  -3.796  0.00  0.00    -0.225 N 
ATOM      2  C   UNL     1      -2.849   3.010  -2.844  0.00  0.00    +0.213 C 
ATOM      3  O   UNL     1      -2.968   1.819  -3.037  0.00  0.00    -0.276 OA
ATOM      4  H   UNL     1      -3.126   4.841  -3.642  0.00  0.00    +0.173 HD
ENDROOT
BRANCH   1  14
ATOM      5  C   UNL     1      -9.424   3.421  -6.966  0.00  0.00    +0.007 C 
ATOM      6  C   UNL     1      -7.992   3.034  -7.339  0.00  0.00    -0.014 C 
ATOM      7  C   UNL     1      -7.456   2.024  -6.321  0.00  0.00    +0.006 C 
ATOM      8  C   UNL     1      -6.027   1.629  -6.701  0.00  0.00    +0.035 C 
ATOM      9  C   UNL     1      -5.144   2.871  -6.723  0.00  0.00    +0.114 C 
ATOM     10  C   UNL     1      -5.678   3.896  -7.718  0.00  0.00    +0.035 C 
ATOM     11  C   UNL     1      -7.109   4.283  -7.335  0.00  0.00    +0.006 C 
ATOM     12  C   UNL     1      -5.052   3.477  -5.341  0.00  0.00    +0.263 C 
ATOM     13  O   UNL     1      -5.962   3.918  -4.671  0.00  0.00    -0.271 OA
ATOM     14  N   UNL     1      -3.746   3.424  -5.010  0.00  0.00    -0.137 N 
ATOM     15  C   UNL     1      -3.011   2.879  -5.987  0.00  0.00    +0.326 C 
ATOM     16  O   UNL     1      -1.807   2.729  -5.924  0.00  0.00    -0.251 OA
ATOM     17  N   UNL     1      -3.757   2.512  -7.047  0.00  0.00    -0.284 N 
ATOM     18  H   UNL     1      -3.441   2.097  -7.864  0.00  0.00    +0.151 HD
ENDBRANCH   1  14
BRANCH   2  19
ATOM     19  C   UNL     1      -2.285   3.509  -1.538  0.00  0.00    +0.021 C 
BRANCH  19  24
ATOM     20  C   UNL     1      -0.799   1.616  -1.205  0.00  0.00    -0.077 C 
ATOM     21  C   UNL     1      -0.013   1.086   0.008  0.00  0.00    -0.020 C 
ATOM     22  C   UNL     1      -0.778   1.605   1.246  0.00  0.00    -0.013 C 
ATOM     23  C   UNL     1      -1.565   2.817   0.682  0.00  0.00    -0.037 C 
ATOM     24  N   UNL     1      -1.943   2.349  -0.661  0.00  0.00    +0.390 N 
ATOM     25  H   UNL     1      -2.755   1.725  -0.596  0.00  0.00    -0.080 HD
BRANCH  23  26
ATOM     26  C   UNL     1      -2.784   3.099   1.523  0.00  0.00    -0.057 A 
ATOM     27  C   UNL     1      -3.882   2.263   1.447  0.00  0.00    +0.006 A 
ATOM     28  C   UNL     1      -5.004   2.515   2.216  0.00  0.00    +0.049 A 
ATOM     29  C   UNL     1      -5.023   3.609   3.064  0.00  0.00    +0.162 A 
ATOM     30  C   UNL     1      -3.920   4.448   3.141  0.00  0.00    +0.162 A 
ATOM     31  C   UNL     1      -2.797   4.190   2.374  0.00  0.00    +0.051 A 
ATOM     32  O   UNL     1      -3.949   5.524   3.979  0.00  0.00    -0.488 OA
ATOM     33  C   UNL     1      -3.952   5.228   5.377  0.00  0.00    +0.232 C 
ATOM     34  C   UNL     1      -5.364   4.950   5.867  0.00  0.00    +0.082 C 
ATOM     35  C   UNL     1      -5.960   3.700   5.238  0.00  0.00    +0.232 C 
ATOM     36  O   UNL     1      -6.123   3.870   3.828  0.00  0.00    -0.488 OA
ENDBRANCH  23  26
ENDBRANCH  19  24
ENDBRANCH   2  19
TORSDOF 4
