REMARK  Name = ZINC52125939
REMARK  5 active torsions:
REMARK  status: ('A' for Active; 'I' for Inactive)
REMARK    1  A    between atoms: C_1  and  C_2
REMARK    2  A    between atoms: C_2  and  N_3
REMARK    3  A    between atoms: C_5  and  C_8
REMARK    4  A    between atoms: C_8  and  N_9
REMARK    5  A    between atoms: C_14  and  N_21
REMARK                            x       y       z     vdW  Elec       q    Type
REMARK                         _______ _______ _______ _____ _____    ______ ____
ROOT
ATOM      1  N   UNL     1      -4.094  -3.837  -0.677  0.00  0.00    -0.163 N 
ATOM      2  C   UNL     1      -3.232  -4.806  -1.020  0.00  0.00    +0.268 C 
ATOM      3  O   UNL     1      -2.393  -4.620  -1.879  0.00  0.00    -0.268 OA
ATOM      4  C   UNL     1      -3.330  -6.099  -0.327  0.00  0.00    +0.067 A 
ATOM      5  C   UNL     1      -2.566  -7.267  -0.486  0.00  0.00    +0.037 A 
ATOM      6  C   UNL     1      -2.835  -8.385   0.282  0.00  0.00    +0.025 A 
ATOM      7  C   UNL     1      -3.860  -8.374   1.221  0.00  0.00    +0.024 A 
ATOM      8  C   UNL     1      -4.620  -7.227   1.387  0.00  0.00    +0.031 A 
ATOM      9  C   UNL     1      -4.355  -6.121   0.628  0.00  0.00    +0.121 A 
ATOM     10  S   UNL     1      -5.054  -4.496   0.525  0.00  0.00    +0.078 S 
ATOM     11  O   UNL     1      -6.370  -4.626   0.004  0.00  0.00    -0.150 OA
ATOM     12  O   UNL     1      -4.755  -3.817   1.737  0.00  0.00    -0.150 OA
ENDROOT
BRANCH   6  13
ATOM     13  N   UNL     1      -2.067  -9.540   0.112  0.00  0.00    -0.358 N 
ATOM     14  H   UNL     1      -1.351  -9.554  -0.542  0.00  0.00    +0.142 HD
ATOM     15  H   UNL     1      -2.251 -10.328   0.647  0.00  0.00    +0.142 HD
ENDBRANCH   6  13
BRANCH   1  16
ATOM     16  C   UNL     1      -4.174  -2.485  -1.233  0.00  0.00    +0.173 C 
BRANCH  16  19
ATOM     17  N   UNL     1      -1.372  -0.511   0.012  0.00  0.00    -0.271 N 
ATOM     18  C   UNL     1      -1.907  -1.373  -0.878  0.00  0.00    +0.113 A 
ATOM     19  C   UNL     1      -3.194  -1.589  -0.520  0.00  0.00    +0.009 A 
ATOM     20  C   UNL     1      -3.455  -0.834   0.628  0.00  0.00    +0.139 A 
ATOM     21  N   UNL     1      -2.361  -0.192   0.952  0.00  0.00    -0.179 NA
BRANCH  17  23
ATOM     22  C   UNL     1      -0.019   1.526   0.010  0.00  0.00    +0.029 C 
ATOM     23  C   UNL     1       0.002  -0.004   0.002  0.00  0.00    +0.140 C 
ENDBRANCH  17  23
ENDBRANCH  16  19
ENDBRANCH   1  16
TORSDOF 4
