REMARK  Name = ZINC39290990
REMARK  14 active torsions:
REMARK  status: ('A' for Active; 'I' for Inactive)
REMARK    1  A    between atoms: C_1  and  O_2
REMARK    2  A    between atoms: O_2  and  C_3
REMARK    3  A    between atoms: C_6  and  C_11
REMARK    4  A    between atoms: C_8  and  O_9
REMARK    5  A    between atoms: O_9  and  C_10
REMARK    6  A    between atoms: C_11  and  C_13
REMARK    7  A    between atoms: C_13  and  C_14
REMARK    8  A    between atoms: C_14  and  C_15
REMARK    9  A    between atoms: C_15  and  C_16
REMARK   10  A    between atoms: C_16  and  C_17
REMARK   11  A    between atoms: C_17  and  N_18
REMARK   12  A    between atoms: C_24  and  O_39
REMARK   13  A    between atoms: C_35  and  O_36
REMARK   14  A    between atoms: O_36  and  C_37
REMARK                            x       y       z     vdW  Elec       q    Type
REMARK                         _______ _______ _______ _____ _____    ______ ____
ROOT
ATOM      1  N   UNL     1     -12.374  -2.962   0.096  0.00  0.00    +0.382 N 
ATOM      2  C   UNL     1     -13.562  -2.188  -0.128  0.00  0.00    -0.077 C 
ATOM      3  C   UNL     1     -14.688  -2.939  -0.776  0.00  0.00    +0.001 C 
ATOM      4  C   UNL     1     -15.460  -3.791   0.212  0.00  0.00    +0.053 C 
ATOM      5  C   UNL     1     -16.006  -2.969   1.333  0.00  0.00    -0.014 C 
ATOM      6  C   UNL     1     -17.257  -2.827   1.612  0.00  0.00    +0.001 C 
ATOM      7  C   UNL     1     -18.360  -3.484   0.845  0.00  0.00    +0.141 C 
ATOM      8  C   UNL     1     -17.898  -3.943  -0.523  0.00  0.00    +0.081 C 
ATOM      9  C   UNL     1     -16.540  -4.589  -0.520  0.00  0.00    +0.191 C 
ATOM     10  O   UNL     1     -16.544  -5.862   0.140  0.00  0.00    -0.484 OA
ATOM     11  C   UNL     1     -15.333  -6.067   0.701  0.00  0.00    +0.167 A 
ATOM     12  C   UNL     1     -14.581  -4.887   0.786  0.00  0.00    +0.013 A 
ATOM     13  C   UNL     1     -13.339  -4.846   1.342  0.00  0.00    -0.056 A 
ATOM     14  C   UNL     1     -12.858  -6.047   1.887  0.00  0.00    +0.006 A 
ATOM     15  C   UNL     1     -13.573  -7.219   1.807  0.00  0.00    +0.049 A 
ATOM     16  C   UNL     1     -14.823  -7.271   1.203  0.00  0.00    +0.162 A 
ATOM     17  C   UNL     1     -12.366  -3.704   1.341  0.00  0.00    -0.043 C 
ATOM     18  H   UNL     1     -12.271  -3.615  -0.666  0.00  0.00    -0.081 HD
ENDROOT
BRANCH  16  19
ATOM     19  O   UNL     1     -15.519  -8.435   1.104  0.00  0.00    -0.491 OA
ATOM     20  C   UNL     1     -14.906  -9.605   1.650  0.00  0.00    +0.277 C 
ENDBRANCH  16  19
BRANCH   7  21
ATOM     21  O   UNL     1     -18.828  -4.616   1.581  0.00  0.00    -0.388 OA
ATOM     22  H   UNL     1     -19.175  -4.400   2.458  0.00  0.00    +0.210 HD
ENDBRANCH   7  21
BRANCH   1  23
ATOM     23  C   UNL     1     -11.219  -2.055   0.088  0.00  0.00    -0.078 C 
BRANCH  23  24
ATOM     24  C   UNL     1      -9.927  -2.874   0.077  0.00  0.00    -0.019 C 
BRANCH  24  25
ATOM     25  C   UNL     1      -8.723  -1.929   0.068  0.00  0.00    -0.001 C 
BRANCH  25  26
ATOM     26  C   UNL     1      -7.431  -2.748   0.057  0.00  0.00    +0.008 C 
BRANCH  26  27
ATOM     27  C   UNL     1      -6.228  -1.803   0.048  0.00  0.00    +0.079 C 
BRANCH  27  28
ATOM     28  C   UNL     1      -4.956  -2.610   0.037  0.00  0.00    +0.163 C 
ATOM     29  O   UNL     1      -5.006  -3.821   0.036  0.00  0.00    -0.292 OA
BRANCH  28  33
ATOM     30  C   UNL     1      -1.199  -0.637   0.010  0.00  0.00    +0.162 A 
ATOM     31  C   UNL     1      -2.373   0.106   0.020  0.00  0.00    +0.050 A 
ATOM     32  C   UNL     1      -3.594  -0.530   0.028  0.00  0.00    +0.015 A 
ATOM     33  C   UNL     1      -3.654  -1.929   0.027  0.00  0.00    +0.021 A 
ATOM     34  C   UNL     1      -2.470  -2.676   0.017  0.00  0.00    +0.060 A 
ATOM     35  C   UNL     1      -1.251  -2.031   0.003  0.00  0.00    +0.162 A 
BRANCH  30  37
ATOM     36  C   UNL     1      -0.017   1.425   0.010  0.00  0.00    +0.277 C 
ATOM     37  O   UNL     1       0.002  -0.004   0.002  0.00  0.00    -0.491 OA
ENDBRANCH  30  37
BRANCH  35  38
ATOM     38  O   UNL     1      -0.099  -2.754  -0.012  0.00  0.00    -0.491 OA
ATOM     39  C   UNL     1      -0.226  -4.177  -0.018  0.00  0.00    +0.277 C 
ENDBRANCH  35  38
ENDBRANCH  28  33
ENDBRANCH  27  28
ENDBRANCH  26  27
ENDBRANCH  25  26
ENDBRANCH  24  25
ENDBRANCH  23  24
ENDBRANCH   1  23
TORSDOF 11
