REMARK  Name = ZINC19164882
REMARK  11 active torsions:
REMARK  status: ('A' for Active; 'I' for Inactive)
REMARK    1  A    between atoms: C_1  and  C_2
REMARK    2  A    between atoms: C_2  and  N_3
REMARK    3  A    between atoms: N_3  and  C_4
REMARK    4  A    between atoms: N_3  and  S_6
REMARK    5  A    between atoms: C_4  and  C_5
REMARK    6  A    between atoms: S_6  and  C_9
REMARK    7  A    between atoms: C_12  and  C_28
REMARK    8  A    between atoms: C_13  and  C_15
REMARK    9  A    between atoms: N_17  and  C_18
REMARK   10  A    between atoms: C_22  and  N_25
REMARK   11  A    between atoms: C_23  and  C_24
REMARK                            x       y       z     vdW  Elec       q    Type
REMARK                         _______ _______ _______ _____ _____    ______ ____
ROOT
ATOM      1  C   UNL     1       2.088   1.533   0.130  0.00  0.00    +0.106 A 
ATOM      2  C   UNL     1       2.255   0.179   0.363  0.00  0.00    +0.029 A 
ATOM      3  C   UNL     1       1.164  -0.672   0.349  0.00  0.00    +0.006 A 
ATOM      4  C   UNL     1      -0.099  -0.174   0.103  0.00  0.00    -0.038 A 
ATOM      5  C   UNL     1      -0.275   1.190  -0.133  0.00  0.00    +0.042 A 
ATOM      6  C   UNL     1       0.831   2.043  -0.117  0.00  0.00    +0.041 A 
ATOM      7  C   UNL     1      -1.286  -1.102   0.087  0.00  0.00    +0.044 C 
ENDROOT
BRANCH   5   8
ATOM      8  C   UNL     1      -1.624   1.729  -0.404  0.00  0.00    +0.249 C 
ATOM      9  O   UNL     1      -2.566   0.972  -0.537  0.00  0.00    -0.270 OA
ATOM     10  N   UNL     1      -1.811   3.060  -0.503  0.00  0.00    -0.281 N 
ATOM     11  H   UNL     1      -1.050   3.661  -0.464  0.00  0.00    +0.155 HD
BRANCH  10  12
ATOM     12  C   UNL     1      -3.101   3.575  -0.663  0.00  0.00    +0.039 A 
ATOM     13  C   UNL     1      -4.053   2.859  -1.379  0.00  0.00    +0.024 A 
ATOM     14  C   UNL     1      -5.326   3.371  -1.535  0.00  0.00    +0.004 A 
ATOM     15  C   UNL     1      -5.654   4.595  -0.980  0.00  0.00    +0.033 A 
ATOM     16  C   UNL     1      -4.709   5.310  -0.268  0.00  0.00    +0.131 A 
ATOM     17  C   UNL     1      -3.435   4.801  -0.103  0.00  0.00    +0.001 A 
ATOM     18  C   UNL     1      -2.408   5.578   0.680  0.00  0.00    +0.048 C 
BRANCH  16  19
ATOM     19  N   UNL     1      -5.064   6.619   0.324  0.00  0.00    +0.057 N 
ATOM     20  O   UNL     1      -6.172   6.793   0.799  0.00  0.00    -0.126 OA
ATOM     21  O   UNL     1      -4.248   7.524   0.336  0.00  0.00    -0.126 OA
ENDBRANCH  16  19
ENDBRANCH  10  12
ENDBRANCH   5   8
BRANCH   1  22
ATOM     22  S   UNL     1       3.485   2.607   0.150  0.00  0.00    +0.061 S 
ATOM     23  O   UNL     1       2.992   3.907   0.445  0.00  0.00    -0.153 OA
ATOM     24  O   UNL     1       4.476   1.970   0.945  0.00  0.00    -0.153 OA
BRANCH  22  25
ATOM     25  N   UNL     1       4.080   2.665  -1.394  0.00  0.00    -0.177 NA
BRANCH  25  27
ATOM     26  C   UNL     1       4.526   4.886  -2.315  0.00  0.00    +0.022 C 
ATOM     27  C   UNL     1       3.588   3.677  -2.331  0.00  0.00    +0.106 C 
ENDBRANCH  25  27
BRANCH  25  28
ATOM     28  C   UNL     1       5.099   1.703  -1.822  0.00  0.00    +0.106 C 
ATOM     29  C   UNL     1       4.424   0.520  -2.517  0.00  0.00    +0.022 C 
ENDBRANCH  25  28
ENDBRANCH  22  25
ENDBRANCH   1  22
TORSDOF 7
