REMARK  Name = ZINC39620408
REMARK  6 active torsions:
REMARK  status: ('A' for Active; 'I' for Inactive)
REMARK    1  A    between atoms: C_4  and  C_7
REMARK    2  A    between atoms: C_7  and  N_8
REMARK    3  A    between atoms: C_21  and  S_23
REMARK    4  A    between atoms: S_23  and  C_24
REMARK    5  A    between atoms: C_24  and  C_25
REMARK    6  A    between atoms: C_25  and  C_27
REMARK                            x       y       z     vdW  Elec       q    Type
REMARK                         _______ _______ _______ _____ _____    ______ ____
ROOT
ATOM      1  N   UNL     1       4.152  -0.952   1.338  0.00  0.00    -0.236 N 
ATOM      2  C   UNL     1       4.919  -0.037   1.959  0.00  0.00    +0.255 C 
ATOM      3  O   UNL     1       5.243   0.985   1.385  0.00  0.00    -0.269 OA
ATOM      4  C   UNL     1       5.360  -0.285   3.343  0.00  0.00    +0.059 A 
ATOM      5  C   UNL     1       6.154   0.634   4.026  0.00  0.00    +0.015 A 
ATOM      6  C   UNL     1       6.547   0.366   5.320  0.00  0.00    +0.001 A 
ATOM      7  C   UNL     1       6.157  -0.810   5.942  0.00  0.00    +0.002 A 
ATOM      8  C   UNL     1       5.371  -1.729   5.277  0.00  0.00    +0.024 A 
ATOM      9  C   UNL     1       4.965  -1.477   3.974  0.00  0.00    +0.051 A 
ATOM     10  N   UNL     1       4.175  -2.381   3.282  0.00  0.00    -0.243 N 
ATOM     11  C   UNL     1       3.764  -2.128   1.982  0.00  0.00    +0.190 C 
ATOM     12  N   UNL     1       3.030  -3.100   1.530  0.00  0.00    -0.283 N 
ATOM     13  N   UNL     1       2.862  -4.112   2.479  0.00  0.00    -0.259 N 
ATOM     14  C   UNL     1       3.615  -3.685   3.670  0.00  0.00    +0.240 C 
ATOM     15  H   UNL     1       2.357  -4.934   2.373  0.00  0.00    +0.169 HD
ATOM     16  H   UNL     1       2.644  -3.121   0.640  0.00  0.00    +0.187 HD
ENDROOT
BRANCH   1  17
ATOM     17  C   UNL     1       3.711  -0.707  -0.038  0.00  0.00    +0.151 C 
BRANCH  17  21
ATOM     18  C   UNL     1      -0.017   1.378   0.010  0.00  0.00    +0.000 A 
ATOM     19  C   UNL     1       1.171   2.086   0.002  0.00  0.00    +0.000 A 
ATOM     20  C   UNL     1       2.377   1.411  -0.013  0.00  0.00    +0.005 A 
ATOM     21  C   UNL     1       2.396   0.029  -0.020  0.00  0.00    -0.030 A 
ATOM     22  C   UNL     1       1.208  -0.679  -0.012  0.00  0.00    +0.005 A 
ATOM     23  C   UNL     1       0.002  -0.004   0.002  0.00  0.00    +0.000 A 
ENDBRANCH  17  21
ENDBRANCH   1  17
BRANCH  14  24
ATOM     24  S   UNL     1       4.943  -4.859   4.058  0.00  0.00    -0.110 S 
BRANCH  24  25
ATOM     25  C   UNL     1       5.894  -4.970   2.517  0.00  0.00    +0.151 C 
BRANCH  25  26
ATOM     26  C   UNL     1       7.043  -5.927   2.704  0.00  0.00    +0.171 C 
ATOM     27  O   UNL     1       7.205  -6.480   3.772  0.00  0.00    -0.291 OA
BRANCH  26  28
ATOM     28  C   UNL     1       7.931  -6.180   1.636  0.00  0.00    +0.024 C 
ATOM     29  C   UNL     1       9.024  -7.027   1.641  0.00  0.00    +0.006 A 
ATOM     30  C   UNL     1       9.588  -7.866   2.631  0.00  0.00    +0.010 A 
ATOM     31  C   UNL     1      10.686  -8.603   2.355  0.00  0.00    +0.001 A 
ATOM     32  C   UNL     1      11.314  -8.579   1.099  0.00  0.00    +0.002 A 
ATOM     33  C   UNL     1      10.856  -7.813   0.086  0.00  0.00    +0.026 A 
ATOM     34  C   UNL     1       9.663  -6.978   0.303  0.00  0.00    +0.043 A 
ATOM     35  N   UNL     1       9.019  -6.161  -0.481  0.00  0.00    -0.380 N 
ATOM     36  C   UNL     1       7.883  -5.586   0.246  0.00  0.00    +0.152 C 
ATOM     37  H   UNL     1       9.252  -5.967  -1.403  0.00  0.00    +0.160 HD
ENDBRANCH  26  28
ENDBRANCH  25  26
ENDBRANCH  24  25
ENDBRANCH  14  24
TORSDOF 6
