REMARK  Name = ZINC18320870
REMARK  9 active torsions:
REMARK  status: ('A' for Active; 'I' for Inactive)
REMARK    1  A    between atoms: C_1  and  C_2
REMARK    2  A    between atoms: C_2  and  O_3
REMARK    3  A    between atoms: O_3  and  C_4
REMARK    4  A    between atoms: C_4  and  C_6
REMARK    5  A    between atoms: C_7  and  C_13
REMARK    6  A    between atoms: C_13  and  O_14
REMARK    7  A    between atoms: O_14  and  C_15
REMARK    8  A    between atoms: C_15  and  C_17
REMARK    9  A    between atoms: C_26  and  C_29
REMARK                            x       y       z     vdW  Elec       q    Type
REMARK                         _______ _______ _______ _____ _____    ______ ____
ROOT
ATOM      1  C   UNL     1       1.344  -6.409   0.226  0.00  0.00    +0.314 C 
ATOM      2  O   UNL     1       0.172  -6.436  -0.067  0.00  0.00    -0.250 OA
ENDROOT
BRANCH   1   3
ATOM      3  C   UNL     1       2.302  -7.385  -0.408  0.00  0.00    +0.069 C 
ATOM      4  C   UNL     1       2.957  -8.237   0.681  0.00  0.00    +0.021 C 
ATOM      5  C   UNL     1       3.929  -9.228   0.038  0.00  0.00    -0.009 C 
ATOM      6  C   UNL     1       5.009  -8.460  -0.726  0.00  0.00    +0.007 C 
ATOM      7  C   UNL     1       4.354  -7.608  -1.816  0.00  0.00    -0.009 C 
ATOM      8  C   UNL     1       3.381  -6.617  -1.173  0.00  0.00    +0.021 C 
ATOM      9  C   UNL     1       3.591  -8.516  -2.783  0.00  0.00    +0.015 C 
ATOM     10  C   UNL     1       2.511  -9.284  -2.018  0.00  0.00    -0.003 C 
ATOM     11  C   UNL     1       3.166 -10.136  -0.929  0.00  0.00    +0.015 C 
ATOM     12  C   UNL     1       1.539  -8.293  -1.375  0.00  0.00    +0.029 C 
BRANCH  10  13
ATOM     13  C   UNL     1       1.761 -10.178  -2.971  0.00  0.00    -0.041 A 
ATOM     14  C   UNL     1       0.399 -10.012  -3.147  0.00  0.00    +0.004 A 
ATOM     15  C   UNL     1      -0.289 -10.832  -4.021  0.00  0.00    +0.000 A 
ATOM     16  C   UNL     1       0.383 -11.817  -4.720  0.00  0.00    +0.000 A 
ATOM     17  C   UNL     1       1.744 -11.982  -4.545  0.00  0.00    +0.000 A 
ATOM     18  C   UNL     1       2.434 -11.159  -3.675  0.00  0.00    +0.004 A 
ENDBRANCH  10  13
ENDBRANCH   1   3
BRANCH   1  19
ATOM     19  O   UNL     1       1.793  -5.509   1.115  0.00  0.00    -0.458 OA
BRANCH  19  20
ATOM     20  C   UNL     1       0.830  -4.615   1.676  0.00  0.00    +0.283 C 
BRANCH  20  22
ATOM     21  C   UNL     1       1.567  -2.363   2.371  0.00  0.00    +0.074 C 
ATOM     22  C   UNL     1       1.513  -3.685   2.645  0.00  0.00    +0.061 C 
ATOM     23  N   UNL     1       2.067  -4.192   3.786  0.00  0.00    -0.269 N 
ATOM     24  C   UNL     1       2.692  -3.443   4.704  0.00  0.00    +0.304 C 
ATOM     25  O   UNL     1       3.153  -3.986   5.689  0.00  0.00    -0.253 OA
ATOM     26  N   UNL     1       2.826  -2.109   4.571  0.00  0.00    -0.295 N 
ATOM     27  C   UNL     1       2.268  -1.465   3.370  0.00  0.00    +0.150 C 
ATOM     28  H   UNL     1       2.003  -5.147   3.940  0.00  0.00    +0.156 HD
ATOM     29  H   UNL     1       3.282  -1.586   5.248  0.00  0.00    +0.151 HD
BRANCH  21  30
ATOM     30  C   UNL     1       0.995  -1.837   1.190  0.00  0.00    +0.338 C 
ATOM     31  O   UNL     1       1.704  -1.571   0.237  0.00  0.00    -0.245 OA
BRANCH  30  32
ATOM     32  O   UNL     1      -0.337  -1.630   1.119  0.00  0.00    -0.462 OA
BRANCH  32  34
ATOM     33  C   UNL     1      -2.364  -0.933   0.003  0.00  0.00    +0.048 C 
ATOM     34  C   UNL     1      -0.846  -1.097  -0.105  0.00  0.00    +0.229 C 
ENDBRANCH  32  34
ENDBRANCH  30  32
ENDBRANCH  21  30
ENDBRANCH  20  22
ENDBRANCH  19  20
ENDBRANCH   1  19
TORSDOF 8
