REMARK  Name = ZINC08595969
REMARK  12 active torsions:
REMARK  status: ('A' for Active; 'I' for Inactive)
REMARK    1  A    between atoms: C_1  and  C_2
REMARK    2  A    between atoms: C_2  and  C_3
REMARK    3  A    between atoms: C_12  and  S_14
REMARK    4  A    between atoms: S_14  and  N_17
REMARK    5  A    between atoms: N_17  and  C_18
REMARK    6  A    between atoms: C_18  and  C_20
REMARK    7  A    between atoms: C_18  and  C_24
REMARK    8  A    between atoms: C_20  and  C_21
REMARK    9  A    between atoms: C_21  and  C_22
REMARK   10  A    between atoms: C_21  and  C_23
REMARK   11  A    between atoms: N_26  and  C_27
REMARK   12  A    between atoms: C_27  and  C_28
REMARK                            x       y       z     vdW  Elec       q    Type
REMARK                         _______ _______ _______ _____ _____    ______ ____
ROOT
ATOM      1  N   UNL     1       2.344  -5.192   6.982  0.00  0.00    -0.178 NA
ATOM      2  H   UNL     1       2.321  -4.293   7.344  0.00  0.00    +0.149 HD
ENDROOT
BRANCH   1   3
ATOM      3  S   UNL     1       3.796  -5.952   6.742  0.00  0.00    +0.059 S 
ATOM      4  O   UNL     1       3.682  -7.241   7.329  0.00  0.00    -0.153 OA
ATOM      5  O   UNL     1       4.805  -5.027   7.124  0.00  0.00    -0.153 OA
BRANCH   3  15
ATOM      6  C   UNL     1       4.763  -6.234  -0.081  0.00  0.00    +0.220 C 
ATOM      7  O   UNL     1       5.159  -5.109   0.138  0.00  0.00    -0.275 OA
ATOM      8  N   UNL     1       4.310  -6.999   0.932  0.00  0.00    -0.271 N 
ATOM      9  C   UNL     1       3.813  -8.370   0.792  0.00  0.00    +0.118 C 
ATOM     10  C   UNL     1       3.420  -8.803   2.214  0.00  0.00    +0.056 C 
ATOM     11  C   UNL     1       3.736  -7.604   3.079  0.00  0.00    -0.023 A 
ATOM     12  C   UNL     1       4.251  -6.602   2.272  0.00  0.00    +0.040 A 
ATOM     13  C   UNL     1       4.625  -5.388   2.852  0.00  0.00    +0.026 A 
ATOM     14  C   UNL     1       4.484  -5.195   4.210  0.00  0.00    +0.030 A 
ATOM     15  C   UNL     1       3.973  -6.202   5.007  0.00  0.00    +0.106 A 
ATOM     16  C   UNL     1       3.593  -7.404   4.438  0.00  0.00    +0.034 A 
BRANCH   6  18
ATOM     17  C   UNL     1       5.333  -5.716  -2.438  0.00  0.00    +0.013 C 
ATOM     18  C   UNL     1       4.776  -6.777  -1.487  0.00  0.00    +0.093 C 
ENDBRANCH   6  18
ENDBRANCH   3  15
ENDBRANCH   1   3
BRANCH   1  19
ATOM     19  C   UNL     1       1.094  -5.879   6.646  0.00  0.00    +0.162 C 
BRANCH  19  20
ATOM     20  C   UNL     1       0.549  -6.559   7.875  0.00  0.00    +0.232 C 
ATOM     21  O   UNL     1       1.145  -6.479   8.928  0.00  0.00    -0.274 OA
ATOM     22  N   UNL     1      -0.602  -7.258   7.804  0.00  0.00    -0.310 N 
ATOM     23  H   UNL     1      -1.079  -7.322   6.962  0.00  0.00    +0.149 HD
BRANCH  22  24
ATOM     24  C   UNL     1      -1.132  -7.919   8.999  0.00  0.00    +0.139 C 
BRANCH  24  25
ATOM     25  C   UNL     1      -2.418  -8.625   8.653  0.00  0.00    -0.030 A 
ATOM     26  C   UNL     1      -3.624  -7.958   8.763  0.00  0.00    +0.008 A 
ATOM     27  C   UNL     1      -4.803  -8.605   8.446  0.00  0.00    +0.038 A 
ATOM     28  C   UNL     1      -4.777  -9.921   8.018  0.00  0.00    +0.123 A 
ATOM     29  C   UNL     1      -3.569 -10.588   7.908  0.00  0.00    +0.038 A 
ATOM     30  C   UNL     1      -2.390  -9.938   8.221  0.00  0.00    +0.008 A 
ATOM     31  F   UNL     1      -5.929 -10.555   7.708  0.00  0.00    -0.205 F 
ENDBRANCH  24  25
ENDBRANCH  22  24
ENDBRANCH  19  20
BRANCH  19  32
ATOM     32  C   UNL     1       0.075  -4.860   6.132  0.00  0.00    +0.032 C 
BRANCH  32  33
ATOM     33  C   UNL     1       0.573  -4.259   4.816  0.00  0.00    -0.015 C 
ATOM     34  C   UNL     1       0.602  -5.344   3.738  0.00  0.00    +0.007 C 
ATOM     35  C   UNL     1      -0.367  -3.133   4.382  0.00  0.00    +0.007 C 
ENDBRANCH  32  33
ENDBRANCH  19  32
ENDBRANCH   1  19
TORSDOF 9
