REMARK  Name = ZINC20068865
REMARK  10 active torsions:
REMARK  status: ('A' for Active; 'I' for Inactive)
REMARK    1  A    between atoms: C_1  and  C_2
REMARK    2  A    between atoms: C_2  and  O_3
REMARK    3  A    between atoms: O_3  and  C_4
REMARK    4  A    between atoms: C_7  and  C_10
REMARK    5  A    between atoms: C_12  and  C_22
REMARK    6  A    between atoms: C_18  and  C_21
REMARK    7  A    between atoms: N_24  and  C_25
REMARK    8  A    between atoms: C_25  and  C_26
REMARK    9  A    between atoms: C_26  and  C_27
REMARK   10  A    between atoms: C_26  and  C_28
REMARK                            x       y       z     vdW  Elec       q    Type
REMARK                         _______ _______ _______ _____ _____    ______ ____
ROOT
ATOM      1  C   UNL     1      -0.111   0.000  -0.063  0.00  0.00    +0.140 C 
ATOM      2  C   UNL     1      -0.019   1.530   0.011  0.00  0.00    +0.166 C 
ATOM      3  S   UNL     1       1.742   1.980   0.070  0.00  0.00    -0.069 S 
ATOM      4  C   UNL     1       2.261   0.773   1.250  0.00  0.00    +0.209 A 
ATOM      5  N   UNL     1       3.394   0.711   1.893  0.00  0.00    -0.121 NA
ATOM      6  N   UNL     1       3.398  -0.329   2.654  0.00  0.00    -0.132 NA
ATOM      7  C   UNL     1       2.271  -0.977   2.536  0.00  0.00    +0.148 A 
ATOM      8  N   UNL     1       1.501  -0.292   1.641  0.00  0.00    -0.225 N 
ATOM      9  N   UNL     1       0.244  -0.596   1.226  0.00  0.00    -0.272 N 
ATOM     10  C   UNL     1       1.890  -2.244   3.257  0.00  0.00    +0.090 C 
ATOM     11  H   UNL     1      -0.485  -1.223   1.761  0.00  0.00    +0.167 HD
ENDROOT
BRANCH   1  15
ATOM     12  C   UNL     1      -4.106  -1.127  -1.077  0.00  0.00    +0.121 A 
ATOM     13  C   UNL     1      -3.121  -1.107  -2.053  0.00  0.00    +0.046 A 
ATOM     14  C   UNL     1      -1.831  -0.742  -1.723  0.00  0.00    +0.009 A 
ATOM     15  C   UNL     1      -1.520  -0.397  -0.420  0.00  0.00    -0.024 A 
ATOM     16  C   UNL     1      -2.499  -0.422   0.556  0.00  0.00    +0.009 A 
ATOM     17  C   UNL     1      -3.792  -0.781   0.230  0.00  0.00    +0.046 A 
BRANCH  12  18
ATOM     18  O   UNL     1      -5.377  -1.485  -1.399  0.00  0.00    -0.492 OA
BRANCH  18  20
ATOM     19  C   UNL     1      -7.702  -1.910  -0.893  0.00  0.00    +0.048 C 
ATOM     20  C   UNL     1      -6.340  -1.484  -0.343  0.00  0.00    +0.225 C 
ENDBRANCH  18  20
ENDBRANCH  12  18
ENDBRANCH   1  15
BRANCH   2  21
ATOM     21  C   UNL     1      -0.714   2.024   1.253  0.00  0.00    +0.229 C 
ATOM     22  O   UNL     1      -1.912   2.213   1.243  0.00  0.00    -0.275 OA
ATOM     23  N   UNL     1      -0.004   2.256   2.375  0.00  0.00    -0.314 N 
ATOM     24  H   UNL     1       1.082   2.084   2.384  0.00  0.00    +0.149 HD
BRANCH  23  25
ATOM     25  C   UNL     1      -0.680   2.736   3.583  0.00  0.00    +0.107 C 
BRANCH  25  26
ATOM     26  C   UNL     1       0.345   2.916   4.704  0.00  0.00    -0.000 C 
ATOM     27  C   UNL     1       1.328   4.025   4.322  0.00  0.00    +0.009 C 
ATOM     28  C   UNL     1      -0.375   3.297   5.998  0.00  0.00    +0.009 C 
ENDBRANCH  25  26
ENDBRANCH  23  25
ENDBRANCH   2  21
TORSDOF 6
