REMARK  Name = ZINC48845977
REMARK  8 active torsions:
REMARK  status: ('A' for Active; 'I' for Inactive)
REMARK    1  A    between atoms: C_1  and  C_2
REMARK    2  A    between atoms: C_5  and  C_11
REMARK    3  A    between atoms: C_5  and  N_14
REMARK    4  A    between atoms: C_7  and  C_9
REMARK    5  A    between atoms: C_7  and  C_10
REMARK    6  A    between atoms: N_14  and  C_15
REMARK    7  A    between atoms: C_15  and  C_16
REMARK    8  A    between atoms: C_16  and  N_17
REMARK                            x       y       z     vdW  Elec       q    Type
REMARK                         _______ _______ _______ _____ _____    ______ ____
ROOT
ATOM      1  N   UNL     1      -0.600  -2.789  -1.135  0.00  0.00    +0.391 N 
ATOM      2  H   UNL     1      -0.637  -3.784  -0.971  0.00  0.00    -0.084 HD
ATOM      3  H   UNL     1      -1.174  -2.314  -0.455  0.00  0.00    -0.084 HD
ENDROOT
BRANCH   1   7
ATOM      4  C   UNL     1       0.023   1.309   0.004  0.00  0.00    +0.007 C 
ATOM      5  C   UNL     1      -0.010  -0.219   0.068  0.00  0.00    -0.014 C 
ATOM      6  C   UNL     1       0.821  -0.795  -1.080  0.00  0.00    +0.002 C 
ATOM      7  C   UNL     1       0.788  -2.324  -1.016  0.00  0.00    +0.036 C 
ATOM      8  C   UNL     1       1.369  -2.791   0.320  0.00  0.00    +0.005 C 
ATOM      9  C   UNL     1       0.538  -2.215   1.468  0.00  0.00    -0.035 C 
ATOM     10  C   UNL     1       0.571  -0.686   1.404  0.00  0.00    +0.009 C 
ATOM     11  C   UNL     1      -0.908  -2.699   1.343  0.00  0.00    +0.011 C 
ATOM     12  C   UNL     1       1.119  -2.682   2.803  0.00  0.00    +0.011 C 
BRANCH   7  13
ATOM     13  C   UNL     1       1.607  -2.892  -2.146  0.00  0.00    +0.346 C 
ATOM     14  O   UNL     1       2.697  -2.412  -2.410  0.00  0.00    -0.248 OA
ATOM     15  O   UNL     1       1.180  -3.830  -2.797  0.00  0.00    -0.248 OA
ENDBRANCH   7  13
ENDBRANCH   1   7
BRANCH   1  16
ATOM     16  C   UNL     1      -1.100  -2.497  -2.486  0.00  0.00    -0.066 C 
BRANCH  16  17
ATOM     17  C   UNL     1      -2.584  -2.857  -2.569  0.00  0.00    +0.065 C 
BRANCH  17  18
ATOM     18  N   UNL     1      -3.084  -2.565  -3.919  0.00  0.00    -0.308 NA
ATOM     19  C   UNL     1      -3.064  -1.120  -4.188  0.00  0.00    +0.065 C 
ATOM     20  C   UNL     1      -3.534  -0.864  -5.621  0.00  0.00    -0.067 C 
ATOM     21  N   UNL     1      -4.894  -1.393  -5.793  0.00  0.00    +0.381 N 
ATOM     22  C   UNL     1      -4.893  -2.841  -5.545  0.00  0.00    -0.067 C 
ATOM     23  C   UNL     1      -4.434  -3.113  -4.111  0.00  0.00    +0.065 C 
ATOM     24  H   UNL     1      -5.515  -0.940  -5.139  0.00  0.00    -0.086 HD
ATOM     25  H   UNL     1      -5.208  -1.213  -6.734  0.00  0.00    -0.086 HD
ENDBRANCH  17  18
ENDBRANCH  16  17
ENDBRANCH   1  16
TORSDOF 5
