REMARK  Name = ZINC13464912
REMARK  6 active torsions:
REMARK  status: ('A' for Active; 'I' for Inactive)
REMARK    1  A    between atoms: C_1  and  C_2
REMARK    2  A    between atoms: C_10  and  C_20
REMARK    3  A    between atoms: N_12  and  C_13
REMARK    4  A    between atoms: C_13  and  C_14
REMARK    5  A    between atoms: N_22  and  C_23
REMARK    6  A    between atoms: C_23  and  C_24
REMARK                            x       y       z     vdW  Elec       q    Type
REMARK                         _______ _______ _______ _____ _____    ______ ____
ROOT
ATOM      1  C   UNL     1      -2.847   4.672   0.189  0.00  0.00    +0.045 C 
ATOM      2  C   UNL     1      -1.355   4.887   0.162  0.00  0.00    -0.034 A 
ATOM      3  C   UNL     1      -0.836   6.188   0.150  0.00  0.00    +0.008 A 
ATOM      4  C   UNL     1       0.514   6.374   0.120  0.00  0.00    +0.047 A 
ATOM      5  C   UNL     1       1.368   5.256   0.108  0.00  0.00    +0.143 A 
ATOM      6  N   UNL     1       2.687   5.450   0.078  0.00  0.00    -0.211 NA
ATOM      7  C   UNL     1       3.541   4.434   0.065  0.00  0.00    +0.150 A 
ATOM      8  C   UNL     1       3.042   3.112   0.083  0.00  0.00    +0.083 A 
ATOM      9  C   UNL     1       3.917   2.016   0.070  0.00  0.00    +0.033 A 
ATOM     10  C   UNL     1       5.287   2.237   0.039  0.00  0.00    +0.078 A 
ATOM     11  C   UNL     1       5.787   3.620   0.021  0.00  0.00    +0.119 A 
ATOM     12  N   UNL     1       4.893   4.670   0.035  0.00  0.00    -0.307 N 
ATOM     13  C   UNL     1       1.637   2.914   0.114  0.00  0.00    +0.268 A 
ATOM     14  O   UNL     1       1.168   1.790   0.129  0.00  0.00    -0.267 OA
ATOM     15  N   UNL     1       0.831   3.999   0.126  0.00  0.00    -0.267 N 
ATOM     16  C   UNL     1      -0.520   3.824   0.155  0.00  0.00    +0.099 A 
ATOM     17  H   UNL     1       7.778   3.184  -0.096  0.00  0.00    +0.157 HD
ATOM     18  N   UNL     1       7.083   3.924  -0.003  0.00  0.00    -0.384 N 
ATOM     19  H   UNL     1       7.382   4.904   0.071  0.00  0.00    +0.157 HD
ENDROOT
BRANCH  10  20
ATOM     20  C   UNL     1       6.223   1.107   0.024  0.00  0.00    +0.248 C 
ATOM     21  O   UNL     1       7.416   1.307  -0.108  0.00  0.00    -0.270 OA
ATOM     22  N   UNL     1       5.762  -0.152   0.157  0.00  0.00    -0.304 N 
ATOM     23  H   UNL     1       4.811  -0.311   0.262  0.00  0.00    +0.149 HD
BRANCH  22  24
ATOM     24  C   UNL     1       6.696  -1.280   0.142  0.00  0.00    +0.179 C 
BRANCH  24  25
ATOM     25  C   UNL     1       5.932  -2.568   0.307  0.00  0.00    +0.122 A 
ATOM     26  C   UNL     1       5.425  -3.315  -0.690  0.00  0.00    +0.046 A 
ATOM     27  C   UNL     1       4.792  -4.427  -0.087  0.00  0.00    +0.041 A 
ATOM     28  C   UNL     1       4.949  -4.292   1.242  0.00  0.00    +0.195 A 
ATOM     29  O   UNL     1       5.646  -3.168   1.475  0.00  0.00    -0.466 OA
ENDBRANCH  24  25
ENDBRANCH  22  24
ENDBRANCH  10  20
BRANCH  12  30
ATOM     30  C   UNL     1       5.391   6.048   0.017  0.00  0.00    +0.161 C 
BRANCH  30  31
ATOM     31  C   UNL     1       5.591   6.527   1.432  0.00  0.00    -0.010 A 
ATOM     32  C   UNL     1       6.810   6.345   2.068  0.00  0.00    +0.008 A 
ATOM     33  C   UNL     1       6.949   6.802   3.370  0.00  0.00    +0.020 A 
ATOM     34  C   UNL     1       5.877   7.421   3.985  0.00  0.00    +0.111 A 
ATOM     35  N   UNL     1       4.732   7.577   3.348  0.00  0.00    -0.263 NA
ATOM     36  C   UNL     1       4.566   7.160   2.108  0.00  0.00    +0.116 A 
ENDBRANCH  30  31
ENDBRANCH  12  30
TORSDOF 5
