REMARK  Name = ZINC36313551
REMARK  10 active torsions:
REMARK  status: ('A' for Active; 'I' for Inactive)
REMARK    1  A    between atoms: C_2  and  C_3
REMARK    2  A    between atoms: C_3  and  O_4
REMARK    3  A    between atoms: O_4  and  C_5
REMARK    4  A    between atoms: C_5  and  C_6
REMARK    5  A    between atoms: C_6  and  C_8
REMARK    6  A    between atoms: C_6  and  O_33
REMARK    7  A    between atoms: C_8  and  N_9
REMARK    8  A    between atoms: N_9  and  C_10
REMARK    9  A    between atoms: N_9  and  C_27
REMARK   10  A    between atoms: C_10  and  C_11
REMARK                            x       y       z     vdW  Elec       q    Type
REMARK                         _______ _______ _______ _____ _____    ______ ____
ROOT
ATOM      1  N   UNL     1       4.401   5.704  -0.066  0.00  0.00    +0.388 N 
ATOM      2  H   UNL     1       5.157   5.271  -0.575  0.00  0.00    -0.081 HD
ENDROOT
BRANCH   1   3
ATOM      3  C   UNL     1       4.485   5.324   1.351  0.00  0.00    -0.068 C 
ATOM      4  C   UNL     1       3.287   5.904   2.106  0.00  0.00    -0.015 C 
ATOM      5  C   UNL     1       3.374   5.509   3.581  0.00  0.00    -0.002 C 
ATOM      6  C   UNL     1       4.670   6.058   4.181  0.00  0.00    -0.000 C 
ATOM      7  C   UNL     1       5.867   5.478   3.426  0.00  0.00    -0.002 C 
ATOM      8  C   UNL     1       5.781   5.873   1.950  0.00  0.00    -0.015 C 
ENDBRANCH   1   3
BRANCH   1   9
ATOM      9  C   UNL     1       3.117   5.253  -0.619  0.00  0.00    -0.044 C 
BRANCH   9  10
ATOM     10  C   UNL     1       3.092   3.724  -0.670  0.00  0.00    +0.124 C 
BRANCH  10  11
ATOM     11  O   UNL     1       3.047   3.204   0.661  0.00  0.00    -0.391 OA
ATOM     12  H   UNL     1       2.233   3.417   1.139  0.00  0.00    +0.210 HD
ENDBRANCH  10  11
BRANCH  10  13
ATOM     13  C   UNL     1       1.855   3.260  -1.441  0.00  0.00    +0.190 C 
BRANCH  13  14
ATOM     14  O   UNL     1       1.892   1.839  -1.589  0.00  0.00    -0.365 OA
BRANCH  14  15
ATOM     15  C   UNL     1       0.775   1.300  -2.300  0.00  0.00    +0.248 C 
BRANCH  15  17
ATOM     16  C   UNL     1       1.024  -1.329  -2.469  0.00  0.00    +0.006 C 
ATOM     17  C   UNL     1       0.914  -0.163  -2.394  0.00  0.00    -0.077 C 
ENDBRANCH  15  17
ENDBRANCH  14  15
ENDBRANCH  13  14
ENDBRANCH  10  13
ENDBRANCH   9  10
ENDBRANCH   1   9
BRANCH   1  18
ATOM     18  C   UNL     1       4.501   7.164  -0.188  0.00  0.00    -0.003 C 
BRANCH  18  19
ATOM     19  C   UNL     1       5.952   7.571  -0.173  0.00  0.00    +0.094 A 
ATOM     20  N   UNL     1       6.275   8.889  -0.128  0.00  0.00    -0.312 N 
ATOM     21  H   UNL     1       5.566   9.551  -0.104  0.00  0.00    +0.170 HD
ATOM     22  C   UNL     1       7.558   9.296  -0.114  0.00  0.00    +0.260 A 
ATOM     23  O   UNL     1       7.831  10.484  -0.072  0.00  0.00    -0.267 OA
ATOM     24  C   UNL     1       8.597   8.310  -0.148  0.00  0.00    +0.075 A 
ATOM     25  C   UNL     1      10.047   8.522  -0.141  0.00  0.00    -0.023 A 
ATOM     26  C   UNL     1      10.821   7.418  -0.184  0.00  0.00    -0.004 A 
ATOM     27  S   UNL     1       9.684   6.056  -0.225  0.00  0.00    -0.073 S 
ATOM     28  C   UNL     1       8.167   6.976  -0.194  0.00  0.00    +0.116 A 
ATOM     29  N   UNL     1       6.877   6.649  -0.200  0.00  0.00    -0.229 NA
ATOM     30  C   UNL     1      12.316   7.344  -0.208  0.00  0.00    +0.043 C 
ATOM     31  C   UNL     1      12.884   8.234   0.906  0.00  0.00    +0.005 C 
ATOM     32  C   UNL     1      13.093   9.636   0.342  0.00  0.00    +0.001 C 
ATOM     33  C   UNL     1      12.024   9.943  -0.705  0.00  0.00    +0.005 C 
ATOM     34  C   UNL     1      10.637   9.928  -0.075  0.00  0.00    +0.037 C 
ENDBRANCH  18  19
ENDBRANCH   1  18
TORSDOF 10
