REMARK  Name = ZINC59742400
REMARK  9 active torsions:
REMARK  status: ('A' for Active; 'I' for Inactive)
REMARK    1  A    between atoms: C_1  and  C_2
REMARK    2  A    between atoms: C_2  and  C_3
REMARK    3  A    between atoms: C_2  and  C_4
REMARK    4  A    between atoms: C_2  and  C_11
REMARK    5  A    between atoms: N_13  and  C_14
REMARK    6  A    between atoms: C_14  and  C_15
REMARK    7  A    between atoms: C_15  and  N_16
REMARK    8  A    between atoms: N_16  and  C_17
REMARK    9  A    between atoms: C_22  and  N_23
REMARK                            x       y       z     vdW  Elec       q    Type
REMARK                         _______ _______ _______ _____ _____    ______ ____
ROOT
ATOM      1  C   UNL     1       0.777  -0.139  -1.249  0.00  0.00    +0.223 C 
ATOM      2  O   UNL     1       0.278  -0.765  -2.160  0.00  0.00    -0.275 OA
ATOM      3  N   UNL     1       2.094   0.147  -1.271  0.00  0.00    -0.313 N 
ATOM      4  H   UNL     1       2.494   0.647  -0.542  0.00  0.00    +0.149 HD
ENDROOT
BRANCH   1   6
ATOM      5  C   UNL     1      -0.101   1.848  -0.053  0.00  0.00    +0.025 C 
ATOM      6  C   UNL     1      -0.074   0.319  -0.093  0.00  0.00    +0.066 C 
ATOM      7  C   UNL     1       0.512  -0.216   1.215  0.00  0.00    +0.025 C 
BRANCH   6   8
ATOM      8  C   UNL     1      -1.477  -0.204  -0.265  0.00  0.00    -0.033 A 
ATOM      9  C   UNL     1      -1.984  -1.131   0.627  0.00  0.00    +0.006 A 
ATOM     10  C   UNL     1      -3.271  -1.610   0.469  0.00  0.00    +0.020 A 
ATOM     11  C   UNL     1      -4.052  -1.162  -0.581  0.00  0.00    +0.041 A 
ATOM     12  C   UNL     1      -3.545  -0.235  -1.473  0.00  0.00    +0.020 A 
ATOM     13  C   UNL     1      -2.260   0.248  -1.312  0.00  0.00    +0.006 A 
ATOM     14 CL   UNL     1      -5.668  -1.764  -0.779  0.00  0.00    -0.084 Cl
ENDBRANCH   6   8
ENDBRANCH   1   6
BRANCH   3  15
ATOM     15  C   UNL     1       2.922  -0.298  -2.394  0.00  0.00    +0.123 C 
BRANCH  15  16
ATOM     16  C   UNL     1       4.367   0.153  -2.173  0.00  0.00    +0.120 C 
BRANCH  16  17
ATOM     17  N   UNL     1       5.195  -0.292  -3.297  0.00  0.00    -0.341 N 
ATOM     18  H   UNL     1       4.795  -0.792  -4.026  0.00  0.00    +0.146 HD
BRANCH  17  19
ATOM     19  C   UNL     1       6.560   0.004  -3.319  0.00  0.00    +0.058 A 
ATOM     20  C   UNL     1       7.151   0.648  -2.239  0.00  0.00    +0.025 A 
ATOM     21  C   UNL     1       8.500   0.938  -2.264  0.00  0.00    +0.002 A 
ATOM     22  C   UNL     1       9.264   0.590  -3.363  0.00  0.00    +0.002 A 
ATOM     23  C   UNL     1       8.679  -0.050  -4.440  0.00  0.00    +0.034 A 
ATOM     24  C   UNL     1       7.331  -0.349  -4.419  0.00  0.00    +0.147 A 
BRANCH  24  25
ATOM     25  N   UNL     1       6.707  -1.039  -5.570  0.00  0.00    +0.058 N 
ATOM     26  O   UNL     1       5.849  -1.870  -5.384  0.00  0.00    -0.126 OA
ATOM     27  O   UNL     1       7.056  -0.772  -6.697  0.00  0.00    -0.126 OA
ENDBRANCH  24  25
ENDBRANCH  17  19
ENDBRANCH  16  17
ENDBRANCH  15  16
ENDBRANCH   3  15
TORSDOF 7
