REMARK  Name = ZINC39676930
REMARK  8 active torsions:
REMARK  status: ('A' for Active; 'I' for Inactive)
REMARK    1  A    between atoms: C_1  and  C_2
REMARK    2  A    between atoms: C_5  and  C_37
REMARK    3  A    between atoms: C_6  and  C_8
REMARK    4  A    between atoms: C_8  and  C_9
REMARK    5  A    between atoms: C_9  and  N_10
REMARK    6  A    between atoms: C_11  and  C_13
REMARK    7  A    between atoms: C_24  and  C_26
REMARK    8  A    between atoms: C_29  and  C_33
REMARK                            x       y       z     vdW  Elec       q    Type
REMARK                         _______ _______ _______ _____ _____    ______ ____
ROOT
ATOM      1  C   UNL     1       2.881  -4.428   5.939  0.00  0.00    +0.100 C 
ATOM      2  C   UNL     1       2.284  -3.811   7.223  0.00  0.00    +0.121 C 
ATOM      3  N   UNL     1       3.152  -4.310   8.316  0.00  0.00    -0.296 N 
ATOM      4  C   UNL     1       4.521  -4.265   7.750  0.00  0.00    +0.115 C 
ATOM      5  C   UNL     1       4.349  -4.723   6.288  0.00  0.00    -0.004 C 
ATOM      6  C   UNL     1       4.630  -6.218   6.168  0.00  0.00    -0.010 C 
ATOM      7  C   UNL     1       6.110  -6.480   6.465  0.00  0.00    -0.082 C 
ATOM      8  N   UNL     1       6.941  -5.728   5.518  0.00  0.00    +0.379 N 
ATOM      9  C   UNL     1       6.734  -4.287   5.704  0.00  0.00    -0.082 C 
ATOM     10  C   UNL     1       5.281  -3.932   5.375  0.00  0.00    -0.010 C 
ATOM     11  C   UNL     1       2.780  -4.713   9.547  0.00  0.00    +0.247 C 
ATOM     12  O   UNL     1       1.601  -4.814   9.823  0.00  0.00    -0.270 OA
ATOM     13  H   UNL     1       7.913  -5.949   5.676  0.00  0.00    -0.086 HD
ATOM     14  H   UNL     1       6.690  -5.984   4.574  0.00  0.00    -0.086 HD
ENDROOT
BRANCH  11  15
ATOM     15  C   UNL     1       3.807  -5.033  10.562  0.00  0.00    +0.040 A 
ATOM     16  C   UNL     1       5.102  -4.529  10.431  0.00  0.00    +0.014 A 
ATOM     17  C   UNL     1       6.056  -4.830  11.381  0.00  0.00    +0.016 A 
ATOM     18  C   UNL     1       5.733  -5.629  12.463  0.00  0.00    +0.090 A 
ATOM     19  C   UNL     1       4.449  -6.134  12.599  0.00  0.00    +0.136 A 
ATOM     20  C   UNL     1       3.483  -5.835  11.657  0.00  0.00    +0.052 A 
ATOM     21  F   UNL     1       4.141  -6.915  13.658  0.00  0.00    -0.205 F 
BRANCH  18  22
ATOM     22  C   UNL     1       6.780  -5.954  13.496  0.00  0.00    +0.420 C 
ATOM     23  F   UNL     1       7.987  -5.338  13.146  0.00  0.00    -0.166 F 
ATOM     24  F   UNL     1       6.363  -5.485  14.746  0.00  0.00    -0.166 F 
ATOM     25  F   UNL     1       6.964  -7.339  13.555  0.00  0.00    -0.166 F 
ENDBRANCH  18  22
ENDBRANCH  11  15
BRANCH   1  27
ATOM     26  N   UNL     1       2.676  -3.890   3.533  0.00  0.00    -0.315 N 
ATOM     27  C   UNL     1       2.801  -3.445   4.799  0.00  0.00    +0.218 C 
ATOM     28  O   UNL     1       2.849  -2.254   5.020  0.00  0.00    -0.275 OA
ATOM     29  H   UNL     1       2.638  -4.843   3.355  0.00  0.00    +0.149 HD
BRANCH  26  30
ATOM     30  C   UNL     1       2.598  -2.935   2.425  0.00  0.00    +0.109 C 
BRANCH  30  31
ATOM     31  C   UNL     1       2.461  -3.696   1.104  0.00  0.00    +0.054 C 
BRANCH  31  37
ATOM     32  C   UNL     1      -0.268  -0.981  -2.093  0.00  0.00    +0.044 C 
ATOM     33  C   UNL     1       1.075  -1.415  -1.566  0.00  0.00    -0.050 A 
ATOM     34  C   UNL     1       2.234  -0.912  -2.128  0.00  0.00    +0.003 A 
ATOM     35  C   UNL     1       3.466  -1.311  -1.644  0.00  0.00    +0.004 A 
ATOM     36  C   UNL     1       3.540  -2.212  -0.598  0.00  0.00    -0.047 A 
ATOM     37  C   UNL     1       2.381  -2.714  -0.036  0.00  0.00    -0.043 A 
ATOM     38  C   UNL     1       1.149  -2.312  -0.517  0.00  0.00    +0.007 A 
ATOM     39  C   UNL     1       4.883  -2.647  -0.071  0.00  0.00    +0.044 C 
ENDBRANCH  31  37
ENDBRANCH  30  31
ENDBRANCH  26  30
ENDBRANCH   1  27
TORSDOF 6
