REMARK  Name = ZINC25677492
REMARK  7 active torsions:
REMARK  status: ('A' for Active; 'I' for Inactive)
REMARK    1  A    between atoms: C_1  and  C_2
REMARK    2  A    between atoms: C_5  and  S_9
REMARK    3  A    between atoms: C_6  and  C_8
REMARK    4  A    between atoms: S_9  and  N_12
REMARK    5  A    between atoms: N_15  and  C_18
REMARK    6  A    between atoms: C_18  and  C_19
REMARK    7  A    between atoms: N_21  and  C_22
REMARK                            x       y       z     vdW  Elec       q    Type
REMARK                         _______ _______ _______ _____ _____    ______ ____
ROOT
ATOM      1  N   UNL     1      -0.879   3.019   1.190  0.00  0.00    -0.180 NA
ATOM      2  C   UNL     1      -0.748   1.556   1.271  0.00  0.00    +0.091 C 
ATOM      3  C   UNL     1      -0.028   1.062   0.011  0.00  0.00    -0.061 C 
ATOM      4  N   UNL     1      -0.732   1.558  -1.178  0.00  0.00    +0.387 N 
ATOM      5  C   UNL     1      -0.704   3.026  -1.241  0.00  0.00    -0.061 C 
ATOM      6  C   UNL     1      -1.452   3.600  -0.034  0.00  0.00    +0.091 C 
ATOM      7  H   UNL     1      -1.785   1.248  -1.098  0.00  0.00    -0.081 HD
ENDROOT
BRANCH   1   8
ATOM      8  S   UNL     1      -0.396   3.986   2.445  0.00  0.00    +0.061 S 
ATOM      9  O   UNL     1       0.574   3.248   3.176  0.00  0.00    -0.153 OA
ATOM     10  O   UNL     1      -0.121   5.264   1.890  0.00  0.00    -0.153 OA
BRANCH   8  15
ATOM     11  C   UNL     1      -5.148   4.679   6.098  0.00  0.00    +0.044 C 
ATOM     12  C   UNL     1      -3.961   4.506   5.185  0.00  0.00    -0.050 A 
ATOM     13  C   UNL     1      -2.836   3.839   5.633  0.00  0.00    +0.005 A 
ATOM     14  C   UNL     1      -1.748   3.680   4.797  0.00  0.00    +0.029 A 
ATOM     15  C   UNL     1      -1.784   4.188   3.511  0.00  0.00    +0.108 A 
ATOM     16  C   UNL     1      -2.906   4.859   3.065  0.00  0.00    -0.024 A 
ATOM     17  C   UNL     1      -3.997   5.014   3.900  0.00  0.00    +0.008 A 
ATOM     18  C   UNL     1      -2.943   5.418   1.666  0.00  0.00    +0.046 C 
ENDBRANCH   8  15
ENDBRANCH   1   8
BRANCH   4  19
ATOM     19  C   UNL     1      -0.177   0.968  -2.403  0.00  0.00    +0.019 C 
BRANCH  19  20
ATOM     20  C   UNL     1      -1.069   1.301  -3.571  0.00  0.00    +0.201 C 
ATOM     21  O   UNL     1      -2.070   1.966  -3.400  0.00  0.00    -0.278 OA
ATOM     22  N   UNL     1      -0.756   0.862  -4.806  0.00  0.00    -0.286 N 
ATOM     23  H   UNL     1       0.196   0.338  -4.978  0.00  0.00    +0.155 HD
BRANCH  22  24
ATOM     24  C   UNL     1      -1.643   1.072  -5.871  0.00  0.00    +0.056 A 
ATOM     25  C   UNL     1      -2.998   1.241  -5.623  0.00  0.00    +0.074 A 
ATOM     26  C   UNL     1      -3.875   1.449  -6.676  0.00  0.00    +0.164 A 
ATOM     27  C   UNL     1      -3.395   1.490  -7.980  0.00  0.00    +0.164 A 
ATOM     28  C   UNL     1      -2.041   1.320  -8.225  0.00  0.00    +0.071 A 
ATOM     29  C   UNL     1      -1.165   1.117  -7.174  0.00  0.00    +0.066 A 
ATOM     30 CL   UNL     1       0.530   0.912  -7.485  0.00  0.00    -0.082 Cl
ATOM     31  O   UNL     1      -4.241   1.698  -9.027  0.00  0.00    -0.485 OA
ATOM     32  C   UNL     1      -5.636   1.490  -8.778  0.00  0.00    +0.270 C 
ATOM     33  C   UNL     1      -5.997   2.184  -7.458  0.00  0.00    +0.270 C 
ATOM     34  O   UNL     1      -5.202   1.609  -6.416  0.00  0.00    -0.485 OA
ENDBRANCH  22  24
ENDBRANCH  19  20
ENDBRANCH   4  19
TORSDOF 5
