REMARK  Name = ZINC14654670
REMARK  9 active torsions:
REMARK  status: ('A' for Active; 'I' for Inactive)
REMARK    1  A    between atoms: C_1  and  C_2
REMARK    2  A    between atoms: C_2  and  O_3
REMARK    3  A    between atoms: O_3  and  C_4
REMARK    4  A    between atoms: C_9  and  C_10
REMARK    5  A    between atoms: N_12  and  C_13
REMARK    6  A    between atoms: C_16  and  S_19
REMARK    7  A    between atoms: S_19  and  N_22
REMARK    8  A    between atoms: N_22  and  C_23
REMARK    9  A    between atoms: C_23  and  C_24
REMARK                            x       y       z     vdW  Elec       q    Type
REMARK                         _______ _______ _______ _____ _____    ______ ____
ROOT
ATOM      1  C   UNL     1      -0.015   1.389   0.004  0.00  0.00    +0.034 A 
ATOM      2  C   UNL     1       1.178   2.100  -0.013  0.00  0.00    +0.025 A 
ATOM      3  C   UNL     1       2.383   1.425  -0.034  0.00  0.00    +0.030 A 
ATOM      4  C   UNL     1       2.402   0.042  -0.039  0.00  0.00    +0.105 A 
ATOM      5  C   UNL     1       1.216  -0.669  -0.023  0.00  0.00    +0.030 A 
ATOM      6  C   UNL     1       0.008  -0.000  -0.002  0.00  0.00    +0.025 A 
ENDROOT
BRANCH   1   9
ATOM      7  C   UNL     1      -1.353   3.229   0.696  0.00  0.00    +0.252 C 
ATOM      8  O   UNL     1      -0.376   3.727   1.221  0.00  0.00    -0.270 OA
ATOM      9  N   UNL     1      -1.236   2.069   0.019  0.00  0.00    -0.281 N 
ATOM     10  H   UNL     1      -2.000   1.706  -0.457  0.00  0.00    +0.155 HD
BRANCH   7  16
ATOM     11  C   UNL     1      -2.792   5.100   1.500  0.00  0.00    +0.133 A 
ATOM     12  C   UNL     1      -4.030   5.717   1.591  0.00  0.00    +0.047 A 
ATOM     13  C   UNL     1      -5.134   5.145   0.991  0.00  0.00    +0.019 A 
ATOM     14  C   UNL     1      -5.014   3.952   0.295  0.00  0.00    +0.019 A 
ATOM     15  C   UNL     1      -3.789   3.328   0.191  0.00  0.00    +0.032 A 
ATOM     16  C   UNL     1      -2.666   3.894   0.798  0.00  0.00    +0.080 A 
ATOM     17 BR   UNL     1      -6.536   3.181  -0.521  0.00  0.00    -0.050 Br
BRANCH  11  18
ATOM     18  O   UNL     1      -1.706   5.662   2.089  0.00  0.00    -0.491 OA
BRANCH  18  20
ATOM     19  C   UNL     1      -0.583   7.369   3.380  0.00  0.00    +0.048 C 
ATOM     20  C   UNL     1      -1.911   6.892   2.788  0.00  0.00    +0.226 C 
ENDBRANCH  18  20
ENDBRANCH  11  18
ENDBRANCH   7  16
ENDBRANCH   1   9
BRANCH   4  21
ATOM     21  S   UNL     1       3.941  -0.815  -0.065  0.00  0.00    +0.059 S 
ATOM     22  O   UNL     1       4.911   0.073   0.473  0.00  0.00    -0.153 OA
ATOM     23  O   UNL     1       3.699  -2.103   0.485  0.00  0.00    -0.153 OA
BRANCH  21  24
ATOM     24  N   UNL     1       4.345  -1.048  -1.655  0.00  0.00    -0.186 NA
ATOM     25  H   UNL     1       4.390  -1.947  -2.017  0.00  0.00    +0.148 HD
BRANCH  24  26
ATOM     26  C   UNL     1       4.633   0.103  -2.514  0.00  0.00    +0.141 C 
BRANCH  26  27
ATOM     27  C   UNL     1       5.317  -0.367  -3.771  0.00  0.00    -0.032 A 
ATOM     28  C   UNL     1       6.696  -0.448  -3.819  0.00  0.00    +0.005 A 
ATOM     29  C   UNL     1       7.324  -0.884  -4.971  0.00  0.00    +0.000 A 
ATOM     30  C   UNL     1       6.572  -1.230  -6.079  0.00  0.00    +0.000 A 
ATOM     31  C   UNL     1       5.193  -1.144  -6.033  0.00  0.00    +0.000 A 
ATOM     32  C   UNL     1       4.566  -0.713  -4.879  0.00  0.00    +0.005 A 
ENDBRANCH  26  27
ENDBRANCH  24  26
ENDBRANCH  21  24
ENDBRANCH   4  21
TORSDOF 8
