REMARK  Name = ZINC44828378
REMARK  7 active torsions:
REMARK  status: ('A' for Active; 'I' for Inactive)
REMARK    1  A    between atoms: C_1  and  C_2
REMARK    2  A    between atoms: C_2  and  C_3
REMARK    3  A    between atoms: C_2  and  C_4
REMARK    4  A    between atoms: C_4  and  C_6
REMARK    5  A    between atoms: C_4  and  C_9
REMARK    6  A    between atoms: C_6  and  N_8
REMARK    7  A    between atoms: C_15  and  C_18
REMARK                            x       y       z     vdW  Elec       q    Type
REMARK                         _______ _______ _______ _____ _____    ______ ____
ROOT
ATOM      1  C   UNL     1      -1.206  -2.021  -0.137  0.00  0.00    +0.225 C 
ATOM      2  O   UNL     1      -0.075  -2.458  -0.096  0.00  0.00    -0.275 OA
ATOM      3  N   UNL     1      -2.246  -2.859  -0.320  0.00  0.00    -0.300 N 
ATOM      4  C   UNL     1      -3.607  -2.334  -0.492  0.00  0.00    +0.108 C 
ATOM      5  C   UNL     1      -4.199  -2.913  -1.782  0.00  0.00    +0.020 C 
ATOM      6  C   UNL     1      -4.115  -4.441  -1.736  0.00  0.00    +0.016 C 
ATOM      7  C   UNL     1      -2.649  -4.870  -1.642  0.00  0.00    +0.092 C 
ATOM      8  C   UNL     1      -2.038  -4.313  -0.357  0.00  0.00    +0.120 C 
ENDROOT
BRANCH   7   9
ATOM      9  C   UNL     1      -2.564  -6.375  -1.630  0.00  0.00    +0.215 C 
ATOM     10  O   UNL     1      -2.064  -6.947  -0.685  0.00  0.00    -0.276 OA
ATOM     11  N   UNL     1      -3.045  -7.084  -2.670  0.00  0.00    -0.329 N 
ATOM     12  H   UNL     1      -3.445  -6.627  -3.426  0.00  0.00    +0.145 HD
ATOM     13  H   UNL     1      -2.991  -8.053  -2.662  0.00  0.00    +0.145 HD
ENDBRANCH   7   9
BRANCH   1  14
ATOM     14  C   UNL     1      -1.448  -0.542   0.018  0.00  0.00    +0.129 C 
BRANCH  14  16
ATOM     15  C   UNL     1      -0.622   1.560   1.088  0.00  0.00    +0.008 C 
ATOM     16  C   UNL     1      -0.376   0.058   0.931  0.00  0.00    +0.001 C 
ATOM     17  C   UNL     1      -0.441  -0.616   2.303  0.00  0.00    +0.008 C 
ENDBRANCH  14  16
BRANCH  14  18
ATOM     18  C   UNL     1      -1.384   0.121  -1.334  0.00  0.00    +0.058 C 
ATOM     19  S   UNL     1      -2.637   0.955  -1.875  0.00  0.00    -0.040 S 
BRANCH  18  20
ATOM     20  N   UNL     1      -0.271   0.012  -2.086  0.00  0.00    -0.355 N 
ATOM     21  H   UNL     1       0.489  -0.493  -1.758  0.00  0.00    +0.143 HD
ATOM     22  H   UNL     1      -0.230   0.439  -2.956  0.00  0.00    +0.143 HD
ENDBRANCH  18  20
ENDBRANCH  14  18
ENDBRANCH   1  14
TORSDOF 5
