REMARK  Name = ZINC20709588
REMARK  6 active torsions:
REMARK  status: ('A' for Active; 'I' for Inactive)
REMARK    1  A    between atoms: C_5  and  C_7
REMARK    2  A    between atoms: N_9  and  C_10
REMARK    3  A    between atoms: C_10  and  C_11
REMARK    4  A    between atoms: C_18  and  C_27
REMARK    5  A    between atoms: C_29  and  N_34
REMARK    6  A    between atoms: C_32  and  O_33
REMARK                            x       y       z     vdW  Elec       q    Type
REMARK                         _______ _______ _______ _____ _____    ______ ____
ROOT
ATOM      1  C   UNL     1      -5.894  -0.140  -0.889  0.00  0.00    +0.001 A 
ATOM      2  C   UNL     1      -6.772   0.009  -1.951  0.00  0.00    +0.006 A 
ATOM      3  C   UNL     1      -6.448   0.800  -3.030  0.00  0.00    -0.019 A 
ATOM      4  C   UNL     1      -5.218   1.463  -3.081  0.00  0.00    +0.044 A 
ATOM      5  C   UNL     1      -4.331   1.308  -1.996  0.00  0.00    +0.058 A 
ATOM      6  C   UNL     1      -4.680   0.510  -0.908  0.00  0.00    +0.015 A 
ATOM      7  N   UNL     1      -4.799   2.245  -4.144  0.00  0.00    -0.336 N 
ATOM      8  C   UNL     1      -5.773   2.480  -5.223  0.00  0.00    +0.108 C 
ATOM      9  C   UNL     1      -6.522   1.181  -5.437  0.00  0.00    +0.029 C 
ATOM     10  C   UNL     1      -7.386   1.002  -4.156  0.00  0.00    +0.049 C 
ATOM     11  C   UNL     1      -8.392  -0.005  -4.555  0.00  0.00    -0.023 C 
ATOM     12  C   UNL     1      -8.582   0.087  -5.867  0.00  0.00    -0.030 C 
ATOM     13  C   UNL     1      -7.671   1.171  -6.450  0.00  0.00    +0.033 C 
ATOM     14  H   UNL     1      -3.793   2.684  -4.207  0.00  0.00    +0.147 HD
ENDROOT
BRANCH   8  15
ATOM     15  C   UNL     1      -5.054   2.875  -6.487  0.00  0.00    +0.017 A 
ATOM     16  C   UNL     1      -3.770   2.423  -6.722  0.00  0.00    +0.041 A 
ATOM     17  C   UNL     1      -3.110   2.785  -7.881  0.00  0.00    +0.127 A 
ATOM     18  C   UNL     1      -3.733   3.599  -8.809  0.00  0.00    +0.036 A 
ATOM     19  C   UNL     1      -5.017   4.053  -8.579  0.00  0.00    +0.048 A 
ATOM     20  C   UNL     1      -5.684   3.687  -7.418  0.00  0.00    +0.122 A 
BRANCH  17  21
ATOM     21  N   UNL     1      -1.734   2.300  -8.131  0.00  0.00    +0.056 N 
ATOM     22  O   UNL     1      -1.184   1.582  -7.315  0.00  0.00    -0.126 OA
ATOM     23  O   UNL     1      -1.152   2.618  -9.152  0.00  0.00    -0.126 OA
ENDBRANCH  17  21
BRANCH  20  24
ATOM     24  O   UNL     1      -6.949   4.128  -7.192  0.00  0.00    -0.506 OA
ATOM     25  H   UNL     1      -7.447   4.773  -7.931  0.00  0.00    +0.292 HD
ENDBRANCH  20  24
ENDBRANCH   8  15
BRANCH   5  26
ATOM     26  C   UNL     1      -3.029   2.000  -2.010  0.00  0.00    +0.246 C 
ATOM     27  O   UNL     1      -2.721   2.697  -2.957  0.00  0.00    -0.270 OA
ATOM     28  N   UNL     1      -2.181   1.859  -0.972  0.00  0.00    -0.309 N 
ATOM     29  H   UNL     1      -2.459   1.228  -0.115  0.00  0.00    +0.149 HD
BRANCH  28  30
ATOM     30  C   UNL     1      -0.887   2.546  -0.986  0.00  0.00    +0.136 C 
BRANCH  30  31
ATOM     31  C   UNL     1      -0.123   2.220   0.300  0.00  0.00    +0.135 C 
ATOM     32  C   UNL     1       1.237   2.945   0.299  0.00  0.00    +0.035 C 
ATOM     33  C   UNL     1       1.202   3.820   1.575  0.00  0.00    +0.031 C 
ATOM     34  C   UNL     1       0.113   3.113   2.423  0.00  0.00    +0.160 C 
ATOM     35  O   UNL     1      -0.858   2.692   1.441  0.00  0.00    -0.375 OA
ENDBRANCH  30  31
ENDBRANCH  28  30
ENDBRANCH   5  26
TORSDOF 6
