REMARK  Name = ZINC31139820
REMARK  10 active torsions:
REMARK  status: ('A' for Active; 'I' for Inactive)
REMARK    1  A    between atoms: C_1  and  C_2
REMARK    2  A    between atoms: C_5  and  S_7
REMARK    3  A    between atoms: S_7  and  C_8
REMARK    4  A    between atoms: C_8  and  C_9
REMARK    5  A    between atoms: C_12  and  C_15
REMARK    6  A    between atoms: N_17  and  C_18
REMARK    7  A    between atoms: C_21  and  N_24
REMARK    8  A    between atoms: C_25  and  C_27
REMARK    9  A    between atoms: C_27  and  C_29
REMARK   10  A    between atoms: C_27  and  N_30
REMARK                            x       y       z     vdW  Elec       q    Type
REMARK                         _______ _______ _______ _____ _____    ______ ____
ROOT
ATOM      1  C   UNL     1       4.259   0.153   0.144  0.00  0.00    +0.248 C 
ATOM      2  O   UNL     1       4.467   1.337   0.327  0.00  0.00    -0.270 OA
ATOM      3  N   UNL     1       2.994  -0.305   0.066  0.00  0.00    -0.282 N 
ATOM      4  H   UNL     1       2.803  -1.385  -0.012  0.00  0.00    +0.155 HD
ENDROOT
BRANCH   1   8
ATOM      5  C   UNL     1       7.519  -2.541  -0.249  0.00  0.00    -0.037 A 
ATOM      6  C   UNL     1       7.760  -1.194  -0.040  0.00  0.00    +0.005 A 
ATOM      7  C   UNL     1       6.705  -0.314   0.088  0.00  0.00    +0.013 A 
ATOM      8  C   UNL     1       5.394  -0.784   0.007  0.00  0.00    +0.037 A 
ATOM      9  C   UNL     1       5.158  -2.145  -0.197  0.00  0.00    +0.013 A 
ATOM     10  C   UNL     1       6.222  -3.014  -0.330  0.00  0.00    +0.005 A 
BRANCH   5  11
ATOM     11  C   UNL     1       8.676  -3.496  -0.388  0.00  0.00    +0.111 C 
BRANCH  11  12
ATOM     12  S   UNL     1       9.128  -4.138   1.243  0.00  0.00    -0.094 S 
BRANCH  12  17
ATOM     13  C   UNL     1      13.040  -7.557   1.962  0.00  0.00    +0.066 C 
ATOM     14  C   UNL     1      12.187  -6.694   1.069  0.00  0.00    +0.047 A 
ATOM     15  C   UNL     1      12.398  -6.660  -0.269  0.00  0.00    +0.070 A 
ATOM     16  S   UNL     1      11.130  -5.508  -0.777  0.00  0.00    -0.069 S 
ATOM     17  C   UNL     1      10.464  -5.196   0.797  0.00  0.00    +0.135 A 
ATOM     18  N   UNL     1      11.220  -5.951   1.573  0.00  0.00    -0.238 NA
ENDBRANCH  12  17
ENDBRANCH  11  12
ENDBRANCH   5  11
ENDBRANCH   1   8
BRANCH   3  19
ATOM     19  C   UNL     1       1.921   0.595   0.083  0.00  0.00    +0.034 A 
ATOM     20  C   UNL     1       2.050   1.840  -0.520  0.00  0.00    +0.025 A 
ATOM     21  C   UNL     1       0.993   2.727  -0.502  0.00  0.00    +0.025 A 
ATOM     22  C   UNL     1      -0.200   2.376   0.117  0.00  0.00    +0.034 A 
ATOM     23  C   UNL     1      -0.328   1.131   0.720  0.00  0.00    +0.025 A 
ATOM     24  C   UNL     1       0.729   0.243   0.703  0.00  0.00    +0.025 A 
BRANCH  22  25
ATOM     25  N   UNL     1      -1.270   3.278   0.140  0.00  0.00    -0.284 N 
ATOM     26  C   UNL     1      -2.537   2.824   0.061  0.00  0.00    +0.242 C 
ATOM     27  O   UNL     1      -2.747   1.644  -0.126  0.00  0.00    -0.273 OA
ATOM     28  H   UNL     1      -1.078   4.358   0.221  0.00  0.00    +0.155 HD
BRANCH  26  29
ATOM     29  C   UNL     1      -3.691   3.781   0.206  0.00  0.00    +0.191 C 
ATOM     30  C   UNL     1      -3.625   4.457   1.577  0.00  0.00    +0.042 C 
BRANCH  29  31
ATOM     31  N   UNL     1      -4.953   3.047   0.083  0.00  0.00    -0.240 N 
ATOM     32  C   UNL     1      -5.602   2.392   1.061  0.00  0.00    +0.219 A 
ATOM     33  N   UNL     1      -6.688   1.871   0.550  0.00  0.00    -0.223 NA
ATOM     34  C   UNL     1      -6.761   2.163  -0.748  0.00  0.00    +0.245 A 
ATOM     35  N   UNL     1      -5.722   2.882  -1.081  0.00  0.00    -0.158 NA
ENDBRANCH  29  31
ENDBRANCH  26  29
ENDBRANCH  22  25
ENDBRANCH   3  19
TORSDOF 8
