REMARK  Name = ZINC20357065
REMARK  11 active torsions:
REMARK  status: ('A' for Active; 'I' for Inactive)
REMARK    1  A    between atoms: C_1  and  C_2
REMARK    2  A    between atoms: C_5  and  S_9
REMARK    3  A    between atoms: C_6  and  C_8
REMARK    4  A    between atoms: S_9  and  N_12
REMARK    5  A    between atoms: N_12  and  N_13
REMARK    6  A    between atoms: C_14  and  C_15
REMARK    7  A    between atoms: C_17  and  O_24
REMARK    8  A    between atoms: C_18  and  O_23
REMARK    9  A    between atoms: C_19  and  O_21
REMARK   10  A    between atoms: O_21  and  C_22
REMARK   11  A    between atoms: O_24  and  C_25
REMARK                            x       y       z     vdW  Elec       q    Type
REMARK                         _______ _______ _______ _____ _____    ______ ____
ROOT
ATOM      1  N   UNL     1      -0.625   4.672   1.418  0.00  0.00    -0.174 NA
ATOM      2  C   UNL     1      -0.719   5.553   2.366  0.00  0.00    +0.139 C 
ENDROOT
BRANCH   2   3
ATOM      3  C   UNL     1       0.120   6.765   2.332  0.00  0.00    +0.002 A 
ATOM      4  C   UNL     1       0.935   7.022   1.226  0.00  0.00    +0.059 A 
ATOM      5  C   UNL     1       1.717   8.163   1.195  0.00  0.00    +0.166 A 
ATOM      6  C   UNL     1       1.701   9.048   2.268  0.00  0.00    +0.201 A 
ATOM      7  C   UNL     1       0.895   8.793   3.373  0.00  0.00    +0.166 A 
ATOM      8  C   UNL     1       0.107   7.656   3.408  0.00  0.00    +0.059 A 
BRANCH   7   9
ATOM      9  O   UNL     1       0.882   9.661   4.419  0.00  0.00    -0.491 OA
ATOM     10  C   UNL     1       0.032   9.336   5.521  0.00  0.00    +0.277 C 
ENDBRANCH   7   9
BRANCH   6  11
ATOM     11  O   UNL     1       2.476  10.166   2.237  0.00  0.00    -0.501 OA
ATOM     12  H   UNL     1       2.464  10.867   3.084  0.00  0.00    +0.292 HD
ENDBRANCH   6  11
BRANCH   5  13
ATOM     13  O   UNL     1       2.506   8.416   0.117  0.00  0.00    -0.491 OA
ATOM     14  C   UNL     1       2.473   7.464  -0.949  0.00  0.00    +0.277 C 
ENDBRANCH   5  13
ENDBRANCH   2   3
BRANCH   1  15
ATOM     15  N   UNL     1      -1.495   3.575   1.393  0.00  0.00    -0.137 N 
ATOM     16  H   UNL     1      -2.118   3.433   2.123  0.00  0.00    +0.197 HD
BRANCH  15  17
ATOM     17  S   UNL     1      -1.461   2.519   0.117  0.00  0.00    +0.087 S 
ATOM     18  O   UNL     1      -2.512   1.588   0.332  0.00  0.00    -0.149 OA
ATOM     19  O   UNL     1      -0.107   2.117  -0.041  0.00  0.00    -0.149 OA
BRANCH  17  24
ATOM     20  C   UNL     1      -2.925   5.637  -4.837  0.00  0.00    +0.044 C 
ATOM     21  C   UNL     1      -2.558   4.860  -3.599  0.00  0.00    -0.050 A 
ATOM     22  C   UNL     1      -1.307   4.283  -3.490  0.00  0.00    +0.005 A 
ATOM     23  C   UNL     1      -0.971   3.570  -2.354  0.00  0.00    +0.029 A 
ATOM     24  C   UNL     1      -1.886   3.435  -1.327  0.00  0.00    +0.113 A 
ATOM     25  C   UNL     1      -3.137   4.012  -1.436  0.00  0.00    -0.024 A 
ATOM     26  C   UNL     1      -3.474   4.725  -2.572  0.00  0.00    +0.008 A 
ATOM     27  C   UNL     1      -4.135   3.865  -0.316  0.00  0.00    +0.046 C 
ENDBRANCH  17  24
ENDBRANCH  15  17
ENDBRANCH   1  15
TORSDOF 7
