REMARK  Name = ZINC27352296
REMARK  11 active torsions:
REMARK  status: ('A' for Active; 'I' for Inactive)
REMARK    1  A    between atoms: C_1  and  C_2
REMARK    2  A    between atoms: C_2  and  N_3
REMARK    3  A    between atoms: C_4  and  C_23
REMARK    4  A    between atoms: C_7  and  S_8
REMARK    5  A    between atoms: S_8  and  C_9
REMARK    6  A    between atoms: C_9  and  C_10
REMARK    7  A    between atoms: N_12  and  C_13
REMARK    8  A    between atoms: C_13  and  C_14
REMARK    9  A    between atoms: C_17  and  N_20
REMARK   10  A    between atoms: N_20  and  C_21
REMARK   11  A    between atoms: N_20  and  C_22
REMARK                            x       y       z     vdW  Elec       q    Type
REMARK                         _______ _______ _______ _____ _____    ______ ____
ROOT
ATOM      1  C   UNL     1      -1.171   1.811  -3.616  0.00  0.00    +0.173 C 
ENDROOT
BRANCH   1   2
ATOM      2  C   UNL     1      -0.522   1.383  -2.326  0.00  0.00    +0.224 C 
ATOM      3  O   UNL     1       0.468   0.682  -2.349  0.00  0.00    -0.275 OA
ATOM      4  N   UNL     1      -1.040   1.778  -1.147  0.00  0.00    -0.311 N 
ATOM      5  H   UNL     1      -1.938   2.414  -1.126  0.00  0.00    +0.149 HD
BRANCH   4   6
ATOM      6  C   UNL     1      -0.409   1.362   0.108  0.00  0.00    +0.139 C 
BRANCH   6   7
ATOM      7  C   UNL     1      -1.177   1.933   1.271  0.00  0.00    -0.030 A 
ATOM      8  C   UNL     1      -0.834   3.171   1.784  0.00  0.00    +0.007 A 
ATOM      9  C   UNL     1      -1.539   3.700   2.846  0.00  0.00    +0.023 A 
ATOM     10  C   UNL     1      -2.588   2.983   3.408  0.00  0.00    +0.029 A 
ATOM     11  C   UNL     1      -2.927   1.738   2.894  0.00  0.00    +0.023 A 
ATOM     12  C   UNL     1      -2.221   1.217   1.827  0.00  0.00    +0.007 A 
BRANCH  10  13
ATOM     13  N   UNL     1      -3.301   3.513   4.486  0.00  0.00    -0.336 N 
ATOM     14  C   UNL     1      -4.332   2.710   5.148  0.00  0.00    +0.129 C 
ATOM     15  C   UNL     1      -3.018   4.872   4.954  0.00  0.00    +0.129 C 
ENDBRANCH  10  13
ENDBRANCH   6   7
ENDBRANCH   4   6
ENDBRANCH   1   2
BRANCH   1  16
ATOM     16  S   UNL     1      -0.248   1.125  -5.014  0.00  0.00    -0.077 S 
BRANCH  16  21
ATOM     17  N   UNL     1      -0.962   1.565  -7.681  0.00  0.00    -0.302 N 
ATOM     18  C   UNL     1      -1.955   2.251  -8.343  0.00  0.00    +0.165 A 
ATOM     19  N   UNL     1      -2.713   2.809  -7.428  0.00  0.00    -0.128 NA
ATOM     20  N   UNL     1      -2.272   2.519  -6.257  0.00  0.00    -0.122 NA
ATOM     21  C   UNL     1      -1.199   1.765  -6.353  0.00  0.00    +0.192 A 
BRANCH  18  22
ATOM     22  C   UNL     1      -2.134   2.342  -9.807  0.00  0.00    +0.022 A 
ATOM     23  C   UNL     1      -2.920   3.353 -10.375  0.00  0.00    +0.031 A 
ATOM     24  C   UNL     1      -3.055   3.404 -11.746  0.00  0.00    +0.111 A 
ATOM     25  N   UNL     1      -2.464   2.511 -12.519  0.00  0.00    -0.263 NA
ATOM     26  C   UNL     1      -1.719   1.540 -12.025  0.00  0.00    +0.111 A 
ATOM     27  C   UNL     1      -1.526   1.418 -10.665  0.00  0.00    +0.031 A 
ENDBRANCH  18  22
BRANCH  17  29
ATOM     28  C   UNL     1      -0.288  -0.687  -8.355  0.00  0.00    +0.027 C 
ATOM     29  C   UNL     1       0.124   0.784  -8.279  0.00  0.00    +0.122 C 
ENDBRANCH  17  29
ENDBRANCH  16  21
ENDBRANCH   1  16
TORSDOF 8
