REMARK  Name = ZINC66052150
REMARK  6 active torsions:
REMARK  status: ('A' for Active; 'I' for Inactive)
REMARK    1  A    between atoms: C_1  and  C_2
REMARK    2  A    between atoms: C_2  and  N_3
REMARK    3  A    between atoms: C_4  and  C_19
REMARK    4  A    between atoms: C_7  and  S_8
REMARK    5  A    between atoms: S_8  and  C_9
REMARK    6  A    between atoms: C_9  and  C_10
REMARK                            x       y       z     vdW  Elec       q    Type
REMARK                         _______ _______ _______ _____ _____    ______ ____
ROOT
ATOM      1  N   UNL     1      -1.441  -0.359   0.031  0.00  0.00    -0.302 N 
ATOM      2  C   UNL     1      -2.111  -0.889   1.110  0.00  0.00    +0.166 A 
ATOM      3  N   UNL     1      -3.218  -1.424   0.651  0.00  0.00    -0.128 NA
ATOM      4  N   UNL     1      -3.287  -1.267  -0.622  0.00  0.00    -0.122 NA
ATOM      5  C   UNL     1      -2.229  -0.617  -1.054  0.00  0.00    +0.192 A 
ENDROOT
BRANCH   2   6
ATOM      6  C   UNL     1      -1.666  -0.862   2.520  0.00  0.00    +0.038 A 
ATOM      7  C   UNL     1      -0.364  -1.241   2.851  0.00  0.00    +0.014 A 
ATOM      8  C   UNL     1       0.045  -1.214   4.168  0.00  0.00    +0.021 A 
ATOM      9  C   UNL     1      -0.833  -0.812   5.161  0.00  0.00    +0.042 A 
ATOM     10  C   UNL     1      -2.126  -0.435   4.840  0.00  0.00    +0.040 A 
ATOM     11  C   UNL     1      -2.545  -0.453   3.525  0.00  0.00    +0.053 A 
ATOM     12 CL   UNL     1      -4.164   0.027   3.122  0.00  0.00    -0.083 Cl
ATOM     13 CL   UNL     1      -0.310  -0.782   6.816  0.00  0.00    -0.083 Cl
ENDBRANCH   2   6
BRANCH   1  15
ATOM     14  C   UNL     1      -0.389   1.833   0.292  0.00  0.00    +0.027 C 
ATOM     15  C   UNL     1      -0.155   0.342   0.045  0.00  0.00    +0.122 C 
ENDBRANCH   1  15
BRANCH   5  16
ATOM     16  S   UNL     1      -1.890  -0.165  -2.723  0.00  0.00    -0.077 S 
BRANCH  16  17
ATOM     17  C   UNL     1      -3.317  -0.797  -3.648  0.00  0.00    +0.173 C 
BRANCH  17  18
ATOM     18  C   UNL     1      -3.151  -0.474  -5.111  0.00  0.00    +0.229 C 
ATOM     19  O   UNL     1      -2.167   0.124  -5.492  0.00  0.00    -0.275 OA
ATOM     20  N   UNL     1      -4.096  -0.849  -5.995  0.00  0.00    -0.268 N 
ATOM     21  C   UNL     1      -3.941  -0.548  -7.355  0.00  0.00    +0.147 A 
ATOM     22  C   UNL     1      -2.856   0.130  -7.932  0.00  0.00    +0.064 A 
ATOM     23  C   UNL     1      -3.082   0.221  -9.262  0.00  0.00    +0.107 A 
ATOM     24  N   UNL     1      -4.264  -0.376  -9.522  0.00  0.00    -0.283 N 
ATOM     25  H   UNL     1      -4.680  -0.461 -10.395  0.00  0.00    +0.188 HD
ATOM     26  N   UNL     1      -4.784  -0.856  -8.313  0.00  0.00    -0.159 NA
ATOM     27  H   UNL     1      -4.883  -1.327  -5.690  0.00  0.00    +0.156 HD
ENDBRANCH  17  18
ENDBRANCH  16  17
ENDBRANCH   5  16
TORSDOF 5
