REMARK  Name = ZINC02804707
REMARK  5 active torsions:
REMARK  status: ('A' for Active; 'I' for Inactive)
REMARK    1  A    between atoms: C_3  and  S_10
REMARK    2  A    between atoms: C_6  and  N_7
REMARK    3  A    between atoms: S_10  and  N_13
REMARK    4  A    between atoms: N_17  and  C_19
REMARK    5  A    between atoms: C_19  and  C_20
REMARK                            x       y       z     vdW  Elec       q    Type
REMARK                         _______ _______ _______ _____ _____    ______ ____
ROOT
ATOM      1  N   UNL     1       2.449   1.505  -0.013  0.00  0.00    -0.198 N 
ATOM      2  C   UNL     1       1.111   1.918   0.002  0.00  0.00    +0.160 A 
ATOM      3  C   UNL     1      -0.013   1.076   0.008  0.00  0.00    +0.066 A 
ATOM      4  C   UNL     1      -1.117   1.857   0.017  0.00  0.00    +0.110 A 
ATOM      5  N   UNL     1      -0.712   3.145   0.026  0.00  0.00    -0.265 N 
ATOM      6  N   UNL     1       0.688   3.160   0.013  0.00  0.00    -0.155 NA
ATOM      7  H   UNL     1       2.664   0.559  -0.020  0.00  0.00    +0.175 HD
ENDROOT
BRANCH   1   8
ATOM      8  S   UNL     1       3.663   2.630  -0.019  0.00  0.00    +0.074 S 
ATOM      9  O   UNL     1       4.887   1.908  -0.007  0.00  0.00    -0.150 OA
ATOM     10  O   UNL     1       3.342   3.569  -1.036  0.00  0.00    -0.150 OA
BRANCH   8  13
ATOM     11  C   UNL     1       4.216   3.720   3.809  0.00  0.00    +0.034 A 
ATOM     12  C   UNL     1       4.285   3.040   2.607  0.00  0.00    +0.031 A 
ATOM     13  C   UNL     1       3.576   3.498   1.512  0.00  0.00    +0.109 A 
ATOM     14  C   UNL     1       2.804   4.640   1.617  0.00  0.00    +0.031 A 
ATOM     15  C   UNL     1       2.733   5.318   2.819  0.00  0.00    +0.034 A 
ATOM     16  C   UNL     1       3.441   4.860   3.914  0.00  0.00    +0.126 A 
BRANCH  16  17
ATOM     17  N   UNL     1       3.368   5.589   5.201  0.00  0.00    +0.056 N 
ATOM     18  O   UNL     1       3.991   5.184   6.166  0.00  0.00    -0.126 OA
ATOM     19  O   UNL     1       2.684   6.593   5.294  0.00  0.00    -0.126 OA
ENDBRANCH  16  17
ENDBRANCH   8  13
ENDBRANCH   1   8
BRANCH   5  20
ATOM     20  C   UNL     1      -1.586   4.321   0.040  0.00  0.00    +0.180 C 
BRANCH  20  21
ATOM     21  C   UNL     1      -1.220   5.204   1.206  0.00  0.00    -0.008 A 
ATOM     22  C   UNL     1      -1.909   5.093   2.399  0.00  0.00    +0.009 A 
ATOM     23  C   UNL     1      -1.572   5.898   3.470  0.00  0.00    +0.039 A 
ATOM     24  C   UNL     1      -0.549   6.824   3.346  0.00  0.00    +0.125 A 
ATOM     25  C   UNL     1       0.137   6.938   2.149  0.00  0.00    +0.058 A 
ATOM     26  C   UNL     1      -0.199   6.128   1.079  0.00  0.00    +0.049 A 
ATOM     27 CL   UNL     1       0.662   6.271  -0.421  0.00  0.00    -0.083 Cl
ATOM     28  F   UNL     1      -0.223   7.615   4.391  0.00  0.00    -0.205 F 
ENDBRANCH  20  21
ENDBRANCH   5  20
TORSDOF 5
