REMARK  Name = ZINC21340469
REMARK  11 active torsions:
REMARK  status: ('A' for Active; 'I' for Inactive)
REMARK    1  A    between atoms: C_1  and  C_2
REMARK    2  A    between atoms: C_3  and  C_33
REMARK    3  A    between atoms: C_9  and  C_12
REMARK    4  A    between atoms: C_12  and  O_14
REMARK    5  A    between atoms: O_14  and  C_15
REMARK    6  A    between atoms: C_15  and  C_16
REMARK    7  A    between atoms: C_18  and  C_21
REMARK    8  A    between atoms: C_24  and  O_29
REMARK    9  A    between atoms: C_25  and  O_27
REMARK   10  A    between atoms: O_27  and  C_28
REMARK   11  A    between atoms: O_29  and  C_30
REMARK                            x       y       z     vdW  Elec       q    Type
REMARK                         _______ _______ _______ _____ _____    ______ ____
ROOT
ATOM      1  C   UNL     1       0.124  -3.585   7.893  0.00  0.00    +0.265 A 
ATOM      2  N   UNL     1       1.193  -4.221   8.280  0.00  0.00    -0.188 NA
ATOM      3  C   UNL     1       0.850  -5.335   8.950  0.00  0.00    +0.202 A 
ATOM      4  N   UNL     1      -0.458  -5.413   8.991  0.00  0.00    -0.056 NA
ATOM      5  O   UNL     1      -0.950  -4.270   8.308  0.00  0.00    -0.334 OA
ENDROOT
BRANCH   3   6
ATOM      6  C   UNL     1       1.794  -6.314   9.543  0.00  0.00    +0.026 A 
ATOM      7  C   UNL     1       3.168  -6.112   9.434  0.00  0.00    +0.015 A 
ATOM      8  C   UNL     1       4.046  -7.023   9.985  0.00  0.00    +0.050 A 
ATOM      9  C   UNL     1       3.563  -8.141  10.650  0.00  0.00    +0.168 A 
ATOM     10  C   UNL     1       2.190  -8.347  10.762  0.00  0.00    +0.162 A 
ATOM     11  C   UNL     1       1.307  -7.434  10.216  0.00  0.00    +0.061 A 
BRANCH  10  12
ATOM     12  O   UNL     1       1.718  -9.444  11.413  0.00  0.00    -0.491 OA
ATOM     13  C   UNL     1       0.299  -9.592  11.490  0.00  0.00    +0.277 C 
ENDBRANCH  10  12
BRANCH   9  14
ATOM     14  O   UNL     1       4.430  -9.036  11.191  0.00  0.00    -0.431 OA
BRANCH  14  15
ATOM     15  C   UNL     1       5.824  -8.762  11.039  0.00  0.00    +0.541 C 
ATOM     16  F   UNL     1       6.142  -8.707   9.677  0.00  0.00    -0.166 F 
ATOM     17  F   UNL     1       6.127  -7.535  11.638  0.00  0.00    -0.166 F 
ENDBRANCH  14  15
ENDBRANCH   9  14
ENDBRANCH   3   6
BRANCH   1  18
ATOM     18  C   UNL     1       0.100  -2.295   7.116  0.00  0.00    +0.331 C 
BRANCH  18  19
ATOM     19  O   UNL     1       0.090  -2.582   5.716  0.00  0.00    -0.451 OA
BRANCH  19  20
ATOM     20  C   UNL     1       0.068  -1.529   4.876  0.00  0.00    +0.340 C 
ATOM     21  O   UNL     1       0.058  -0.398   5.319  0.00  0.00    -0.245 OA
BRANCH  20  30
ATOM     22  C   UNL     1      -0.018   1.503   0.010  0.00  0.00    +0.046 C 
ATOM     23  C   UNL     1       0.002  -0.004   0.002  0.00  0.00    -0.022 A 
ATOM     24  C   UNL     1       0.009  -0.797  -1.080  0.00  0.00    +0.017 A 
ATOM     25  N   UNL     1       0.028  -2.111  -0.697  0.00  0.00    -0.358 N 
ATOM     26  H   UNL     1       0.036  -2.868  -1.304  0.00  0.00    +0.166 HD
ATOM     27  C   UNL     1       0.035  -2.200   0.674  0.00  0.00    +0.047 A 
ATOM     28  C   UNL     1       0.025  -0.883   1.175  0.00  0.00    +0.004 A 
ATOM     29  C   UNL     1       0.035  -0.661   2.549  0.00  0.00    +0.025 A 
ATOM     30  C   UNL     1       0.057  -1.749   3.417  0.00  0.00    +0.060 A 
ATOM     31  C   UNL     1       0.070  -3.055   2.906  0.00  0.00    +0.017 A 
ATOM     32  C   UNL     1       0.052  -3.275   1.560  0.00  0.00    +0.027 A 
ATOM     33  C   UNL     1      -0.004  -0.313  -2.507  0.00  0.00    +0.063 C 
ENDBRANCH  20  30
ENDBRANCH  19  20
ENDBRANCH  18  19
ENDBRANCH   1  18
TORSDOF 8
