REMARK  Name = ZINC39989318
REMARK  4 active torsions:
REMARK  status: ('A' for Active; 'I' for Inactive)
REMARK    1  A    between atoms: C_1  and  S_2
REMARK    2  A    between atoms: S_2  and  C_3
REMARK    3  A    between atoms: C_9  and  C_11
REMARK    4  A    between atoms: C_11  and  C_12
REMARK                            x       y       z     vdW  Elec       q    Type
REMARK                         _______ _______ _______ _____ _____    ______ ____
ROOT
ATOM      1  C   UNL     1      -1.702  -0.454   0.016  0.00  0.00    +0.160 A 
ATOM      2  N   UNL     1      -2.784   0.310   0.024  0.00  0.00    -0.133 NA
ATOM      3  N   UNL     1      -3.946  -0.180   0.034  0.00  0.00    -0.125 NA
ATOM      4  C   UNL     1      -4.156  -1.486   0.036  0.00  0.00    +0.189 A 
ATOM      5  S   UNL     1      -2.465  -2.073   0.015  0.00  0.00    -0.024 S 
ATOM      6  N   UNL     1      -5.352  -2.200   0.046  0.00  0.00    -0.263 N 
ATOM      7  C   UNL     1      -6.529  -1.544   0.055  0.00  0.00    +0.220 C 
ATOM      8  O   UNL     1      -6.547  -0.331   0.055  0.00  0.00    -0.275 OA
ATOM      9  H   UNL     1      -5.337  -3.170   0.046  0.00  0.00    +0.157 HD
ENDROOT
BRANCH   1  11
ATOM     10  C   UNL     1      -0.022   1.810   0.012  0.00  0.00    +0.092 C 
ATOM     11  S   UNL     1       0.002  -0.004   0.002  0.00  0.00    -0.100 S 
ENDBRANCH   1  11
BRANCH   7  12
ATOM     12  C   UNL     1      -7.822  -2.317   0.066  0.00  0.00    +0.120 C 
BRANCH  12  13
ATOM     13  C   UNL     1      -9.000  -1.340   0.076  0.00  0.00    +0.150 C 
ATOM     14  C   UNL     1     -10.331  -2.078   0.110  0.00  0.00    +0.234 C 
ATOM     15  O   UNL     1     -10.651  -2.796   1.034  0.00  0.00    -0.274 OA
ATOM     16  N   UNL     1     -11.115  -1.882  -0.937  0.00  0.00    -0.246 N 
ATOM     17  C   UNL     1     -10.784  -1.090  -1.974  0.00  0.00    +0.279 C 
ATOM     18  O   UNL     1     -11.436  -0.851  -2.972  0.00  0.00    -0.263 OA
ATOM     19  S   UNL     1      -9.163  -0.472  -1.540  0.00  0.00    -0.054 S 
ATOM     20  H   UNL     1     -11.974  -2.332  -0.958  0.00  0.00    +0.158 HD
ENDBRANCH  12  13
ENDBRANCH   7  12
TORSDOF 3
