REMARK  Name = ZINC38918704
REMARK  6 active torsions:
REMARK  status: ('A' for Active; 'I' for Inactive)
REMARK    1  A    between atoms: C_3  and  C_9
REMARK    2  A    between atoms: C_4  and  O_8
REMARK    3  A    between atoms: C_6  and  O_7
REMARK    4  A    between atoms: N_10  and  N_11
REMARK    5  A    between atoms: C_12  and  C_14
REMARK    6  A    between atoms: C_17  and  C_19
REMARK                            x       y       z     vdW  Elec       q    Type
REMARK                         _______ _______ _______ _____ _____    ______ ____
ROOT
ATOM      1  N   UNL     1       5.988   2.255  -0.044  0.00  0.00    -0.202 N 
ATOM      2  C   UNL     1       7.164   1.598  -0.059  0.00  0.00    +0.280 C 
ATOM      3  O   UNL     1       7.182   0.382  -0.065  0.00  0.00    -0.267 OA
ATOM      4  H   UNL     1       5.974   3.225  -0.039  0.00  0.00    +0.178 HD
ENDROOT
BRANCH   2   5
ATOM      5  C   UNL     1       8.427   2.351  -0.067  0.00  0.00    +0.132 C 
ATOM      6  N   UNL     1       8.582   3.647  -0.056  0.00  0.00    -0.149 NA
ATOM      7  N   UNL     1       9.797   4.031  -0.067  0.00  0.00    -0.157 NA
ATOM      8  C   UNL     1      10.668   3.068  -0.087  0.00  0.00    +0.053 C 
ATOM      9  C   UNL     1       9.841   1.793  -0.084  0.00  0.00    +0.116 C 
BRANCH   8  10
ATOM     10  C   UNL     1      12.170   3.188  -0.104  0.00  0.00    +0.012 C 
ATOM     11  C   UNL     1      12.721   2.523  -1.366  0.00  0.00    +0.016 C 
ATOM     12  C   UNL     1      14.246   2.645  -1.383  0.00  0.00    -0.010 C 
ATOM     13  C   UNL     1      14.639   4.123  -1.373  0.00  0.00    +0.007 C 
ATOM     14  C   UNL     1      14.088   4.789  -0.110  0.00  0.00    -0.010 C 
ATOM     15  C   UNL     1      12.563   4.667  -0.093  0.00  0.00    +0.016 C 
ATOM     16  C   UNL     1      14.669   4.098   1.125  0.00  0.00    +0.007 C 
ATOM     17  C   UNL     1      14.276   2.620   1.115  0.00  0.00    -0.010 C 
ATOM     18  C   UNL     1      14.827   1.954  -0.148  0.00  0.00    +0.007 C 
ATOM     19  C   UNL     1      12.751   2.498   1.132  0.00  0.00    +0.016 C 
ENDBRANCH   8  10
ENDBRANCH   2   5
BRANCH   1  21
ATOM     20  C   UNL     1       3.650   2.171  -0.022  0.00  0.00    +0.142 C 
ATOM     21  N   UNL     1       4.785   1.538  -0.036  0.00  0.00    -0.187 NA
BRANCH  20  24
ATOM     22  C   UNL     1      -0.017   1.385   0.010  0.00  0.00    +0.046 A 
ATOM     23  C   UNL     1       1.164   2.095   0.002  0.00  0.00    +0.016 A 
ATOM     24  C   UNL     1       2.386   1.417  -0.013  0.00  0.00    +0.036 A 
ATOM     25  C   UNL     1       2.402   0.014  -0.021  0.00  0.00    +0.129 A 
ATOM     26  C   UNL     1       1.210  -0.687  -0.013  0.00  0.00    +0.091 A 
ATOM     27  C   UNL     1       0.002  -0.004   0.002  0.00  0.00    +0.120 A 
BRANCH  27  28
ATOM     28  O   UNL     1      -1.167  -0.696   0.010  0.00  0.00    -0.507 OA
ATOM     29  H   UNL     1      -1.514  -0.892  -0.871  0.00  0.00    +0.292 HD
ENDBRANCH  27  28
BRANCH  25  30
ATOM     30  O   UNL     1       3.585  -0.653  -0.036  0.00  0.00    -0.506 OA
ATOM     31  H   UNL     1       3.936  -0.851   0.843  0.00  0.00    +0.292 HD
ENDBRANCH  25  30
ENDBRANCH  20  24
ENDBRANCH   1  21
TORSDOF 6
