REMARK  Name = ZINC04979827
REMARK  9 active torsions:
REMARK  status: ('A' for Active; 'I' for Inactive)
REMARK    1  A    between atoms: C_1  and  C_2
REMARK    2  A    between atoms: C_7  and  N_12
REMARK    3  A    between atoms: C_9  and  C_11
REMARK    4  A    between atoms: C_13  and  C_15
REMARK    5  A    between atoms: C_15  and  O_16
REMARK    6  A    between atoms: O_16  and  C_17
REMARK    7  A    between atoms: C_17  and  C_19
REMARK    8  A    between atoms: C_24  and  N_25
REMARK    9  A    between atoms: C_26  and  C_28
REMARK                            x       y       z     vdW  Elec       q    Type
REMARK                         _______ _______ _______ _____ _____    ______ ____
ROOT
ATOM      1  C   UNL     1       4.000  -6.139   4.361  0.00  0.00    +0.341 C 
ATOM      2  O   UNL     1       4.146  -5.562   5.420  0.00  0.00    -0.245 OA
ENDROOT
BRANCH   1   3
ATOM      3  C   UNL     1       4.573  -7.483   4.169  0.00  0.00    +0.080 A 
ATOM      4  C   UNL     1       4.325  -8.191   2.990  0.00  0.00    +0.017 A 
ATOM      5  C   UNL     1       4.863  -9.448   2.817  0.00  0.00    +0.001 A 
ATOM      6  C   UNL     1       5.650 -10.015   3.807  0.00  0.00    +0.002 A 
ATOM      7  C   UNL     1       5.904  -9.328   4.977  0.00  0.00    +0.024 A 
ATOM      8  C   UNL     1       5.375  -8.058   5.167  0.00  0.00    +0.048 A 
BRANCH   8   9
ATOM      9  N   UNL     1       5.635  -7.362   6.343  0.00  0.00    -0.278 N 
ATOM     10  C   UNL     1       6.830  -7.489   6.952  0.00  0.00    +0.284 C 
ATOM     11  O   UNL     1       7.716  -8.136   6.425  0.00  0.00    -0.266 OA
ATOM     12  H   UNL     1       4.955  -6.784   6.724  0.00  0.00    +0.155 HD
BRANCH  10  13
ATOM     13  C   UNL     1       7.064  -6.848   8.250  0.00  0.00    +0.189 A 
ATOM     14  C   UNL     1       8.224  -6.893   8.969  0.00  0.00    +0.054 A 
ATOM     15  C   UNL     1       8.002  -6.147  10.138  0.00  0.00    +0.042 A 
ATOM     16  C   UNL     1       6.733  -5.687  10.081  0.00  0.00    +0.196 A 
ATOM     17  O   UNL     1       6.173  -6.107   8.939  0.00  0.00    -0.458 OA
ENDBRANCH  10  13
ENDBRANCH   8   9
ENDBRANCH   1   3
BRANCH   1  18
ATOM     18  O   UNL     1       3.314  -5.550   3.362  0.00  0.00    -0.452 OA
BRANCH  18  19
ATOM     19  C   UNL     1       2.787  -4.247   3.617  0.00  0.00    +0.328 C 
BRANCH  19  21
ATOM     20  N   UNL     1       1.473  -2.537   2.405  0.00  0.00    -0.309 N 
ATOM     21  C   UNL     1       2.056  -3.752   2.395  0.00  0.00    +0.251 C 
ATOM     22  O   UNL     1       1.994  -4.447   1.403  0.00  0.00    -0.272 OA
ATOM     23  H   UNL     1       1.523  -1.981   3.198  0.00  0.00    +0.149 HD
BRANCH  20  29
ATOM     24  C   UNL     1      -0.015   1.506  -0.021  0.00  0.00    +0.008 C 
ATOM     25  C   UNL     1       0.003  -0.024  -0.022  0.00  0.00    -0.009 C 
ATOM     26  C   UNL     1      -1.433  -0.551  -0.007  0.00  0.00    +0.003 C 
ATOM     27  C   UNL     1      -1.414  -2.081  -0.009  0.00  0.00    +0.002 C 
ATOM     28  C   UNL     1      -0.673  -2.584   1.232  0.00  0.00    +0.022 C 
ATOM     29  C   UNL     1       0.763  -2.056   1.217  0.00  0.00    +0.076 C 
ATOM     30  C   UNL     1       0.745  -0.526   1.218  0.00  0.00    +0.009 C 
ATOM     31  C   UNL     1       0.031  -0.026   2.476  0.00  0.00    +0.009 C 
ENDBRANCH  20  29
ENDBRANCH  19  21
ENDBRANCH  18  19
ENDBRANCH   1  18
TORSDOF 7
