REMARK  Name = ZINC12521996
REMARK  7 active torsions:
REMARK  status: ('A' for Active; 'I' for Inactive)
REMARK    1  A    between atoms: C_1  and  C_2
REMARK    2  A    between atoms: C_2  and  N_3
REMARK    3  A    between atoms: N_6  and  C_9
REMARK    4  A    between atoms: C_12  and  S_26
REMARK    5  A    between atoms: C_14  and  N_15
REMARK    6  A    between atoms: C_16  and  C_18
REMARK    7  A    between atoms: S_26  and  N_29
REMARK                            x       y       z     vdW  Elec       q    Type
REMARK                         _______ _______ _______ _____ _____    ______ ____
ROOT
ATOM      1  C   UNL     1       3.666  -2.753  -2.988  0.00  0.00    +0.051 A 
ATOM      2  C   UNL     1       4.362  -3.384  -1.968  0.00  0.00    +0.027 A 
ATOM      3  C   UNL     1       5.427  -4.213  -2.268  0.00  0.00    +0.030 A 
ATOM      4  C   UNL     1       5.801  -4.417  -3.583  0.00  0.00    +0.107 A 
ATOM      5  C   UNL     1       5.113  -3.792  -4.606  0.00  0.00    +0.053 A 
ATOM      6  C   UNL     1       4.040  -2.963  -4.315  0.00  0.00    +0.057 A 
ENDROOT
BRANCH   1  10
ATOM      7  N   UNL     1       0.695  -0.501  -1.193  0.00  0.00    +0.382 N 
ATOM      8  C   UNL     1       2.104  -0.088  -1.145  0.00  0.00    -0.060 C 
ATOM      9  C   UNL     1       2.792  -0.474  -2.459  0.00  0.00    +0.086 C 
ATOM     10  N   UNL     1       2.589  -1.913  -2.687  0.00  0.00    -0.332 N 
ATOM     11  C   UNL     1       1.220  -2.443  -2.591  0.00  0.00    +0.086 C 
ATOM     12  C   UNL     1       0.606  -1.965  -1.271  0.00  0.00    -0.060 C 
ATOM     13  H   UNL     1       0.255  -0.095  -2.004  0.00  0.00    -0.082 HD
BRANCH   7  15
ATOM     14  C   UNL     1      -0.007   1.495   0.040  0.00  0.00    -0.017 C 
ATOM     15  C   UNL     1       0.009  -0.035   0.019  0.00  0.00    -0.082 C 
ENDBRANCH   7  15
ENDBRANCH   1  10
BRANCH   6  16
ATOM     16  N   UNL     1       3.337  -2.333  -5.351  0.00  0.00    -0.280 N 
ATOM     17  C   UNL     1       3.990  -1.925  -6.457  0.00  0.00    +0.250 C 
ATOM     18  O   UNL     1       5.172  -2.174  -6.592  0.00  0.00    -0.270 OA
ATOM     19  H   UNL     1       2.381  -2.192  -5.272  0.00  0.00    +0.155 HD
BRANCH  17  20
ATOM     20  C   UNL     1       3.269  -1.174  -7.505  0.00  0.00    +0.055 A 
ATOM     21  C   UNL     1       1.912  -0.881  -7.350  0.00  0.00    +0.016 A 
ATOM     22  C   UNL     1       1.245  -0.179  -8.331  0.00  0.00    +0.021 A 
ATOM     23  C   UNL     1       1.917   0.235  -9.470  0.00  0.00    +0.042 A 
ATOM     24  C   UNL     1       3.261  -0.052  -9.631  0.00  0.00    +0.040 A 
ATOM     25  C   UNL     1       3.943  -0.749  -8.653  0.00  0.00    +0.054 A 
ATOM     26 CL   UNL     1       5.631  -1.102  -8.852  0.00  0.00    -0.083 Cl
ATOM     27 CL   UNL     1       1.068   1.117 -10.701  0.00  0.00    -0.083 Cl
ENDBRANCH  17  20
ENDBRANCH   6  16
BRANCH   4  28
ATOM     28  S   UNL     1       7.159  -5.476  -3.957  0.00  0.00    +0.061 S 
ATOM     29  O   UNL     1       7.652  -5.072  -5.226  0.00  0.00    -0.153 OA
ATOM     30  O   UNL     1       7.978  -5.509  -2.796  0.00  0.00    -0.153 OA
BRANCH  28  31
ATOM     31  N   UNL     1       6.549  -7.003  -4.150  0.00  0.00    -0.172 NA
ATOM     32  C   UNL     1       6.430  -7.922  -3.006  0.00  0.00    +0.137 C 
ATOM     33  C   UNL     1       5.005  -8.485  -2.985  0.00  0.00    +0.177 C 
ATOM     34  O   UNL     1       4.693  -9.028  -4.270  0.00  0.00    -0.377 OA
ATOM     35  C   UNL     1       4.700  -8.067  -5.328  0.00  0.00    +0.177 C 
ATOM     36  C   UNL     1       6.105  -7.481  -5.469  0.00  0.00    +0.137 C 
ENDBRANCH  28  31
ENDBRANCH   4  28
TORSDOF 6
