REMARK  Name = ZINC13315028
REMARK  10 active torsions:
REMARK  status: ('A' for Active; 'I' for Inactive)
REMARK    1  A    between atoms: C_1  and  C_2
REMARK    2  A    between atoms: C_2  and  C_3
REMARK    3  A    between atoms: C_3  and  C_4
REMARK    4  A    between atoms: C_7  and  C_10
REMARK    5  A    between atoms: C_10  and  C_12
REMARK    6  A    between atoms: C_10  and  N_17
REMARK    7  A    between atoms: N_17  and  S_18
REMARK    8  A    between atoms: S_18  and  C_21
REMARK    9  A    between atoms: C_24  and  C_26
REMARK   10  A    between atoms: C_26  and  C_27
REMARK                            x       y       z     vdW  Elec       q    Type
REMARK                         _______ _______ _______ _____ _____    ______ ____
ROOT
ATOM      1  C   UNL     1      -2.514   0.980   0.019  0.00  0.00    +0.143 C 
ENDROOT
BRANCH   1   5
ATOM      2  C   UNL     1       1.156   3.165   0.008  0.00  0.00    -0.047 A 
ATOM      3  C   UNL     1       1.175   1.783   0.000  0.00  0.00    +0.004 A 
ATOM      4  C   UNL     1      -0.013   1.076   0.008  0.00  0.00    +0.006 A 
ATOM      5  C   UNL     1      -1.219   1.751   0.017  0.00  0.00    -0.024 A 
ATOM      6  C   UNL     1      -1.238   3.133   0.030  0.00  0.00    +0.006 A 
ATOM      7  C   UNL     1      -0.050   3.840   0.022  0.00  0.00    +0.004 A 
BRANCH   2   8
ATOM      8  C   UNL     1       2.451   3.937  -0.001  0.00  0.00    +0.035 C 
BRANCH   8  10
ATOM      9  C   UNL     1       4.189   4.988  -1.455  0.00  0.00    +0.004 C 
ATOM     10  C   UNL     1       2.875   4.205  -1.446  0.00  0.00    +0.001 C 
ENDBRANCH   8  10
ENDBRANCH   2   8
ENDBRANCH   1   5
BRANCH   1  11
ATOM     11  C   UNL     1      -3.078   0.942  -1.377  0.00  0.00    +0.013 A 
ATOM     12  C   UNL     1      -3.019  -0.053  -2.296  0.00  0.00    +0.013 A 
ATOM     13  C   UNL     1      -3.616   0.135  -3.528  0.00  0.00    +0.008 A 
ATOM     14  C   UNL     1      -4.243   1.310  -3.782  0.00  0.00    +0.045 A 
ATOM     15  S   UNL     1      -4.006   2.194  -2.249  0.00  0.00    -0.100 S 
ENDBRANCH   1  11
BRANCH   1  16
ATOM     16  N   UNL     1      -3.470   1.634   0.915  0.00  0.00    -0.177 NA
ATOM     17  H   UNL     1      -3.479   2.601   0.993  0.00  0.00    +0.149 HD
BRANCH  16  18
ATOM     18  S   UNL     1      -4.537   0.723   1.796  0.00  0.00    +0.066 S 
ATOM     19  O   UNL     1      -5.301   1.633   2.575  0.00  0.00    -0.153 OA
ATOM     20  O   UNL     1      -5.136  -0.192   0.888  0.00  0.00    -0.153 OA
BRANCH  18  21
ATOM     21  C   UNL     1      -3.590  -0.239   2.928  0.00  0.00    +0.143 A 
ATOM     22  C   UNL     1      -3.201   0.067   4.190  0.00  0.00    +0.036 A 
ATOM     23  C   UNL     1      -2.453  -0.853   4.902  0.00  0.00    +0.014 A 
ATOM     24  C   UNL     1      -2.132  -2.033   4.318  0.00  0.00    +0.002 A 
ATOM     25  S   UNL     1      -2.900  -1.871   2.714  0.00  0.00    -0.073 S 
BRANCH  24  26
ATOM     26  C   UNL     1      -1.337  -3.184   4.878  0.00  0.00    +0.167 C 
BRANCH  26  27
ATOM     27  C   UNL     1      -2.267  -4.145   5.573  0.00  0.00    +0.361 C 
ATOM     28  O   UNL     1      -3.453  -3.918   5.609  0.00  0.00    -0.246 OA
ATOM     29  O   UNL     1      -1.777  -5.253   6.151  0.00  0.00    -0.246 OA
ENDBRANCH  26  27
ENDBRANCH  24  26
ENDBRANCH  18  21
ENDBRANCH  16  18
ENDBRANCH   1  16
TORSDOF 9
