REMARK  Name = ZINC25947680
REMARK  10 active torsions:
REMARK  status: ('A' for Active; 'I' for Inactive)
REMARK    1  A    between atoms: C_1  and  N_2
REMARK    2  A    between atoms: C_3  and  C_5
REMARK    3  A    between atoms: C_8  and  C_11
REMARK    4  A    between atoms: C_11  and  N_12
REMARK    5  A    between atoms: N_12  and  C_13
REMARK    6  A    between atoms: N_12  and  C_19
REMARK    7  A    between atoms: C_13  and  C_14
REMARK    8  A    between atoms: C_19  and  C_20
REMARK    9  A    between atoms: C_20  and  C_22
REMARK   10  A    between atoms: C_24  and  C_28
REMARK                            x       y       z     vdW  Elec       q    Type
REMARK                         _______ _______ _______ _____ _____    ______ ____
ROOT
ATOM      1  N   UNL     1      -0.716   1.579  -1.191  0.00  0.00    +0.392 N 
ATOM      2  H   UNL     1      -0.921   2.652  -1.055  0.00  0.00    -0.080 HD
ENDROOT
BRANCH   1   3
ATOM      3  C   UNL     1       0.120   1.428  -2.389  0.00  0.00    -0.042 C 
BRANCH   3   7
ATOM      4  C   UNL     1      -1.708   3.470  -5.671  0.00  0.00    +0.037 A 
ATOM      5  C   UNL     1      -0.809   4.141  -4.841  0.00  0.00    +0.013 A 
ATOM      6  C   UNL     1      -0.223   3.477  -3.784  0.00  0.00    +0.002 A 
ATOM      7  C   UNL     1      -0.524   2.148  -3.546  0.00  0.00    -0.064 A 
ATOM      8  C   UNL     1      -1.411   1.475  -4.368  0.00  0.00    +0.002 A 
ATOM      9  C   UNL     1      -2.008   2.129  -5.425  0.00  0.00    +0.013 A 
BRANCH   4  12
ATOM     10  C   UNL     1      -3.834   4.224  -8.730  0.00  0.00    +0.128 C 
ATOM     11  N   UNL     1      -3.208   3.525  -7.606  0.00  0.00    -0.314 N 
ATOM     12  C   UNL     1      -2.340   4.176  -6.806  0.00  0.00    +0.244 C 
ATOM     13  O   UNL     1      -2.077   5.344  -7.018  0.00  0.00    -0.270 OA
ATOM     14  H   UNL     1      -3.446   2.468  -7.414  0.00  0.00    +0.149 HD
ENDBRANCH   4  12
ENDBRANCH   3   7
ENDBRANCH   1   3
BRANCH   1  15
ATOM     15  C   UNL     1      -2.003   0.891  -1.357  0.00  0.00    -0.002 C 
BRANCH  15  16
ATOM     16  C   UNL     1      -2.993   1.428  -0.355  0.00  0.00    +0.089 A 
ATOM     17  C   UNL     1      -3.752   2.527  -0.511  0.00  0.00    +0.042 A 
ATOM     18  C   UNL     1      -4.528   2.659   0.664  0.00  0.00    +0.041 A 
ATOM     19  C   UNL     1      -4.197   1.632   1.467  0.00  0.00    +0.195 A 
ATOM     20  O   UNL     1      -3.271   0.886   0.842  0.00  0.00    -0.470 OA
ENDBRANCH  15  16
ENDBRANCH   1  15
BRANCH   1  21
ATOM     21  C   UNL     1      -0.013   1.099   0.006  0.00  0.00    +0.003 C 
BRANCH  21  22
ATOM     22  C   UNL     1       1.019   2.114   0.424  0.00  0.00    +0.148 C 
ATOM     23  O   UNL     1       1.095   3.177  -0.157  0.00  0.00    -0.294 OA
BRANCH  22  24
ATOM     24  C   UNL     1       1.931   1.819   1.533  0.00  0.00    +0.033 A 
ATOM     25  C   UNL     1       2.947   2.666   2.038  0.00  0.00    +0.043 A 
ATOM     26  C   UNL     1       3.549   2.000   3.062  0.00  0.00    +0.103 A 
ATOM     27  N   UNL     1       2.937   0.773   3.202  0.00  0.00    -0.356 N 
ATOM     28  H   UNL     1       3.280   0.072   3.978  0.00  0.00    +0.165 HD
ATOM     29  C   UNL     1       1.960   0.658   2.290  0.00  0.00    +0.094 A 
BRANCH  26  30
ATOM     30  C   UNL     1       4.661   2.503   3.878  0.00  0.00    +0.263 C 
ATOM     31  O   UNL     1       5.122   3.608   3.663  0.00  0.00    -0.268 OA
ATOM     32  N   UNL     1       5.170   1.742   4.867  0.00  0.00    -0.296 N 
ATOM     33  C   UNL     1       4.705   0.397   5.239  0.00  0.00    +0.108 C 
ATOM     34  C   UNL     1       5.563  -0.070   6.434  0.00  0.00    +0.020 C 
ATOM     35  C   UNL     1       6.075   1.266   7.034  0.00  0.00    +0.020 C 
ATOM     36  C   UNL     1       6.280   2.122   5.759  0.00  0.00    +0.108 C 
ENDBRANCH  26  30
ENDBRANCH  22  24
ENDBRANCH  21  22
ENDBRANCH   1  21
TORSDOF 9
