REMARK  Name = ZINC09837044
REMARK  9 active torsions:
REMARK  status: ('A' for Active; 'I' for Inactive)
REMARK    1  A    between atoms: C_1  and  N_2
REMARK    2  A    between atoms: N_2  and  C_3
REMARK    3  A    between atoms: C_4  and  N_19
REMARK    4  A    between atoms: N_5  and  C_12
REMARK    5  A    between atoms: C_12  and  C_13
REMARK    6  A    between atoms: C_20  and  C_22
REMARK    7  A    between atoms: C_22  and  S_23
REMARK    8  A    between atoms: S_23  and  C_24
REMARK    9  A    between atoms: C_27  and  C_30
REMARK                            x       y       z     vdW  Elec       q    Type
REMARK                         _______ _______ _______ _____ _____    ______ ____
ROOT
ATOM      1  C   UNL     1      -1.126   3.595   0.187  0.00  0.00    +0.138 C 
ATOM      2  N   UNL     1      -1.206   2.140   0.043  0.00  0.00    -0.267 N 
ATOM      3  C   UNL     1      -2.409   1.537  -0.058  0.00  0.00    +0.230 C 
ATOM      4  O   UNL     1      -2.474   0.344  -0.267  0.00  0.00    -0.274 OA
ENDROOT
BRANCH   2   5
ATOM      5  C   UNL     1      -0.025   1.368   0.009  0.00  0.00    +0.139 A 
ATOM      6  C   UNL     1       0.781   1.270   1.124  0.00  0.00    +0.128 A 
ATOM      7  N   UNL     1       1.930   0.515   1.059  0.00  0.00    -0.276 N 
ATOM      8  C   UNL     1       2.262  -0.120  -0.080  0.00  0.00    +0.331 A 
ATOM      9  O   UNL     1       3.281  -0.782  -0.117  0.00  0.00    -0.246 OA
ATOM     10  N   UNL     1       1.488  -0.036  -1.176  0.00  0.00    -0.273 N 
ATOM     11  H   UNL     1       1.758  -0.519  -2.009  0.00  0.00    +0.173 HD
ATOM     12  C   UNL     1       0.354   0.690  -1.165  0.00  0.00    +0.277 A 
ATOM     13  O   UNL     1      -0.341   0.759  -2.165  0.00  0.00    -0.266 OA
BRANCH   6  14
ATOM     14  N   UNL     1       0.442   1.920   2.287  0.00  0.00    -0.343 N 
ATOM     15  H   UNL     1      -0.409   2.380   2.354  0.00  0.00    +0.144 HD
ATOM     16  H   UNL     1       1.054   1.918   3.040  0.00  0.00    +0.144 HD
ENDBRANCH   6  14
BRANCH   7  17
ATOM     17  C   UNL     1       2.796   0.404   2.235  0.00  0.00    +0.163 C 
BRANCH  17  18
ATOM     18  C   UNL     1       3.820   1.509   2.212  0.00  0.00    -0.028 A 
ATOM     19  C   UNL     1       5.038   1.310   1.590  0.00  0.00    +0.005 A 
ATOM     20  C   UNL     1       5.975   2.325   1.564  0.00  0.00    +0.000 A 
ATOM     21  C   UNL     1       5.698   3.537   2.170  0.00  0.00    +0.000 A 
ATOM     22  C   UNL     1       4.482   3.734   2.797  0.00  0.00    +0.000 A 
ATOM     23  C   UNL     1       3.543   2.720   2.818  0.00  0.00    +0.005 A 
ENDBRANCH  17  18
ENDBRANCH   7  17
ENDBRANCH   2   5
BRANCH   3  24
ATOM     24  C   UNL     1      -3.672   2.346   0.090  0.00  0.00    +0.173 C 
BRANCH  24  25
ATOM     25  S   UNL     1      -5.108   1.260  -0.095  0.00  0.00    -0.077 S 
BRANCH  25  26
ATOM     26  C   UNL     1      -6.407   2.432   0.117  0.00  0.00    +0.190 A 
ATOM     27  N   UNL     1      -7.747   2.173   0.077  0.00  0.00    -0.316 N 
ATOM     28  H   UNL     1      -8.174   1.315  -0.072  0.00  0.00    +0.169 HD
ATOM     29  C   UNL     1      -8.366   3.382   0.293  0.00  0.00    +0.165 A 
ATOM     30  N   UNL     1      -7.419   4.278   0.447  0.00  0.00    -0.128 NA
ATOM     31  N   UNL     1      -6.266   3.718   0.348  0.00  0.00    -0.122 NA
BRANCH  29  32
ATOM     32  C   UNL     1      -9.823   3.627   0.344  0.00  0.00    +0.054 A 
ATOM     33  C   UNL     1     -10.310   4.915   0.573  0.00  0.00    +0.014 A 
ATOM     34  C   UNL     1     -11.671   5.137   0.618  0.00  0.00    +0.001 A 
ATOM     35  C   UNL     1     -12.554   4.087   0.437  0.00  0.00    +0.003 A 
ATOM     36  C   UNL     1     -12.080   2.808   0.210  0.00  0.00    +0.039 A 
ATOM     37  C   UNL     1     -10.719   2.572   0.156  0.00  0.00    +0.134 A 
ATOM     38  F   UNL     1     -10.257   1.323  -0.072  0.00  0.00    -0.205 F 
ENDBRANCH  29  32
ENDBRANCH  25  26
ENDBRANCH  24  25
ENDBRANCH   3  24
TORSDOF 8
