REMARK  Name = ZINC10289454
REMARK  5 active torsions:
REMARK  status: ('A' for Active; 'I' for Inactive)
REMARK    1  A    between atoms: C_3  and  N_23
REMARK    2  A    between atoms: C_5  and  C_6
REMARK    3  A    between atoms: N_8  and  N_9
REMARK    4  A    between atoms: C_10  and  C_12
REMARK    5  A    between atoms: C_24  and  C_26
REMARK                            x       y       z     vdW  Elec       q    Type
REMARK                         _______ _______ _______ _____ _____    ______ ____
ROOT
ATOM      1  C   UNL     1      -0.016   1.344   0.009  0.00  0.00    +0.267 C 
ATOM      2  O   UNL     1      -1.079   1.938   0.018  0.00  0.00    -0.268 OA
ATOM      3  N   UNL     1       0.002  -0.004   0.002  0.00  0.00    -0.230 N 
ATOM      4  H   UNL     1       0.849  -0.478  -0.009  0.00  0.00    +0.173 HD
ENDROOT
BRANCH   1   9
ATOM      5  C   UNL     1       1.437   3.465   0.007  0.00  0.00    +0.022 A 
ATOM      6  C   UNL     1       2.730   3.914  -0.002  0.00  0.00    +0.032 A 
ATOM      7  C   UNL     1       3.753   2.990  -0.016  0.00  0.00    +0.072 A 
ATOM      8  S   UNL     1       2.913   1.473  -0.010  0.00  0.00    -0.069 S 
ATOM      9  C   UNL     1       1.239   2.091   0.002  0.00  0.00    +0.077 A 
BRANCH   7  10
ATOM     10  N   UNL     1       5.123   3.218  -0.028  0.00  0.00    -0.280 N 
ATOM     11  C   UNL     1       5.980   2.178  -0.041  0.00  0.00    +0.221 C 
ATOM     12  O   UNL     1       5.554   1.042  -0.043  0.00  0.00    -0.275 OA
ATOM     13  H   UNL     1       5.463   4.126  -0.026  0.00  0.00    +0.155 HD
BRANCH  11  14
ATOM     14  C   UNL     1       7.466   2.425  -0.053  0.00  0.00    +0.075 C 
ATOM     15  C   UNL     1       8.233   2.060  -1.326  0.00  0.00    +0.013 C 
ATOM     16  C   UNL     1       8.386   1.203  -0.068  0.00  0.00    +0.013 C 
ENDBRANCH  11  14
ENDBRANCH   7  10
ENDBRANCH   1   9
BRANCH   3  17
ATOM     17  N   UNL     1      -1.202  -0.721   0.010  0.00  0.00    -0.230 N 
ATOM     18  C   UNL     1      -1.183  -2.069   0.002  0.00  0.00    +0.267 C 
ATOM     19  O   UNL     1      -0.121  -2.663  -0.011  0.00  0.00    -0.268 OA
ATOM     20  H   UNL     1      -2.048  -0.247   0.020  0.00  0.00    +0.173 HD
BRANCH  18  21
ATOM     21  C   UNL     1      -2.443  -2.819   0.010  0.00  0.00    +0.076 A 
ATOM     22  C   UNL     1      -2.645  -4.181  -0.001  0.00  0.00    +0.024 A 
ATOM     23  C   UNL     1      -3.958  -4.657   0.028  0.00  0.00    -0.036 A 
ATOM     24  C   UNL     1      -4.943  -3.737  -0.004  0.00  0.00    -0.006 A 
ATOM     25  S   UNL     1      -4.117  -2.209   0.029  0.00  0.00    -0.088 S 
ATOM     26  C   UNL     1      -6.441  -3.846  -0.124  0.00  0.00    +0.043 C 
ATOM     27  C   UNL     1      -6.910  -5.296  -0.248  0.00  0.00    +0.005 C 
ATOM     28  C   UNL     1      -6.939  -5.970   1.114  0.00  0.00    +0.000 C 
ATOM     29  C   UNL     1      -5.786  -5.549   2.003  0.00  0.00    +0.000 C 
ATOM     30  C   UNL     1      -4.591  -6.434   1.636  0.00  0.00    +0.005 C 
ATOM     31  C   UNL     1      -4.192  -6.152   0.188  0.00  0.00    +0.036 C 
ENDBRANCH  18  21
ENDBRANCH   3  17
TORSDOF 5
