REMARK  Name = ZINC12502087
REMARK  9 active torsions:
REMARK  status: ('A' for Active; 'I' for Inactive)
REMARK    1  A    between atoms: C_1  and  C_2
REMARK    2  A    between atoms: C_2  and  C_4
REMARK    3  A    between atoms: C_2  and  O_22
REMARK    4  A    between atoms: N_6  and  N_7
REMARK    5  A    between atoms: N_7  and  C_8
REMARK    6  A    between atoms: C_8  and  N_10
REMARK    7  A    between atoms: C_11  and  C_13
REMARK    8  A    between atoms: C_17  and  N_19
REMARK    9  A    between atoms: O_22  and  C_23
REMARK                            x       y       z     vdW  Elec       q    Type
REMARK                         _______ _______ _______ _____ _____    ______ ____
ROOT
ATOM      1  N   UNL     1       2.224   8.396  -0.280  0.00  0.00    -0.245 N 
ATOM      2  H   UNL     1       2.276   9.352  -0.123  0.00  0.00    +0.172 HD
ENDROOT
BRANCH   1   5
ATOM      3  C   UNL     1       4.596   8.221  -0.171  0.00  0.00    +0.270 C 
ATOM      4  O   UNL     1       4.661   9.416   0.025  0.00  0.00    -0.270 OA
ATOM      5  N   UNL     1       3.396   7.630  -0.335  0.00  0.00    -0.232 N 
ATOM      6  H   UNL     1       3.343   6.674  -0.492  0.00  0.00    +0.173 HD
BRANCH   3   8
ATOM      7  C   UNL     1       5.875   6.410   0.939  0.00  0.00    +0.062 C 
ATOM      8  C   UNL     1       5.856   7.397  -0.230  0.00  0.00    +0.257 C 
BRANCH   8   9
ATOM      9  O   UNL     1       6.993   8.259  -0.145  0.00  0.00    -0.478 OA
BRANCH   9  10
ATOM     10  C   UNL     1       8.154   7.804  -0.687  0.00  0.00    +0.140 A 
ATOM     11  C   UNL     1       8.228   6.512  -1.186  0.00  0.00    +0.048 A 
ATOM     12  C   UNL     1       9.407   6.053  -1.740  0.00  0.00    +0.023 A 
ATOM     13  C   UNL     1      10.517   6.878  -1.790  0.00  0.00    +0.043 A 
ATOM     14  C   UNL     1      10.447   8.166  -1.288  0.00  0.00    +0.043 A 
ATOM     15  C   UNL     1       9.268   8.631  -0.737  0.00  0.00    +0.084 A 
ATOM     16 CL   UNL     1       9.180  10.246  -0.107  0.00  0.00    -0.080 Cl
ATOM     17 CL   UNL     1      11.999   6.297  -2.482  0.00  0.00    -0.083 Cl
ENDBRANCH   9  10
ENDBRANCH   8   9
ENDBRANCH   3   8
ENDBRANCH   1   5
BRANCH   1  18
ATOM     18  C   UNL     1       1.024   7.805  -0.444  0.00  0.00    +0.153 C 
ATOM     19  S   UNL     1      -0.408   8.741  -0.377  0.00  0.00    -0.017 S 
BRANCH  18  20
ATOM     20  N   UNL     1       0.951   6.477  -0.662  0.00  0.00    -0.263 N 
ATOM     21  C   UNL     1      -0.249   5.886  -0.826  0.00  0.00    +0.250 C 
ATOM     22  O   UNL     1      -1.265   6.550  -0.778  0.00  0.00    -0.270 OA
ATOM     23  H   UNL     1       1.762   5.947  -0.700  0.00  0.00    +0.157 HD
BRANCH  21  24
ATOM     24  C   UNL     1      -0.329   4.430  -1.065  0.00  0.00    +0.039 A 
ATOM     25  C   UNL     1       0.837   3.663  -1.121  0.00  0.00    +0.013 A 
ATOM     26  C   UNL     1       0.755   2.305  -1.344  0.00  0.00    +0.003 A 
ATOM     27  C   UNL     1      -0.478   1.701  -1.513  0.00  0.00    +0.033 A 
ATOM     28  C   UNL     1      -1.637   2.455  -1.465  0.00  0.00    +0.127 A 
ATOM     29  C   UNL     1      -1.570   3.814  -1.236  0.00  0.00    +0.045 A 
BRANCH  28  30
ATOM     30  N   UNL     1      -2.952   1.802  -1.653  0.00  0.00    +0.056 N 
ATOM     31  O   UNL     1      -3.013   0.602  -1.851  0.00  0.00    -0.126 OA
ATOM     32  O   UNL     1      -3.973   2.465  -1.610  0.00  0.00    -0.126 OA
ENDBRANCH  28  30
ENDBRANCH  21  24
ENDBRANCH  18  20
ENDBRANCH   1  18
TORSDOF 8
