REMARK  Name = ZINC09184766
REMARK  15 active torsions:
REMARK  status: ('A' for Active; 'I' for Inactive)
REMARK    1  A    between atoms: C_1  and  C_2
REMARK    2  A    between atoms: C_2  and  C_3
REMARK    3  A    between atoms: C_3  and  C_4
REMARK    4  A    between atoms: C_4  and  N_5
REMARK    5  A    between atoms: C_6  and  C_25
REMARK    6  A    between atoms: C_9  and  C_16
REMARK    7  A    between atoms: C_17  and  C_24
REMARK    8  A    between atoms: C_19  and  C_23
REMARK    9  A    between atoms: C_21  and  O_22
REMARK   10  A    between atoms: C_27  and  O_35
REMARK   11  A    between atoms: C_28  and  O_33
REMARK   12  A    between atoms: C_29  and  O_31
REMARK   13  A    between atoms: O_31  and  C_32
REMARK   14  A    between atoms: O_33  and  C_34
REMARK   15  A    between atoms: O_35  and  C_36
REMARK                            x       y       z     vdW  Elec       q    Type
REMARK                         _______ _______ _______ _____ _____    ______ ____
ROOT
ATOM      1  N   UNL     1      -2.846  -2.143   0.281  0.00  0.00    -0.285 N 
ATOM      2  C   UNL     1      -3.880  -2.498   1.262  0.00  0.00    +0.141 C 
ATOM      3  C   UNL     1      -5.018  -3.088   0.473  0.00  0.00    +0.035 A 
ATOM      4  C   UNL     1      -6.296  -3.655   0.492  0.00  0.00    +0.102 A 
ATOM      5  N   UNL     1      -6.622  -3.933  -0.755  0.00  0.00    -0.173 NA
ATOM      6  N   UNL     1      -5.677  -3.599  -1.558  0.00  0.00    -0.272 N 
ATOM      7  H   UNL     1      -5.698  -3.711  -2.522  0.00  0.00    +0.189 HD
ATOM      8  C   UNL     1      -4.637  -3.061  -0.855  0.00  0.00    +0.126 A 
ATOM      9  C   UNL     1      -3.297  -2.469  -0.944  0.00  0.00    +0.265 C 
ATOM     10  O   UNL     1      -2.681  -2.300  -1.979  0.00  0.00    -0.268 OA
ENDROOT
BRANCH   4  11
ATOM     11  C   UNL     1      -7.132  -3.898   1.694  0.00  0.00    +0.047 A 
ATOM     12  C   UNL     1      -8.453  -3.459   1.728  0.00  0.00    -0.037 A 
ATOM     13  C   UNL     1      -9.226  -3.688   2.849  0.00  0.00    +0.007 A 
ATOM     14  C   UNL     1      -8.693  -4.354   3.939  0.00  0.00    -0.047 A 
ATOM     15  C   UNL     1      -7.384  -4.794   3.915  0.00  0.00    +0.049 A 
ATOM     16  C   UNL     1      -6.598  -4.575   2.794  0.00  0.00    +0.127 A 
ATOM     17  C   UNL     1      -9.545  -4.599   5.157  0.00  0.00    +0.044 C 
ATOM     18  C   UNL     1      -9.037  -2.733   0.544  0.00  0.00    +0.044 C 
BRANCH  16  19
ATOM     19  O   UNL     1      -5.312  -5.012   2.768  0.00  0.00    -0.506 OA
ATOM     20  H   UNL     1      -4.682  -4.405   3.178  0.00  0.00    +0.292 HD
ENDBRANCH  16  19
ENDBRANCH   4  11
BRANCH   2  21
ATOM     21  C   UNL     1      -4.341  -1.266   1.998  0.00  0.00    -0.015 A 
ATOM     22  C   UNL     1      -4.700  -0.134   1.290  0.00  0.00    +0.055 A 
ATOM     23  C   UNL     1      -5.124   1.001   1.963  0.00  0.00    +0.165 A 
ATOM     24  C   UNL     1      -5.189   1.000   3.351  0.00  0.00    +0.204 A 
ATOM     25  C   UNL     1      -4.829  -0.140   4.059  0.00  0.00    +0.165 A 
ATOM     26  C   UNL     1      -4.410  -1.273   3.378  0.00  0.00    +0.055 A 
BRANCH  25  27
ATOM     27  O   UNL     1      -4.891  -0.146   5.418  0.00  0.00    -0.491 OA
ATOM     28  C   UNL     1      -4.505  -1.353   6.079  0.00  0.00    +0.277 C 
ENDBRANCH  25  27
BRANCH  24  29
ATOM     29  O   UNL     1      -5.605   2.113   4.016  0.00  0.00    -0.488 OA
ATOM     30  C   UNL     1      -7.005   2.228   4.276  0.00  0.00    +0.277 C 
ENDBRANCH  24  29
BRANCH  23  31
ATOM     31  O   UNL     1      -5.476   2.115   1.266  0.00  0.00    -0.491 OA
ATOM     32  C   UNL     1      -5.384   2.045  -0.158  0.00  0.00    +0.277 C 
ENDBRANCH  23  31
ENDBRANCH   2  21
BRANCH   1  33
ATOM     33  C   UNL     1      -1.549  -1.533   0.584  0.00  0.00    +0.109 C 
BRANCH  33  34
ATOM     34  C   UNL     1      -1.683  -0.009   0.555  0.00  0.00    +0.019 C 
BRANCH  34  36
ATOM     35  C   UNL     1      -0.462   2.151   0.842  0.00  0.00    +0.004 C 
ATOM     36  C   UNL     1      -0.328   0.628   0.871  0.00  0.00    -0.002 C 
ENDBRANCH  34  36
ENDBRANCH  33  34
ENDBRANCH   1  33
TORSDOF 9
