REMARK  Name = ZINC30763316
REMARK  9 active torsions:
REMARK  status: ('A' for Active; 'I' for Inactive)
REMARK    1  A    between atoms: C_1  and  C_2
REMARK    2  A    between atoms: C_5  and  C_28
REMARK    3  A    between atoms: C_6  and  C_8
REMARK    4  A    between atoms: C_8  and  C_10
REMARK    5  A    between atoms: C_8  and  N_11
REMARK    6  A    between atoms: C_12  and  C_14
REMARK    7  A    between atoms: C_15  and  C_27
REMARK    8  A    between atoms: C_17  and  N_19
REMARK    9  A    between atoms: C_20  and  C_22
REMARK                            x       y       z     vdW  Elec       q    Type
REMARK                         _______ _______ _______ _____ _____    ______ ____
ROOT
ATOM      1  C   UNL     1      -3.400  -1.161   1.191  0.00  0.00    +0.078 A 
ATOM      2  C   UNL     1      -4.240  -1.380   2.273  0.00  0.00    -0.029 A 
ATOM      3  C   UNL     1      -5.492  -1.866   2.007  0.00  0.00    +0.035 A 
ATOM      4  C   UNL     1      -5.846  -2.107   0.697  0.00  0.00    +0.073 A 
ATOM      5  S   UNL     1      -4.425  -1.648  -0.185  0.00  0.00    -0.069 S 
ATOM      6  C   UNL     1      -3.793  -1.096   3.684  0.00  0.00    +0.045 C 
ENDROOT
BRANCH   1   8
ATOM      7  N   UNL     1      -1.372  -0.511   0.012  0.00  0.00    -0.304 N 
ATOM      8  C   UNL     1      -2.029  -0.655   1.181  0.00  0.00    +0.251 C 
ATOM      9  O   UNL     1      -1.479  -0.364   2.228  0.00  0.00    -0.270 OA
ATOM     10  H   UNL     1      -1.869  -0.774  -0.933  0.00  0.00    +0.150 HD
BRANCH   7  11
ATOM     11  C   UNL     1       0.002  -0.004   0.002  0.00  0.00    +0.101 C 
ATOM     12  C   UNL     1      -0.019   1.526   0.010  0.00  0.00    +0.033 C 
BRANCH  11  18
ATOM     13  C   UNL     1      -0.173  -1.631  -4.727  0.00  0.00    +0.044 C 
ATOM     14  C   UNL     1       0.624  -1.269  -3.501  0.00  0.00    -0.050 A 
ATOM     15  C   UNL     1       2.001  -1.383  -3.512  0.00  0.00    +0.003 A 
ATOM     16  C   UNL     1       2.732  -1.050  -2.387  0.00  0.00    +0.004 A 
ATOM     17  C   UNL     1       2.085  -0.603  -1.250  0.00  0.00    -0.046 A 
ATOM     18  C   UNL     1       0.707  -0.490  -1.238  0.00  0.00    -0.024 A 
ATOM     19  C   UNL     1      -0.024  -0.828  -2.362  0.00  0.00    +0.009 A 
ATOM     20  C   UNL     1       2.881  -0.241  -0.023  0.00  0.00    +0.044 C 
ENDBRANCH  11  18
ENDBRANCH   7  11
ENDBRANCH   1   8
BRANCH   4  21
ATOM     21  N   UNL     1      -7.049  -2.592   0.203  0.00  0.00    -0.273 N 
ATOM     22  C   UNL     1      -7.212  -2.765  -1.124  0.00  0.00    +0.284 C 
ATOM     23  O   UNL     1      -6.305  -2.495  -1.889  0.00  0.00    -0.266 OA
ATOM     24  H   UNL     1      -7.869  -2.837   0.894  0.00  0.00    +0.156 HD
BRANCH  22  25
ATOM     25  C   UNL     1      -8.482  -3.277  -1.646  0.00  0.00    +0.189 A 
ATOM     26  C   UNL     1      -8.780  -3.498  -2.960  0.00  0.00    +0.054 A 
ATOM     27  C   UNL     1     -10.094  -3.988  -3.000  0.00  0.00    +0.042 A 
ATOM     28  C   UNL     1     -10.537  -4.043  -1.724  0.00  0.00    +0.196 A 
ATOM     29  O   UNL     1      -9.561  -3.620  -0.911  0.00  0.00    -0.458 OA
ENDBRANCH  22  25
ENDBRANCH   4  21
TORSDOF 5
