REMARK  Name = ZINC04494684
REMARK  7 active torsions:
REMARK  status: ('A' for Active; 'I' for Inactive)
REMARK    1  A    between atoms: C_1  and  S_2
REMARK    2  A    between atoms: S_2  and  C_3
REMARK    3  A    between atoms: C_6  and  C_9
REMARK    4  A    between atoms: C_12  and  C_23
REMARK    5  A    between atoms: C_18  and  N_22
REMARK    6  A    between atoms: C_19  and  C_20
REMARK    7  A    between atoms: C_26  and  N_29
REMARK                            x       y       z     vdW  Elec       q    Type
REMARK                         _______ _______ _______ _____ _____    ______ ____
ROOT
ATOM      1  C   UNL     1       2.901  -1.397  -5.106  0.00  0.00    +0.102 C 
ATOM      2  C   UNL     1       4.128  -2.212  -4.788  0.00  0.00    +0.054 A 
ATOM      3  C   UNL     1       5.332  -1.807  -4.203  0.00  0.00    +0.100 A 
ATOM      4  N   UNL     1       6.118  -2.863  -4.119  0.00  0.00    -0.171 NA
ATOM      5  N   UNL     1       5.433  -3.967  -4.649  0.00  0.00    -0.246 N 
ATOM      6  H   UNL     1       5.774  -4.873  -4.713  0.00  0.00    +0.192 HD
ATOM      7  C   UNL     1       4.216  -3.548  -5.054  0.00  0.00    +0.223 A 
ATOM      8  O   UNL     1       3.207  -4.248  -5.629  0.00  0.00    -0.423 OA
ATOM      9  C   UNL     1       2.201  -3.546  -6.190  0.00  0.00    +0.200 C 
ATOM     10  C   UNL     1       2.003  -2.224  -5.992  0.00  0.00    +0.098 C 
ENDROOT
BRANCH   1  14
ATOM     11  C   UNL     1       0.848  -0.411  -1.489  0.00  0.00    +0.008 A 
ATOM     12  C   UNL     1       1.315   0.599  -2.322  0.00  0.00    +0.015 A 
ATOM     13  C   UNL     1       1.978   0.276  -3.490  0.00  0.00    +0.005 A 
ATOM     14  C   UNL     1       2.178  -1.049  -3.830  0.00  0.00    -0.034 A 
ATOM     15  C   UNL     1       1.714  -2.056  -3.004  0.00  0.00    +0.005 A 
ATOM     16  C   UNL     1       1.056  -1.742  -1.831  0.00  0.00    +0.015 A 
BRANCH  11  18
ATOM     17  C   UNL     1      -0.022   1.810   0.012  0.00  0.00    +0.090 C 
ATOM     18  S   UNL     1       0.002  -0.004   0.002  0.00  0.00    -0.129 S 
ENDBRANCH  11  18
ENDBRANCH   1  14
BRANCH   3  19
ATOM     19  C   UNL     1       5.667  -0.431  -3.757  0.00  0.00    +0.003 A 
ATOM     20  C   UNL     1       5.187   0.669  -4.463  0.00  0.00    +0.012 A 
ATOM     21  C   UNL     1       5.501   1.946  -4.043  0.00  0.00    +0.033 A 
ATOM     22  C   UNL     1       6.290   2.134  -2.923  0.00  0.00    +0.126 A 
ATOM     23  C   UNL     1       6.769   1.044  -2.218  0.00  0.00    +0.033 A 
ATOM     24  C   UNL     1       6.457  -0.237  -2.626  0.00  0.00    +0.012 A 
BRANCH  22  25
ATOM     25  N   UNL     1       6.623   3.505  -2.477  0.00  0.00    +0.056 N 
ATOM     26  O   UNL     1       6.206   4.459  -3.092  0.00  0.00    -0.126 OA
ATOM     27  O   UNL     1       7.313   3.672  -1.498  0.00  0.00    -0.126 OA
ENDBRANCH  22  25
ENDBRANCH   3  19
BRANCH   9  28
ATOM     28  N   UNL     1       1.327  -4.215  -7.011  0.00  0.00    -0.328 N 
ATOM     29  H   UNL     1       1.443  -5.164  -7.173  0.00  0.00    +0.145 HD
ATOM     30  H   UNL     1       0.593  -3.737  -7.430  0.00  0.00    +0.145 HD
ENDBRANCH   9  28
BRANCH  10  31
ATOM     31  C   UNL     1       0.901  -1.584  -6.646  0.00  0.00    +0.101 C 
ATOM     32  N   UNL     1       0.027  -1.076  -7.165  0.00  0.00    -0.191 NA
ENDBRANCH  10  31
TORSDOF 6
