REMARK  Name = ZINC39653252
REMARK  14 active torsions:
REMARK  status: ('A' for Active; 'I' for Inactive)
REMARK    1  A    between atoms: C_1  and  C_2
REMARK    2  A    between atoms: C_2  and  O_3
REMARK    3  A    between atoms: O_3  and  C_4
REMARK    4  A    between atoms: C_6  and  C_12
REMARK    5  A    between atoms: C_9  and  O_10
REMARK    6  A    between atoms: O_10  and  C_11
REMARK    7  A    between atoms: C_12  and  C_13
REMARK    8  A    between atoms: C_13  and  N_14
REMARK    9  A    between atoms: C_15  and  C_17
REMARK   10  A    between atoms: C_28  and  C_30
REMARK   11  A    between atoms: C_33  and  O_38
REMARK   12  A    between atoms: C_34  and  O_36
REMARK   13  A    between atoms: O_36  and  C_37
REMARK   14  A    between atoms: O_38  and  C_39
REMARK                            x       y       z     vdW  Elec       q    Type
REMARK                         _______ _______ _______ _____ _____    ______ ____
ROOT
ATOM      1  C   UNL     1       3.373  -7.715   2.703  0.00  0.00    +0.100 C 
ATOM      2  C   UNL     1       3.323  -9.091   2.002  0.00  0.00    +0.121 C 
ATOM      3  N   UNL     1       4.180  -9.967   2.835  0.00  0.00    -0.296 N 
ATOM      4  C   UNL     1       3.876  -9.562   4.229  0.00  0.00    +0.115 C 
ATOM      5  C   UNL     1       3.736  -8.028   4.164  0.00  0.00    -0.004 C 
ATOM      6  C   UNL     1       2.622  -7.561   5.096  0.00  0.00    -0.010 C 
ATOM      7  C   UNL     1       3.031  -7.830   6.547  0.00  0.00    -0.082 C 
ATOM      8  N   UNL     1       4.279  -7.118   6.847  0.00  0.00    +0.379 N 
ATOM      9  C   UNL     1       5.366  -7.639   6.010  0.00  0.00    -0.082 C 
ATOM     10  C   UNL     1       5.056  -7.361   4.536  0.00  0.00    -0.010 C 
ATOM     11  C   UNL     1       5.042 -10.916   2.420  0.00  0.00    +0.247 C 
ATOM     12  O   UNL     1       5.279 -11.046   1.235  0.00  0.00    -0.270 OA
ATOM     13  H   UNL     1       4.155  -6.134   6.661  0.00  0.00    -0.086 HD
ATOM     14  H   UNL     1       4.514  -7.247   7.819  0.00  0.00    -0.086 HD
ENDROOT
BRANCH  11  15
ATOM     15  C   UNL     1       5.697 -11.800   3.405  0.00  0.00    +0.041 A 
ATOM     16  C   UNL     1       5.138 -11.970   4.673  0.00  0.00    +0.017 A 
ATOM     17  C   UNL     1       5.751 -12.795   5.591  0.00  0.00    +0.050 A 
ATOM     18  C   UNL     1       6.925 -13.458   5.259  0.00  0.00    +0.162 A 
ATOM     19  C   UNL     1       7.489 -13.291   3.995  0.00  0.00    +0.162 A 
ATOM     20  C   UNL     1       6.876 -12.471   3.068  0.00  0.00    +0.062 A 
BRANCH  19  21
ATOM     21  O   UNL     1       8.639 -13.941   3.672  0.00  0.00    -0.491 OA
ATOM     22  C   UNL     1       9.160 -13.724   2.359  0.00  0.00    +0.277 C 
ENDBRANCH  19  21
BRANCH  18  23
ATOM     23  O   UNL     1       7.526 -14.269   6.167  0.00  0.00    -0.491 OA
ATOM     24  C   UNL     1       6.894 -14.394   7.443  0.00  0.00    +0.277 C 
ENDBRANCH  18  23
ENDBRANCH  11  15
BRANCH   1  26
ATOM     25  N   UNL     1       1.951  -5.694   2.599  0.00  0.00    -0.315 N 
ATOM     26  C   UNL     1       2.029  -7.039   2.629  0.00  0.00    +0.218 C 
ATOM     27  O   UNL     1       1.016  -7.705   2.596  0.00  0.00    -0.275 OA
ATOM     28  H   UNL     1       2.761  -5.160   2.626  0.00  0.00    +0.149 HD
BRANCH  25  29
ATOM     29  C   UNL     1       0.644  -5.037   2.528  0.00  0.00    +0.109 C 
BRANCH  29  30
ATOM     30  C   UNL     1       0.836  -3.519   2.507  0.00  0.00    +0.054 C 
BRANCH  30  33
ATOM     31  C   UNL     1      -2.415  -1.889   3.530  0.00  0.00    +0.162 A 
ATOM     32  C   UNL     1      -1.178  -2.510   3.596  0.00  0.00    +0.053 A 
ATOM     33  C   UNL     1      -0.509  -2.843   2.433  0.00  0.00    -0.042 A 
ATOM     34  C   UNL     1      -1.070  -2.556   1.203  0.00  0.00    +0.007 A 
ATOM     35  C   UNL     1      -2.303  -1.936   1.130  0.00  0.00    +0.049 A 
ATOM     36  C   UNL     1      -2.982  -1.606   2.292  0.00  0.00    +0.162 A 
BRANCH  36  37
ATOM     37  O   UNL     1      -4.199  -1.001   2.222  0.00  0.00    -0.491 OA
ATOM     38  C   UNL     1      -4.719  -0.740   0.917  0.00  0.00    +0.277 C 
ENDBRANCH  36  37
BRANCH  31  39
ATOM     39  O   UNL     1      -3.075  -1.562   4.673  0.00  0.00    -0.489 OA
BRANCH  39  41
ATOM     40  C   UNL     1      -3.319  -1.443   7.075  0.00  0.00    +0.048 C 
ATOM     41  C   UNL     1      -2.432  -1.883   5.909  0.00  0.00    +0.226 C 
ENDBRANCH  39  41
ENDBRANCH  31  39
ENDBRANCH  30  33
ENDBRANCH  29  30
ENDBRANCH  25  29
ENDBRANCH   1  26
TORSDOF 10
