REMARK  Name = ZINC06410135
REMARK  9 active torsions:
REMARK  status: ('A' for Active; 'I' for Inactive)
REMARK    1  A    between atoms: C_1  and  C_2
REMARK    2  A    between atoms: C_7  and  C_14
REMARK    3  A    between atoms: C_14  and  C_16
REMARK    4  A    between atoms: C_14  and  N_70
REMARK    5  A    between atoms: N_20  and  C_21
REMARK    6  A    between atoms: C_21  and  C_22
REMARK    7  A    between atoms: N_30  and  C_33
REMARK    8  A    between atoms: C_38  and  O_39
REMARK    9  A    between atoms: O_39  and  C_40
REMARK                            x       y       z     vdW  Elec       q    Type
REMARK                         _______ _______ _______ _____ _____    ______ ____
ROOT
ATOM      1  C   UNL     1       1.655   6.649  -1.627  0.00  0.00    +0.039 C 
ENDROOT
BRANCH   1   8
ATOM      2  C   UNL     1       4.957  13.113   1.677  0.00  0.00    +0.044 C 
ATOM      3  C   UNL     1       4.263  11.839   1.270  0.00  0.00    -0.048 A 
ATOM      4  C   UNL     1       3.627  11.065   2.231  0.00  0.00    +0.004 A 
ATOM      5  C   UNL     1       2.993   9.907   1.883  0.00  0.00    +0.010 A 
ATOM      6  C   UNL     1       2.982   9.497   0.545  0.00  0.00    -0.001 A 
ATOM      7  C   UNL     1       2.307   8.264   0.136  0.00  0.00    +0.017 A 
ATOM      8  C   UNL     1       2.335   7.914  -1.174  0.00  0.00    +0.011 A 
ATOM      9  C   UNL     1       2.995   8.734  -2.115  0.00  0.00    +0.251 A 
ATOM     10  O   UNL     1       3.004   8.403  -3.288  0.00  0.00    -0.268 OA
ATOM     11  N   UNL     1       3.613   9.871  -1.749  0.00  0.00    -0.322 N 
ATOM     12  H   UNL     1       4.056  10.411  -2.421  0.00  0.00    +0.169 HD
ATOM     13  C   UNL     1       3.625  10.280  -0.432  0.00  0.00    +0.049 A 
ATOM     14  C   UNL     1       4.265  11.455  -0.054  0.00  0.00    +0.029 A 
ENDBRANCH   1   8
BRANCH   1  20
ATOM     15  C   UNL     1      -0.276   7.973  -2.245  0.00  0.00    -0.058 C 
ATOM     16  C   UNL     1      -1.207   8.331  -3.406  0.00  0.00    +0.086 C 
ATOM     17  N   UNL     1      -1.891   7.118  -3.874  0.00  0.00    -0.331 N 
ATOM     18  C   UNL     1      -0.921   6.109  -4.322  0.00  0.00    +0.086 C 
ATOM     19  C   UNL     1       0.010   5.751  -3.161  0.00  0.00    -0.058 C 
ATOM     20  N   UNL     1       0.708   6.975  -2.715  0.00  0.00    +0.391 N 
ATOM     21  H   UNL     1       1.231   7.368  -3.506  0.00  0.00    -0.080 HD
BRANCH  17  22
ATOM     22  C   UNL     1      -2.807   7.419  -4.889  0.00  0.00    +0.072 A 
ATOM     23  C   UNL     1      -2.819   8.682  -5.463  0.00  0.00    +0.027 A 
ATOM     24  C   UNL     1      -3.721   8.975  -6.469  0.00  0.00    +0.002 A 
ATOM     25  C   UNL     1      -4.619   8.014  -6.899  0.00  0.00    +0.004 A 
ATOM     26  C   UNL     1      -4.615   6.755  -6.328  0.00  0.00    +0.047 A 
ATOM     27  C   UNL     1      -3.712   6.452  -5.323  0.00  0.00    +0.141 A 
BRANCH  27  28
ATOM     28  O   UNL     1      -3.708   5.214  -4.760  0.00  0.00    -0.493 OA
ATOM     29  C   UNL     1      -4.665   4.274  -5.254  0.00  0.00    +0.277 C 
ENDBRANCH  27  28
ENDBRANCH  17  22
ENDBRANCH   1  20
BRANCH   1  30
ATOM     30  C   UNL     1       2.687   5.683  -2.151  0.00  0.00    +0.143 A 
ATOM     31  N   UNL     1       3.312   5.754  -3.301  0.00  0.00    -0.115 NA
ATOM     32  N   UNL     1       4.112   4.747  -3.381  0.00  0.00    -0.023 NA
ATOM     33  N   UNL     1       4.019   4.040  -2.310  0.00  0.00    -0.044 NA
ATOM     34  N   UNL     1       3.146   4.581  -1.529  0.00  0.00    -0.226 N 
BRANCH  34  35
ATOM     35  C   UNL     1       2.735   4.092  -0.211  0.00  0.00    +0.182 C 
BRANCH  35  36
ATOM     36  C   UNL     1       1.566   3.154  -0.365  0.00  0.00    -0.026 A 
ATOM     37  C   UNL     1       1.784   1.801  -0.543  0.00  0.00    +0.005 A 
ATOM     38  C   UNL     1       0.711   0.940  -0.685  0.00  0.00    +0.000 A 
ATOM     39  C   UNL     1      -0.580   1.434  -0.653  0.00  0.00    +0.000 A 
ATOM     40  C   UNL     1      -0.798   2.787  -0.469  0.00  0.00    +0.000 A 
ATOM     41  C   UNL     1       0.275   3.647  -0.327  0.00  0.00    +0.005 A 
ENDBRANCH  35  36
ENDBRANCH  34  35
ENDBRANCH   1  30
TORSDOF 7
