REMARK  Name = ZINC63546943
REMARK  9 active torsions:
REMARK  status: ('A' for Active; 'I' for Inactive)
REMARK    1  A    between atoms: C_1  and  C_2
REMARK    2  A    between atoms: C_8  and  C_11
REMARK    3  A    between atoms: C_11  and  C_12
REMARK    4  A    between atoms: C_12  and  N_13
REMARK    5  A    between atoms: C_14  and  C_16
REMARK    6  A    between atoms: C_21  and  C_30
REMARK    7  A    between atoms: C_23  and  C_26
REMARK    8  A    between atoms: C_33  and  O_36
REMARK    9  A    between atoms: O_36  and  C_37
REMARK                            x       y       z     vdW  Elec       q    Type
REMARK                         _______ _______ _______ _____ _____    ______ ____
ROOT
ATOM      1  C   UNL     1      -2.534  -2.338   7.783  0.00  0.00    +0.185 C 
ATOM      2  C   UNL     1      -2.023  -0.946   8.074  0.00  0.00    +0.045 C 
ATOM      3  C   UNL     1      -3.026  -0.284   8.688  0.00  0.00    +0.116 C 
ATOM      4  N   UNL     1      -3.056   0.993   9.145  0.00  0.00    -0.342 N 
ATOM      5  C   UNL     1      -4.133   1.480   9.726  0.00  0.00    +0.050 C 
ATOM      6  C   UNL     1      -5.285   0.670   9.885  0.00  0.00    +0.055 C 
ATOM      7  C   UNL     1      -5.271  -0.601   9.437  0.00  0.00    +0.133 C 
ATOM      8  N   UNL     1      -4.141  -1.097   8.831  0.00  0.00    -0.215 N 
ATOM      9  N   UNL     1      -3.911  -2.345   8.309  0.00  0.00    -0.218 NA
ATOM     10  H   UNL     1      -4.575  -2.562   7.581  0.00  0.00    +0.146 HD
ATOM     11  H   UNL     1      -2.273   1.556   9.042  0.00  0.00    +0.167 HD
ENDROOT
BRANCH   5  12
ATOM     12  C   UNL     1      -4.139   2.876  10.216  0.00  0.00    -0.001 A 
ATOM     13  C   UNL     1      -3.008   3.679  10.057  0.00  0.00    +0.013 A 
ATOM     14  C   UNL     1      -3.018   4.978  10.514  0.00  0.00    +0.046 A 
ATOM     15  C   UNL     1      -4.152   5.490  11.133  0.00  0.00    +0.120 A 
ATOM     16  C   UNL     1      -5.279   4.694  11.293  0.00  0.00    +0.046 A 
ATOM     17  C   UNL     1      -5.279   3.395  10.833  0.00  0.00    +0.013 A 
BRANCH  15  18
ATOM     18  O   UNL     1      -4.158   6.771  11.583  0.00  0.00    -0.495 OA
ATOM     19  C   UNL     1      -5.357   7.233  12.210  0.00  0.00    +0.277 C 
ENDBRANCH  15  18
ENDBRANCH   5  12
BRANCH   1  21
ATOM     20  N   UNL     1      -1.377  -2.600   5.613  0.00  0.00    -0.313 N 
ATOM     21  C   UNL     1      -2.537  -2.599   6.299  0.00  0.00    +0.236 C 
ATOM     22  O   UNL     1      -3.583  -2.808   5.722  0.00  0.00    -0.274 OA
ATOM     23  H   UNL     1      -0.540  -2.433   6.075  0.00  0.00    +0.149 HD
BRANCH  20  24
ATOM     24  C   UNL     1      -1.379  -2.854   4.170  0.00  0.00    +0.108 C 
BRANCH  24  25
ATOM     25  C   UNL     1       0.055  -2.799   3.641  0.00  0.00    +0.052 C 
BRANCH  25  33
ATOM     26  C   UNL     1      -0.018   1.503   0.010  0.00  0.00    +0.044 C 
ATOM     27  C   UNL     1       0.002  -0.004   0.002  0.00  0.00    -0.050 A 
ATOM     28  C   UNL     1       0.005  -0.680  -1.226  0.00  0.00    +0.005 A 
ATOM     29  C   UNL     1       0.023  -2.026  -1.317  0.00  0.00    +0.026 A 
ATOM     30  C   UNL     1       0.039  -2.826  -0.141  0.00  0.00    +0.043 A 
ATOM     31  N   UNL     1       0.057  -4.126   0.030  0.00  0.00    -0.380 N 
ATOM     32  C   UNL     1       0.067  -4.408   1.470  0.00  0.00    +0.144 C 
ATOM     33  C   UNL     1       0.052  -3.060   2.156  0.00  0.00    -0.040 C 
ATOM     34  C   UNL     1       0.036  -2.137   1.168  0.00  0.00    -0.001 A 
ATOM     35  C   UNL     1       0.022  -0.669   1.180  0.00  0.00    +0.013 A 
ATOM     36  H   UNL     1       0.062  -4.790  -0.677  0.00  0.00    +0.160 HD
ENDBRANCH  25  33
ENDBRANCH  24  25
ENDBRANCH  20  24
ENDBRANCH   1  21
BRANCH   7  37
ATOM     37  C   UNL     1      -6.489  -1.474   9.598  0.00  0.00    +0.432 C 
ATOM     38  F   UNL     1      -7.501  -0.749  10.237  0.00  0.00    -0.165 F 
ATOM     39  F   UNL     1      -6.936  -1.888   8.339  0.00  0.00    -0.165 F 
ATOM     40  F   UNL     1      -6.161  -2.595  10.368  0.00  0.00    -0.165 F 
ENDBRANCH   7  37
TORSDOF 7
