REMARK  Name = ZINC20683324
REMARK  6 active torsions:
REMARK  status: ('A' for Active; 'I' for Inactive)
REMARK    1  A    between atoms: C_1  and  C_2
REMARK    2  A    between atoms: C_2  and  C_4
REMARK    3  A    between atoms: C_2  and  N_20
REMARK    4  A    between atoms: N_9  and  C_10
REMARK    5  A    between atoms: N_23  and  S_26
REMARK    6  A    between atoms: S_26  and  C_29
REMARK                            x       y       z     vdW  Elec       q    Type
REMARK                         _______ _______ _______ _____ _____    ______ ____
ROOT
ATOM      1  C   UNL     1      -1.579   5.056   5.247  0.00  0.00    -0.004 C 
ATOM      2  C   UNL     1      -2.319   5.563   4.008  0.00  0.00    +0.017 C 
ENDROOT
BRANCH   2   3
ATOM      3  C   UNL     1      -1.613   5.077   2.768  0.00  0.00    +0.207 C 
ATOM      4  O   UNL     1      -1.171   5.875   1.970  0.00  0.00    -0.277 OA
ATOM      5  N   UNL     1      -1.474   3.755   2.546  0.00  0.00    -0.242 N 
ATOM      6  C   UNL     1      -0.843   3.320   1.438  0.00  0.00    +0.306 C 
ATOM      7  O   UNL     1      -0.400   4.121   0.637  0.00  0.00    -0.252 OA
ATOM      8  N   UNL     1      -0.704   1.998   1.216  0.00  0.00    -0.294 N 
ATOM      9  H   UNL     1      -1.876   3.031   3.270  0.00  0.00    +0.159 HD
ATOM     10  H   UNL     1      -1.106   1.274   1.940  0.00  0.00    +0.151 HD
BRANCH   8  11
ATOM     11  C   UNL     1      -0.019   1.526   0.010  0.00  0.00    +0.037 C 
ATOM     12  C   UNL     1       1.417   2.055  -0.000  0.00  0.00    +0.029 C 
ATOM     13  C   UNL     1       2.133   1.562  -1.259  0.00  0.00    -0.008 C 
ATOM     14  C   UNL     1       2.154   0.032  -1.268  0.00  0.00    +0.007 C 
ATOM     15  C   UNL     1       0.718  -0.497  -1.257  0.00  0.00    -0.008 C 
ATOM     16  C   UNL     1       0.002  -0.004   0.002  0.00  0.00    +0.029 C 
ATOM     17  C   UNL     1      -0.022   0.009  -2.496  0.00  0.00    +0.007 C 
ATOM     18  C   UNL     1      -0.043   1.539  -2.488  0.00  0.00    -0.008 C 
ATOM     19  C   UNL     1       1.393   2.069  -2.499  0.00  0.00    +0.007 C 
ATOM     20  C   UNL     1      -0.759   2.033  -1.229  0.00  0.00    +0.029 C 
ENDBRANCH   8  11
ENDBRANCH   2   3
BRANCH   2  21
ATOM     21  N   UNL     1      -2.339   7.032   4.016  0.00  0.00    +0.389 N 
ATOM     22  C   UNL     1      -0.975   7.577   4.023  0.00  0.00    -0.060 C 
ATOM     23  C   UNL     1      -1.035   9.098   3.848  0.00  0.00    +0.091 C 
ATOM     24  N   UNL     1      -1.930   9.651   4.876  0.00  0.00    -0.180 NA
ATOM     25  C   UNL     1      -3.270   9.061   5.022  0.00  0.00    +0.091 C 
ATOM     26  C   UNL     1      -3.122   7.542   5.150  0.00  0.00    -0.060 C 
ATOM     27  H   UNL     1      -2.829   7.370   3.091  0.00  0.00    -0.081 HD
BRANCH  24  28
ATOM     28  S   UNL     1      -1.444  10.904   5.843  0.00  0.00    +0.063 S 
ATOM     29  O   UNL     1      -0.420  11.590   5.134  0.00  0.00    -0.153 OA
ATOM     30  O   UNL     1      -2.625  11.554   6.291  0.00  0.00    -0.153 OA
BRANCH  28  31
ATOM     31  C   UNL     1      -0.684  10.199   7.267  0.00  0.00    +0.140 A 
ATOM     32  C   UNL     1       0.663  10.396   7.502  0.00  0.00    +0.031 A 
ATOM     33  C   UNL     1       1.258   9.848   8.623  0.00  0.00    +0.002 A 
ATOM     34  C   UNL     1       0.508   9.091   9.504  0.00  0.00    +0.003 A 
ATOM     35  C   UNL     1      -0.838   8.888   9.269  0.00  0.00    +0.040 A 
ATOM     36  C   UNL     1      -1.436   9.442   8.149  0.00  0.00    +0.150 A 
ATOM     37  F   UNL     1      -2.752   9.243   7.918  0.00  0.00    -0.203 F 
ENDBRANCH  28  31
ENDBRANCH  24  28
ENDBRANCH   2  21
TORSDOF 5
