REMARK  Name = ZINC18349903
REMARK  8 active torsions:
REMARK  status: ('A' for Active; 'I' for Inactive)
REMARK    1  A    between atoms: C_1  and  C_2
REMARK    2  A    between atoms: C_2  and  C_3
REMARK    3  A    between atoms: C_3  and  C_28
REMARK    4  A    between atoms: N_6  and  C_10
REMARK    5  A    between atoms: C_10  and  C_11
REMARK    6  A    between atoms: N_13  and  C_14
REMARK    7  A    between atoms: C_14  and  C_16
REMARK    8  A    between atoms: C_14  and  C_23
REMARK                            x       y       z     vdW  Elec       q    Type
REMARK                         _______ _______ _______ _____ _____    ______ ____
ROOT
ATOM      1  C   UNL     1       4.234   2.710  -3.146  0.00  0.00    +0.213 C 
ENDROOT
BRANCH   1   5
ATOM      2  C   UNL     1       3.401   1.895  -6.672  0.00  0.00    +0.138 C 
ATOM      3  C   UNL     1       3.158   2.660  -5.386  0.00  0.00    +0.251 C 
ATOM      4  O   UNL     1       2.296   3.487  -5.178  0.00  0.00    -0.272 OA
ATOM      5  N   UNL     1       4.098   2.229  -4.523  0.00  0.00    -0.215 N 
ATOM      6  C   UNL     1       4.897   1.312  -5.080  0.00  0.00    +0.310 C 
ATOM      7  O   UNL     1       5.822   0.779  -4.500  0.00  0.00    -0.252 OA
ATOM      8  N   UNL     1       4.559   1.042  -6.354  0.00  0.00    -0.281 N 
ATOM      9  H   UNL     1       4.995   0.412  -6.949  0.00  0.00    +0.152 HD
BRANCH   2  10
ATOM     10  C   UNL     1       2.200   1.055  -7.025  0.00  0.00    -0.015 A 
ATOM     11  C   UNL     1       1.200   1.579  -7.822  0.00  0.00    +0.009 A 
ATOM     12  C   UNL     1       0.102   0.808  -8.151  0.00  0.00    +0.039 A 
ATOM     13  C   UNL     1      -0.003  -0.487  -7.671  0.00  0.00    +0.123 A 
ATOM     14  C   UNL     1       0.997  -1.009  -6.868  0.00  0.00    +0.039 A 
ATOM     15  C   UNL     1       2.098  -0.238  -6.546  0.00  0.00    +0.009 A 
ATOM     16  F   UNL     1      -1.079  -1.240  -7.986  0.00  0.00    -0.205 F 
ENDBRANCH   2  10
BRANCH   2  18
ATOM     17  C   UNL     1       5.057   3.568  -7.510  0.00  0.00    +0.007 C 
ATOM     18  C   UNL     1       3.737   2.856  -7.814  0.00  0.00    +0.037 C 
ENDBRANCH   2  18
ENDBRANCH   1   5
BRANCH   1  19
ATOM     19  C   UNL     1       3.402   1.850  -2.229  0.00  0.00    +0.232 C 
ATOM     20  O   UNL     1       2.760   0.926  -2.681  0.00  0.00    -0.274 OA
ATOM     21  N   UNL     1       3.373   2.108  -0.906  0.00  0.00    -0.303 N 
ATOM     22  H   UNL     1       3.886   2.847  -0.545  0.00  0.00    +0.150 HD
BRANCH  21  23
ATOM     23  C   UNL     1       2.565   1.272  -0.015  0.00  0.00    +0.140 C 
BRANCH  23  24
ATOM     24  C   UNL     1       3.134   1.328   1.379  0.00  0.00    -0.022 A 
ATOM     25  C   UNL     1       3.610   2.524   1.883  0.00  0.00    +0.008 A 
ATOM     26  C   UNL     1       4.127   2.577   3.164  0.00  0.00    +0.038 A 
ATOM     27  C   UNL     1       4.179   1.430   3.937  0.00  0.00    +0.123 A 
ATOM     28  C   UNL     1       3.707   0.232   3.429  0.00  0.00    +0.038 A 
ATOM     29  C   UNL     1       3.185   0.182   2.151  0.00  0.00    +0.008 A 
ATOM     30  F   UNL     1       4.689   1.480   5.187  0.00  0.00    -0.205 F 
ENDBRANCH  23  24
BRANCH  23  31
ATOM     31  C   UNL     1       1.146   1.780   0.001  0.00  0.00    +0.014 A 
ATOM     32  C   UNL     1      -0.013   1.076   0.008  0.00  0.00    +0.013 A 
ATOM     33  C   UNL     1      -1.213   1.761   0.017  0.00  0.00    +0.008 A 
ATOM     34  C   UNL     1      -1.196   3.116   0.030  0.00  0.00    +0.045 A 
ATOM     35  S   UNL     1       0.555   3.464   0.015  0.00  0.00    -0.099 S 
ENDBRANCH  23  31
ENDBRANCH  21  23
ENDBRANCH   1  19
TORSDOF 7
