REMARK  Name = ZINC00854557
REMARK  7 active torsions:
REMARK  status: ('A' for Active; 'I' for Inactive)
REMARK    1  A    between atoms: C_4  and  S_7
REMARK    2  A    between atoms: S_7  and  N_10
REMARK    3  A    between atoms: N_10  and  C_11
REMARK    4  A    between atoms: N_10  and  C_22
REMARK    5  A    between atoms: C_11  and  C_12
REMARK    6  A    between atoms: N_14  and  C_15
REMARK    7  A    between atoms: C_26  and  N_28
REMARK                            x       y       z     vdW  Elec       q    Type
REMARK                         _______ _______ _______ _____ _____    ______ ____
ROOT
ATOM      1  N   UNL     1      -0.126  -0.233  -0.076  0.00  0.00    -0.194 N 
ENDROOT
BRANCH   1   2
ATOM      2  C   UNL     1      -0.291  -0.949  -1.264  0.00  0.00    +0.054 A 
ATOM      3  C   UNL     1       0.594  -1.970  -1.590  0.00  0.00    +0.025 A 
ATOM      4  C   UNL     1       0.425  -2.679  -2.763  0.00  0.00    +0.004 A 
ATOM      5  C   UNL     1      -0.616  -2.366  -3.618  0.00  0.00    +0.033 A 
ATOM      6  C   UNL     1      -1.495  -1.348  -3.300  0.00  0.00    +0.128 A 
ATOM      7  C   UNL     1      -1.335  -0.638  -2.125  0.00  0.00    +0.057 A 
BRANCH   6   8
ATOM      8  N   UNL     1      -2.607  -1.017  -4.218  0.00  0.00    +0.056 N 
ATOM      9  O   UNL     1      -3.382  -0.119  -3.938  0.00  0.00    -0.126 OA
ATOM     10  O   UNL     1      -2.749  -1.642  -5.253  0.00  0.00    -0.126 OA
ENDBRANCH   6   8
ENDBRANCH   1   2
BRANCH   1  11
ATOM     11  S   UNL     1       0.105   1.406  -0.122  0.00  0.00    +0.075 S 
ATOM     12  O   UNL     1      -0.349   1.844  -1.396  0.00  0.00    -0.150 OA
ATOM     13  O   UNL     1      -0.418   1.924   1.093  0.00  0.00    -0.150 OA
BRANCH  11  17
ATOM     14  C   UNL     1       4.572   2.132  -0.021  0.00  0.00    +0.000 A 
ATOM     15  C   UNL     1       3.923   1.983  -1.233  0.00  0.00    +0.002 A 
ATOM     16  C   UNL     1       2.559   1.761  -1.264  0.00  0.00    +0.029 A 
ATOM     17  C   UNL     1       1.843   1.688  -0.083  0.00  0.00    +0.109 A 
ATOM     18  C   UNL     1       2.491   1.843   1.128  0.00  0.00    +0.029 A 
ATOM     19  C   UNL     1       3.856   2.059   1.159  0.00  0.00    +0.002 A 
ENDBRANCH  11  17
ENDBRANCH   1  11
BRANCH   1  20
ATOM     20  C   UNL     1      -0.158  -0.933   1.211  0.00  0.00    +0.227 C 
BRANCH  20  21
ATOM     21  C   UNL     1      -1.586  -1.081   1.667  0.00  0.00    +0.236 C 
ATOM     22  O   UNL     1      -2.489  -0.645   0.984  0.00  0.00    -0.274 OA
ATOM     23  N   UNL     1      -1.861  -1.697   2.833  0.00  0.00    -0.283 N 
ATOM     24  H   UNL     1      -1.137  -1.979   3.415  0.00  0.00    +0.155 HD
BRANCH  23  25
ATOM     25  C   UNL     1      -3.190  -1.931   3.206  0.00  0.00    +0.052 A 
ATOM     26  C   UNL     1      -4.193  -1.925   2.246  0.00  0.00    +0.025 A 
ATOM     27  C   UNL     1      -5.502  -2.161   2.616  0.00  0.00    +0.002 A 
ATOM     28  C   UNL     1      -5.817  -2.393   3.942  0.00  0.00    +0.002 A 
ATOM     29  C   UNL     1      -4.822  -2.395   4.902  0.00  0.00    +0.022 A 
ATOM     30  C   UNL     1      -3.509  -2.164   4.538  0.00  0.00    +0.062 A 
ATOM     31 CL   UNL     1      -2.260  -2.166   5.744  0.00  0.00    -0.082 Cl
ENDBRANCH  23  25
ENDBRANCH  20  21
ENDBRANCH   1  20
TORSDOF 7
