REMARK  Name = ZINC01341231
REMARK  10 active torsions:
REMARK  status: ('A' for Active; 'I' for Inactive)
REMARK    1  A    between atoms: C_1  and  C_2
REMARK    2  A    between atoms: C_5  and  S_8
REMARK    3  A    between atoms: S_8  and  N_11
REMARK    4  A    between atoms: N_11  and  C_12
REMARK    5  A    between atoms: C_12  and  C_13
REMARK    6  A    between atoms: C_16  and  S_19
REMARK    7  A    between atoms: N_17  and  C_18
REMARK    8  A    between atoms: S_19  and  C_20
REMARK    9  A    between atoms: C_20  and  C_21
REMARK   10  A    between atoms: N_23  and  C_24
REMARK                            x       y       z     vdW  Elec       q    Type
REMARK                         _______ _______ _______ _____ _____    ______ ____
ROOT
ATOM      1  C   UNL     1      -0.709   1.565  -1.241  0.00  0.00    +0.149 A 
ATOM      2  N   UNL     1      -1.674   0.954  -1.867  0.00  0.00    -0.132 NA
ATOM      3  N   UNL     1      -2.077   1.666  -2.859  0.00  0.00    -0.122 NA
ATOM      4  C   UNL     1      -1.378   2.775  -2.924  0.00  0.00    +0.192 A 
ATOM      5  N   UNL     1      -0.483   2.745  -1.894  0.00  0.00    -0.308 N 
ATOM      6  C   UNL     1       0.512   3.766  -1.557  0.00  0.00    +0.152 C 
ENDROOT
BRANCH   1   7
ATOM      7  C   UNL     1       0.027   1.062  -0.026  0.00  0.00    +0.182 C 
BRANCH   7   8
ATOM      8  N   UNL     1      -0.654   1.526   1.185  0.00  0.00    -0.183 NA
ATOM      9  H   UNL     1      -1.311   2.238   1.129  0.00  0.00    +0.148 HD
BRANCH   8  10
ATOM     10  S   UNL     1      -0.304   0.836   2.649  0.00  0.00    +0.059 S 
ATOM     11  O   UNL     1      -1.096   1.512   3.616  0.00  0.00    -0.153 OA
ATOM     12  O   UNL     1      -0.367  -0.571   2.460  0.00  0.00    -0.153 OA
BRANCH  10  17
ATOM     13  C   UNL     1       5.448   2.151   3.910  0.00  0.00    +0.044 C 
ATOM     14  C   UNL     1       4.012   1.822   3.595  0.00  0.00    -0.050 A 
ATOM     15  C   UNL     1       3.002   2.673   4.005  0.00  0.00    +0.005 A 
ATOM     16  C   UNL     1       1.684   2.372   3.717  0.00  0.00    +0.029 A 
ATOM     17  C   UNL     1       1.376   1.220   3.017  0.00  0.00    +0.105 A 
ATOM     18  C   UNL     1       2.385   0.367   2.611  0.00  0.00    +0.029 A 
ATOM     19  C   UNL     1       3.703   0.670   2.896  0.00  0.00    +0.005 A 
ENDBRANCH  10  17
ENDBRANCH   8  10
ENDBRANCH   7   8
ENDBRANCH   1   7
BRANCH   4  20
ATOM     20  S   UNL     1      -1.561   4.059  -4.117  0.00  0.00    -0.077 S 
BRANCH  20  21
ATOM     21  C   UNL     1      -2.910   3.376  -5.111  0.00  0.00    +0.173 C 
BRANCH  21  22
ATOM     22  C   UNL     1      -3.247   4.332  -6.225  0.00  0.00    +0.228 C 
ATOM     23  O   UNL     1      -2.635   5.373  -6.337  0.00  0.00    -0.275 OA
ATOM     24  N   UNL     1      -4.229   4.030  -7.098  0.00  0.00    -0.284 N 
ATOM     25  H   UNL     1      -4.673   3.170  -7.050  0.00  0.00    +0.155 HD
BRANCH  24  26
ATOM     26  C   UNL     1      -4.605   4.957  -8.073  0.00  0.00    +0.041 A 
ATOM     27  C   UNL     1      -3.664   5.784  -8.647  0.00  0.00    +0.024 A 
ATOM     28  C   UNL     1      -4.029   6.710  -9.619  0.00  0.00    +0.002 A 
ATOM     29  C   UNL     1      -5.322   6.826 -10.030  0.00  0.00    +0.008 A 
ATOM     30  C   UNL     1      -6.312   6.001  -9.470  0.00  0.00    -0.016 A 
ATOM     31  C   UNL     1      -5.952   5.050  -8.483  0.00  0.00    +0.003 A 
ATOM     32  C   UNL     1      -6.943   4.230  -7.922  0.00  0.00    +0.010 A 
ATOM     33  C   UNL     1      -8.234   4.351  -8.338  0.00  0.00    +0.001 A 
ATOM     34  C   UNL     1      -8.588   5.283  -9.312  0.00  0.00    +0.001 A 
ATOM     35  C   UNL     1      -7.655   6.098  -9.875  0.00  0.00    +0.008 A 
ENDBRANCH  24  26
ENDBRANCH  21  22
ENDBRANCH  20  21
ENDBRANCH   4  20
TORSDOF 8
