REMARK  Name = ZINC09590140
REMARK  8 active torsions:
REMARK  status: ('A' for Active; 'I' for Inactive)
REMARK    1  A    between atoms: C_1  and  C_2
REMARK    2  A    between atoms: N_4  and  C_5
REMARK    3  A    between atoms: C_8  and  N_11
REMARK    4  A    between atoms: C_12  and  C_14
REMARK    5  A    between atoms: C_14  and  S_15
REMARK    6  A    between atoms: S_15  and  C_16
REMARK    7  A    between atoms: C_16  and  C_17
REMARK    8  A    between atoms: C_23  and  C_25
REMARK                            x       y       z     vdW  Elec       q    Type
REMARK                         _______ _______ _______ _____ _____    ______ ____
ROOT
ATOM      1  C   UNL     1       2.654  13.034   0.135  0.00  0.00    +0.060 A 
ATOM      2  C   UNL     1       3.167  13.346  -1.081  0.00  0.00    +0.072 A 
ATOM      3  S   UNL     1       4.722  14.088  -0.604  0.00  0.00    -0.060 S 
ATOM      4  C   UNL     1       4.537  13.914   1.114  0.00  0.00    +0.165 A 
ATOM      5  N   UNL     1       3.357  13.334   1.209  0.00  0.00    -0.229 NA
ATOM      6  N   UNL     1       5.408  14.293   2.129  0.00  0.00    -0.264 N 
ATOM      7  C   UNL     1       6.581  14.884   1.825  0.00  0.00    +0.225 C 
ATOM      8  O   UNL     1       6.876  15.085   0.666  0.00  0.00    -0.275 OA
ATOM      9  H   UNL     1       5.172  14.132   3.056  0.00  0.00    +0.157 HD
ENDROOT
BRANCH   7  10
ATOM     10  C   UNL     1       7.525  15.295   2.925  0.00  0.00    +0.048 C 
ATOM     11  C   UNL     1       7.932  14.062   3.735  0.00  0.00    +0.019 C 
ATOM     12  C   UNL     1       8.891  14.479   4.852  0.00  0.00    -0.009 C 
ATOM     13  C   UNL     1      10.137  15.122   4.240  0.00  0.00    +0.007 C 
ATOM     14  C   UNL     1       9.731  16.354   3.430  0.00  0.00    -0.009 C 
ATOM     15  C   UNL     1       8.772  15.937   2.313  0.00  0.00    +0.019 C 
ATOM     16  C   UNL     1       9.036  17.362   4.349  0.00  0.00    +0.007 C 
ATOM     17  C   UNL     1       7.790  16.720   4.960  0.00  0.00    -0.009 C 
ATOM     18  C   UNL     1       8.196  15.487   5.770  0.00  0.00    +0.007 C 
ATOM     19  C   UNL     1       6.831  16.302   3.843  0.00  0.00    +0.019 C 
ENDBRANCH   7  10
BRANCH   1  20
ATOM     20  C   UNL     1       1.308  12.367   0.255  0.00  0.00    +0.125 C 
BRANCH  20  21
ATOM     21  S   UNL     1       1.523  10.566   0.228  0.00  0.00    -0.145 S 
BRANCH  21  22
ATOM     22  C   UNL     1      -0.166   9.920   0.379  0.00  0.00    +0.165 C 
BRANCH  22  24
ATOM     23  N   UNL     1      -1.277   7.712   0.472  0.00  0.00    -0.285 N 
ATOM     24  C   UNL     1      -0.131   8.414   0.370  0.00  0.00    +0.227 C 
ATOM     25  O   UNL     1       0.929   7.832   0.272  0.00  0.00    -0.275 OA
ATOM     26  H   UNL     1      -2.117   8.175   0.619  0.00  0.00    +0.155 HD
BRANCH  23  30
ATOM     27  C   UNL     1      -1.212   3.555   0.154  0.00  0.00    +0.033 A 
ATOM     28  C   UNL     1      -0.158   4.221   0.766  0.00  0.00    +0.025 A 
ATOM     29  C   UNL     1      -0.177   5.598   0.867  0.00  0.00    +0.025 A 
ATOM     30  C   UNL     1      -1.255   6.316   0.366  0.00  0.00    +0.034 A 
ATOM     31  C   UNL     1      -2.312   5.649  -0.241  0.00  0.00    +0.025 A 
ATOM     32  C   UNL     1      -2.290   4.273  -0.347  0.00  0.00    +0.025 A 
BRANCH  27  36
ATOM     33  C   UNL     1       0.010  -0.004   0.043  0.00  0.00    +0.109 C 
ATOM     34  C   UNL     1      -0.013   1.502   0.029  0.00  0.00    +0.214 C 
ATOM     35  O   UNL     1       1.028   2.124  -0.005  0.00  0.00    -0.276 OA
ATOM     36  N   UNL     1      -1.190   2.159   0.048  0.00  0.00    -0.286 N 
ATOM     37  H   UNL     1      -2.022   1.664  -0.012  0.00  0.00    +0.155 HD
ENDBRANCH  27  36
ENDBRANCH  23  30
ENDBRANCH  22  24
ENDBRANCH  21  22
ENDBRANCH  20  21
ENDBRANCH   1  20
TORSDOF 7
