REMARK  Name = ZINC39667136
REMARK  12 active torsions:
REMARK  status: ('A' for Active; 'I' for Inactive)
REMARK    1  A    between atoms: C_1  and  C_2
REMARK    2  A    between atoms: C_2  and  C_3
REMARK    3  A    between atoms: C_3  and  C_4
REMARK    4  A    between atoms: C_4  and  C_5
REMARK    5  A    between atoms: C_5  and  C_7
REMARK    6  A    between atoms: C_5  and  C_8
REMARK    7  A    between atoms: C_12  and  C_21
REMARK    8  A    between atoms: N_23  and  C_24
REMARK    9  A    between atoms: C_24  and  C_25
REMARK   10  A    between atoms: C_25  and  C_26
REMARK   11  A    between atoms: C_29  and  C_33
REMARK   12  A    between atoms: C_31  and  C_32
REMARK                            x       y       z     vdW  Elec       q    Type
REMARK                         _______ _______ _______ _____ _____    ______ ____
ROOT
ATOM      1  C   UNL     1      -2.789  -3.990   0.443  0.00  0.00    +0.218 C 
ATOM      2  O   UNL     1      -1.786  -4.626   0.691  0.00  0.00    -0.275 OA
ATOM      3  N   UNL     1      -3.963  -4.627   0.265  0.00  0.00    -0.300 N 
ATOM      4  C   UNL     1      -5.259  -4.042  -0.152  0.00  0.00    +0.121 C 
ATOM      5  C   UNL     1      -5.870  -5.090  -1.110  0.00  0.00    +0.100 C 
ATOM      6  C   UNL     1      -5.205  -6.419  -0.713  0.00  0.00    -0.004 C 
ATOM      7  C   UNL     1      -4.249  -6.072   0.437  0.00  0.00    +0.115 C 
ATOM      8  C   UNL     1      -4.420  -6.989  -1.890  0.00  0.00    -0.010 C 
ATOM      9  C   UNL     1      -3.816  -8.338  -1.488  0.00  0.00    -0.082 C 
ATOM     10  N   UNL     1      -4.890  -9.260  -1.097  0.00  0.00    +0.379 N 
ATOM     11  C   UNL     1      -5.581  -8.748   0.092  0.00  0.00    -0.082 C 
ATOM     12  C   UNL     1      -6.259  -7.417  -0.242  0.00  0.00    -0.010 C 
ATOM     13  H   UNL     1      -5.549  -9.347  -1.856  0.00  0.00    -0.086 HD
ATOM     14  H   UNL     1      -4.495 -10.166  -0.892  0.00  0.00    -0.086 HD
ENDROOT
BRANCH   5  15
ATOM     15  C   UNL     1      -5.545  -4.745  -2.541  0.00  0.00    +0.218 C 
ATOM     16  O   UNL     1      -4.559  -4.088  -2.797  0.00  0.00    -0.275 OA
ATOM     17  N   UNL     1      -6.351  -5.167  -3.535  0.00  0.00    -0.315 N 
ATOM     18  H   UNL     1      -7.140  -5.693  -3.330  0.00  0.00    +0.149 HD
BRANCH  17  19
ATOM     19  C   UNL     1      -6.036  -4.832  -4.926  0.00  0.00    +0.109 C 
BRANCH  19  20
ATOM     20  C   UNL     1      -7.101  -5.428  -5.848  0.00  0.00    +0.054 C 
BRANCH  20  21
ATOM     21  C   UNL     1      -6.777  -5.083  -7.279  0.00  0.00    -0.043 A 
ATOM     22  C   UNL     1      -7.350  -3.973  -7.870  0.00  0.00    +0.004 A 
ATOM     23  C   UNL     1      -7.053  -3.656  -9.182  0.00  0.00    +0.003 A 
ATOM     24  C   UNL     1      -6.181  -4.450  -9.903  0.00  0.00    -0.050 A 
ATOM     25  C   UNL     1      -5.607  -5.560  -9.313  0.00  0.00    +0.007 A 
ATOM     26  C   UNL     1      -5.901  -5.874  -7.999  0.00  0.00    -0.047 A 
ATOM     27  C   UNL     1      -5.271  -7.081  -7.353  0.00  0.00    +0.044 C 
ATOM     28  C   UNL     1      -5.857  -4.106 -11.335  0.00  0.00    +0.044 C 
ENDBRANCH  20  21
ENDBRANCH  19  20
ENDBRANCH  17  19
ENDBRANCH   5  15
BRANCH   1  29
ATOM     29  C   UNL     1      -2.721  -2.489   0.334  0.00  0.00    +0.072 C 
ATOM     30  C   UNL     1      -1.377  -2.081  -0.271  0.00  0.00    +0.017 C 
BRANCH  29  31
ATOM     31  C   UNL     1      -2.862  -1.870   1.726  0.00  0.00    +0.012 C 
BRANCH  31  32
ATOM     32  C   UNL     1      -2.919  -0.346   1.604  0.00  0.00    +0.000 C 
BRANCH  32  34
ATOM     33  C   UNL     1      -3.117   1.797   2.873  0.00  0.00    +0.004 C 
ATOM     34  C   UNL     1      -3.060   0.273   2.996  0.00  0.00    -0.003 C 
ENDBRANCH  32  34
ENDBRANCH  31  32
ENDBRANCH  29  31
ENDBRANCH   1  29
TORSDOF 8
