REMARK  Name = ZINC06193114
REMARK  16 active torsions:
REMARK  status: ('A' for Active; 'I' for Inactive)
REMARK    1  A    between atoms: C_1  and  C_2
REMARK    2  A    between atoms: C_2  and  N_72
REMARK    3  A    between atoms: C_3  and  C_4
REMARK    4  A    between atoms: C_3  and  N_72
REMARK    5  A    between atoms: C_5  and  C_6
REMARK    6  A    between atoms: C_5  and  N_72
REMARK    7  A    between atoms: C_6  and  C_7
REMARK    8  A    between atoms: C_7  and  N_8
REMARK    9  A    between atoms: N_8  and  C_9
REMARK   10  A    between atoms: C_9  and  N_11
REMARK   11  A    between atoms: N_11  and  C_12
REMARK   12  A    between atoms: N_11  and  C_21
REMARK   13  A    between atoms: C_12  and  C_13
REMARK   14  A    between atoms: C_13  and  C_14
REMARK   15  A    between atoms: C_19  and  C_20
REMARK   16  A    between atoms: C_21  and  C_22
REMARK                            x       y       z     vdW  Elec       q    Type
REMARK                         _______ _______ _______ _____ _____    ______ ____
ROOT
ATOM      1  N   UNL     1      -0.020   1.468  -0.016  0.00  0.00    -0.308 N 
ENDROOT
BRANCH   1   2
ATOM      2  C   UNL     1      -1.197   2.124   0.010  0.00  0.00    +0.133 C 
ATOM      3  S   UNL     1      -1.223   3.835   0.050  0.00  0.00    -0.019 S 
BRANCH   2   4
ATOM      4  N   UNL     1      -2.354   1.432   0.006  0.00  0.00    -0.326 N 
ATOM      5  H   UNL     1      -2.339   0.463  -0.016  0.00  0.00    +0.148 HD
BRANCH   4   6
ATOM      6  C   UNL     1      -3.634   2.145   0.035  0.00  0.00    +0.101 C 
BRANCH   6   7
ATOM      7  C   UNL     1      -4.781   1.133   0.024  0.00  0.00    +0.000 C 
BRANCH   7   8
ATOM      8  C   UNL     1      -6.118   1.877   0.054  0.00  0.00    -0.077 C 
BRANCH   8   9
ATOM      9  N   UNL     1      -7.211   0.894  -0.101  0.00  0.00    +0.379 N 
ATOM     10  H   UNL     1      -6.947   0.213  -0.822  0.00  0.00    -0.082 HD
BRANCH   9  12
ATOM     11  C   UNL     1      -8.405  -0.975   0.931  0.00  0.00    -0.017 C 
ATOM     12  C   UNL     1      -7.434   0.181   1.175  0.00  0.00    -0.082 C 
ENDBRANCH   9  12
BRANCH   9  13
ATOM     13  C   UNL     1      -8.451   1.580  -0.519  0.00  0.00    -0.082 C 
ATOM     14  C   UNL     1      -8.352   1.906  -2.011  0.00  0.00    -0.017 C 
ENDBRANCH   9  13
ENDBRANCH   8   9
ENDBRANCH   7   8
ENDBRANCH   6   7
ENDBRANCH   4   6
ENDBRANCH   2   4
ENDBRANCH   1   2
BRANCH   1  15
ATOM     15  C   UNL     1       0.002   0.004  -0.050  0.00  0.00    +0.112 C 
BRANCH  15  16
ATOM     16  C   UNL     1       0.032  -0.538   1.381  0.00  0.00    +0.054 C 
BRANCH  16  17
ATOM     17  C   UNL     1       0.054  -2.045   1.346  0.00  0.00    -0.043 A 
ATOM     18  C   UNL     1      -1.125  -2.757   1.458  0.00  0.00    +0.004 A 
ATOM     19  C   UNL     1      -1.105  -4.138   1.421  0.00  0.00    +0.000 A 
ATOM     20  C   UNL     1       0.097  -4.809   1.284  0.00  0.00    +0.000 A 
ATOM     21  C   UNL     1       1.277  -4.097   1.178  0.00  0.00    +0.003 A 
ATOM     22  C   UNL     1       1.256  -2.715   1.209  0.00  0.00    -0.047 A 
ATOM     23  C   UNL     1       2.542  -1.939   1.093  0.00  0.00    +0.044 C 
ENDBRANCH  16  17
ENDBRANCH  15  16
ENDBRANCH   1  15
BRANCH   1  24
ATOM     24  C   UNL     1       1.237   2.220  -0.018  0.00  0.00    +0.147 C 
BRANCH  24  25
ATOM     25  C   UNL     1       1.647   2.510  -1.439  0.00  0.00    +0.035 A 
ATOM     26  C   UNL     1       1.313   3.695  -2.011  0.00  0.00    +0.020 A 
ATOM     27  C   UNL     1       1.726   3.947  -3.390  0.00  0.00    +0.003 A 
ATOM     28  C   UNL     1       1.411   5.152  -4.030  0.00  0.00    +0.059 A 
ATOM     29  C   UNL     1       1.814   5.361  -5.331  0.00  0.00    +0.167 A 
ATOM     30  C   UNL     1       2.537   4.374  -6.013  0.00  0.00    +0.168 A 
ATOM     31  C   UNL     1       2.852   3.181  -5.388  0.00  0.00    +0.075 A 
ATOM     32  C   UNL     1       2.453   2.955  -4.077  0.00  0.00    +0.053 A 
ATOM     33  N   UNL     1       2.761   1.771  -3.438  0.00  0.00    -0.322 N 
ATOM     34  H   UNL     1       3.273   1.066  -3.928  0.00  0.00    +0.169 HD
ATOM     35  C   UNL     1       2.381   1.552  -2.167  0.00  0.00    +0.254 A 
ATOM     36  O   UNL     1       2.675   0.497  -1.633  0.00  0.00    -0.268 OA
ATOM     37  O   UNL     1       2.810   4.828  -7.270  0.00  0.00    -0.453 OA
ATOM     38  C   UNL     1       2.611   6.253  -7.217  0.00  0.00    +0.466 C 
ATOM     39  O   UNL     1       1.641   6.427  -6.167  0.00  0.00    -0.453 OA
ENDBRANCH  24  25
ENDBRANCH   1  24
TORSDOF 13
