REMARK  Name = ZINC65169715
REMARK  4 active torsions:
REMARK  status: ('A' for Active; 'I' for Inactive)
REMARK    1  A    between atoms: C_12  and  S_13
REMARK    2  A    between atoms: S_13  and  C_14
REMARK    3  A    between atoms: C_14  and  C_15
REMARK    4  A    between atoms: C_15  and  O_21
REMARK                            x       y       z     vdW  Elec       q    Type
REMARK                         _______ _______ _______ _____ _____    ______ ____
ROOT
ATOM      1  C   UNL     1      -0.017   1.371   0.010  0.00  0.00    +0.002 A 
ATOM      2  C   UNL     1       1.157   2.105   0.002  0.00  0.00    +0.001 A 
ATOM      3  C   UNL     1       2.370   1.438  -0.013  0.00  0.00    +0.017 A 
ATOM      4  C   UNL     1       2.386   0.062  -0.021  0.00  0.00    +0.040 A 
ATOM      5  C   UNL     1       1.218  -0.706  -0.013  0.00  0.00    +0.065 A 
ATOM      6  C   UNL     1       0.002  -0.004   0.002  0.00  0.00    +0.027 A 
ATOM      7  N   UNL     1       1.377  -2.101  -0.022  0.00  0.00    -0.264 N 
ATOM      8  C   UNL     1       2.651  -2.604  -0.036  0.00  0.00    +0.202 A 
ATOM      9  S   UNL     1       3.680  -1.155  -0.039  0.00  0.00    -0.048 S 
ATOM     10  N   UNL     1       2.615  -3.902  -0.043  0.00  0.00    -0.121 NA
ATOM     11  N   UNL     1       1.267  -4.288  -0.033  0.00  0.00    -0.121 NA
ATOM     12  C   UNL     1       0.537  -3.203  -0.020  0.00  0.00    +0.197 A 
ENDROOT
BRANCH  12  13
ATOM     13  S   UNL     1      -1.224  -3.152  -0.003  0.00  0.00    -0.083 S 
BRANCH  13  14
ATOM     14  C   UNL     1      -1.715  -4.898  -0.008  0.00  0.00    +0.112 C 
BRANCH  14  15
ATOM     15  C   UNL     1      -3.241  -5.000   0.006  0.00  0.00    +0.075 C 
ATOM     16  C   UNL     1      -3.793  -4.215   1.198  0.00  0.00    +0.035 C 
ATOM     17  C   UNL     1      -5.320  -4.316   1.212  0.00  0.00    +0.003 C 
ATOM     18  C   UNL     1      -5.732  -5.784   1.334  0.00  0.00    +0.000 C 
ATOM     19  C   UNL     1      -5.180  -6.569   0.142  0.00  0.00    +0.003 C 
ATOM     20  C   UNL     1      -3.654  -6.468   0.128  0.00  0.00    +0.035 C 
BRANCH  15  21
ATOM     21  O   UNL     1      -3.766  -4.456  -1.206  0.00  0.00    -0.388 OA
ATOM     22  H   UNL     1      -3.543  -3.526  -1.349  0.00  0.00    +0.210 HD
ENDBRANCH  15  21
ENDBRANCH  14  15
ENDBRANCH  13  14
ENDBRANCH  12  13
TORSDOF 4
