REMARK  Name = ZINC58646564
REMARK  7 active torsions:
REMARK  status: ('A' for Active; 'I' for Inactive)
REMARK    1  A    between atoms: C_1  and  C_2
REMARK    2  A    between atoms: C_2  and  C_3
REMARK    3  A    between atoms: C_3  and  C_5
REMARK    4  A    between atoms: C_3  and  C_6
REMARK    5  A    between atoms: C_11  and  O_12
REMARK    6  A    between atoms: O_12  and  S_13
REMARK    7  A    between atoms: S_13  and  C_16
REMARK                            x       y       z     vdW  Elec       q    Type
REMARK                         _______ _______ _______ _____ _____    ______ ____
ROOT
ATOM      1  S   UNL     1      -1.909  -1.504   3.214  0.00  0.00    +0.151 S 
ATOM      2  O   UNL     1      -2.216  -0.569   4.239  0.00  0.00    -0.131 OA
ATOM      3  O   UNL     1      -2.078  -1.205   1.835  0.00  0.00    -0.131 OA
ENDROOT
BRANCH   1   4
ATOM      4  C   UNL     1      -2.874  -2.942   3.539  0.00  0.00    +0.129 A 
ATOM      5  C   UNL     1      -3.179  -3.814   2.506  0.00  0.00    +0.032 A 
ATOM      6  C   UNL     1      -3.933  -4.947   2.740  0.00  0.00    +0.028 A 
ATOM      7  C   UNL     1      -4.390  -5.216   4.022  0.00  0.00    +0.056 A 
ATOM      8  C   UNL     1      -4.082  -4.332   5.070  0.00  0.00    +0.065 A 
ATOM      9  C   UNL     1      -3.316  -3.196   4.821  0.00  0.00    +0.046 A 
ATOM     10  C   UNL     1      -4.583  -4.648   6.419  0.00  0.00    +0.262 A 
ATOM     11  O   UNL     1      -4.345  -3.917   7.361  0.00  0.00    -0.267 OA
ATOM     12  N   UNL     1      -5.315  -5.772   6.583  0.00  0.00    -0.275 N 
ATOM     13  H   UNL     1      -5.653  -5.995   7.464  0.00  0.00    +0.173 HD
ATOM     14  C   UNL     1      -5.583  -6.585   5.550  0.00  0.00    +0.327 A 
ATOM     15  O   UNL     1      -6.247  -7.583   5.752  0.00  0.00    -0.247 OA
ATOM     16  N   UNL     1      -5.150  -6.343   4.300  0.00  0.00    -0.307 N 
ATOM     17  H   UNL     1      -5.371  -6.962   3.587  0.00  0.00    +0.170 HD
ENDBRANCH   1   4
BRANCH   1  18
ATOM     18  O   UNL     1      -0.449  -1.889   3.400  0.00  0.00    -0.342 OA
BRANCH  18  24
ATOM     19  C   UNL     1       0.657  -2.014   1.298  0.00  0.00    -0.000 A 
ATOM     20  C   UNL     1       1.178  -2.776   0.269  0.00  0.00    +0.007 A 
ATOM     21  C   UNL     1       1.100  -4.155   0.320  0.00  0.00    +0.001 A 
ATOM     22  C   UNL     1       0.500  -4.776   1.400  0.00  0.00    +0.004 A 
ATOM     23  C   UNL     1      -0.023  -4.020   2.431  0.00  0.00    +0.049 A 
ATOM     24  C   UNL     1       0.059  -2.636   2.385  0.00  0.00    +0.160 A 
BRANCH  19  25
ATOM     25  C   UNL     1       0.742  -0.511   1.242  0.00  0.00    +0.019 C 
ATOM     26  C   UNL     1       2.210  -0.086   1.169  0.00  0.00    +0.012 C 
BRANCH  25  28
ATOM     27  C   UNL     1      -0.019   1.526   0.010  0.00  0.00    +0.004 C 
ATOM     28  C   UNL     1       0.002  -0.004   0.002  0.00  0.00    +0.004 C 
ENDBRANCH  25  28
ENDBRANCH  19  25
ENDBRANCH  18  24
ENDBRANCH   1  18
TORSDOF 5
