REMARK  Name = ZINC40476272
REMARK  9 active torsions:
REMARK  status: ('A' for Active; 'I' for Inactive)
REMARK    1  A    between atoms: C_1  and  C_2
REMARK    2  A    between atoms: C_2  and  O_3
REMARK    3  A    between atoms: O_3  and  C_4
REMARK    4  A    between atoms: C_9  and  C_10
REMARK    5  A    between atoms: C_17  and  S_30
REMARK    6  A    between atoms: C_26  and  C_28
REMARK    7  A    between atoms: C_26  and  C_29
REMARK    8  A    between atoms: S_30  and  C_31
REMARK    9  A    between atoms: C_31  and  C_32
REMARK                            x       y       z     vdW  Elec       q    Type
REMARK                         _______ _______ _______ _____ _____    ______ ____
ROOT
ATOM      1  C   UNL     1       1.990  -1.397  -3.491  0.00  0.00    +0.096 C 
ATOM      2  C   UNL     1       3.469  -1.625  -3.587  0.00  0.00    +0.069 A 
ATOM      3  C   UNL     1       4.329  -1.114  -2.609  0.00  0.00    +0.258 A 
ATOM      4  O   UNL     1       3.889  -0.474  -1.667  0.00  0.00    -0.267 OA
ATOM      5  N   UNL     1       5.654  -1.341  -2.726  0.00  0.00    -0.302 N 
ATOM      6  H   UNL     1       6.266  -0.994  -2.057  0.00  0.00    +0.171 HD
ATOM      7  C   UNL     1       6.135  -2.058  -3.780  0.00  0.00    +0.171 A 
ATOM      8  N   UNL     1       5.330  -2.540  -4.705  0.00  0.00    -0.208 NA
ATOM      9  C   UNL     1       4.008  -2.344  -4.640  0.00  0.00    +0.135 A 
ATOM     10  N   UNL     1       3.177  -2.852  -5.619  0.00  0.00    -0.302 N 
ATOM     11  C   UNL     1       1.914  -2.353  -5.790  0.00  0.00    +0.017 C 
ATOM     12  C   UNL     1       1.310  -1.649  -4.813  0.00  0.00    +0.024 C 
ATOM     13  C   UNL     1       0.018  -1.122  -4.996  0.00  0.00    +0.162 C 
ATOM     14  O   UNL     1      -0.503  -0.496  -4.095  0.00  0.00    -0.292 OA
ATOM     15  C   UNL     1      -0.731  -1.319  -6.285  0.00  0.00    +0.086 C 
ATOM     16  C   UNL     1       0.277  -1.463  -7.431  0.00  0.00    -0.023 C 
ATOM     17  C   UNL     1       1.216  -2.620  -7.102  0.00  0.00    +0.058 C 
ATOM     18  C   UNL     1       1.081  -0.170  -7.575  0.00  0.00    +0.011 C 
ATOM     19  C   UNL     1      -0.466  -1.757  -8.736  0.00  0.00    +0.011 C 
ATOM     20  H   UNL     1       3.491  -3.570  -6.191  0.00  0.00    +0.153 HD
ENDROOT
BRANCH   1  26
ATOM     21  C   UNL     1       0.777  -1.810  -1.336  0.00  0.00    +0.125 A 
ATOM     22  C   UNL     1       0.243  -2.669  -0.386  0.00  0.00    +0.046 A 
ATOM     23  C   UNL     1       0.351  -4.036  -0.554  0.00  0.00    +0.004 A 
ATOM     24  C   UNL     1       0.991  -4.548  -1.667  0.00  0.00    +0.001 A 
ATOM     25  C   UNL     1       1.525  -3.695  -2.615  0.00  0.00    +0.008 A 
ATOM     26  C   UNL     1       1.414  -2.327  -2.455  0.00  0.00    +0.006 A 
BRANCH  21  27
ATOM     27  O   UNL     1       0.671  -0.465  -1.174  0.00  0.00    -0.492 OA
BRANCH  27  29
ATOM     28  C   UNL     1      -0.019   1.526   0.010  0.00  0.00    +0.048 C 
ATOM     29  C   UNL     1       0.002  -0.004   0.002  0.00  0.00    +0.225 C 
ENDBRANCH  27  29
ENDBRANCH  21  27
ENDBRANCH   1  26
BRANCH   7  30
ATOM     30  S   UNL     1       7.868  -2.344  -3.910  0.00  0.00    -0.083 S 
BRANCH  30  31
ATOM     31  C   UNL     1       8.039  -3.317  -5.432  0.00  0.00    +0.112 C 
BRANCH  31  32
ATOM     32  C   UNL     1       9.494  -3.634  -5.664  0.00  0.00    -0.037 A 
ATOM     33  C   UNL     1      10.282  -2.767  -6.398  0.00  0.00    +0.007 A 
ATOM     34  C   UNL     1      11.616  -3.057  -6.611  0.00  0.00    +0.038 A 
ATOM     35  C   UNL     1      12.164  -4.216  -6.090  0.00  0.00    +0.123 A 
ATOM     36  C   UNL     1      11.374  -5.085  -5.355  0.00  0.00    +0.038 A 
ATOM     37  C   UNL     1      10.041  -4.790  -5.139  0.00  0.00    +0.007 A 
ATOM     38  F   UNL     1      13.468  -4.501  -6.298  0.00  0.00    -0.205 F 
ENDBRANCH  31  32
ENDBRANCH  30  31
ENDBRANCH   7  30
TORSDOF 6
