REMARK  Name = ZINC36557273
REMARK  12 active torsions:
REMARK  status: ('A' for Active; 'I' for Inactive)
REMARK    1  A    between atoms: C_1  and  C_2
REMARK    2  A    between atoms: C_2  and  O_4
REMARK    3  A    between atoms: O_4  and  C_5
REMARK    4  A    between atoms: C_8  and  C_13
REMARK    5  A    between atoms: C_10  and  O_11
REMARK    6  A    between atoms: O_11  and  C_12
REMARK    7  A    between atoms: C_24  and  N_29
REMARK    8  A    between atoms: C_30  and  C_32
REMARK    9  A    between atoms: C_35  and  C_38
REMARK   10  A    between atoms: C_38  and  C_39
REMARK   11  A    between atoms: C_38  and  C_40
REMARK   12  A    between atoms: C_38  and  C_41
REMARK                            x       y       z     vdW  Elec       q    Type
REMARK                         _______ _______ _______ _____ _____    ______ ____
ROOT
ATOM      1  C   UNL     1       0.166  -6.365  -0.665  0.00  0.00    +0.105 C 
ATOM      2  C   UNL     1      -1.216  -6.980  -0.534  0.00  0.00    +0.029 C 
ATOM      3  C   UNL     1      -2.108  -6.969  -1.783  0.00  0.00    +0.033 C 
ATOM      4  C   UNL     1      -2.967  -8.215  -1.558  0.00  0.00    -0.030 C 
ATOM      5  C   UNL     1      -2.318  -9.081  -0.789  0.00  0.00    -0.023 C 
ATOM      6  C   UNL     1      -0.980  -8.517  -0.434  0.00  0.00    +0.049 C 
ATOM      7  C   UNL     1      -0.308  -8.789   0.855  0.00  0.00    -0.018 A 
ATOM      8  C   UNL     1      -0.554  -9.928   1.590  0.00  0.00    +0.029 A 
ATOM      9  C   UNL     1       0.112 -10.144   2.789  0.00  0.00    +0.034 A 
ATOM     10  C   UNL     1       1.032  -9.209   3.247  0.00  0.00    +0.025 A 
ATOM     11  C   UNL     1       1.277  -8.066   2.516  0.00  0.00    +0.025 A 
ATOM     12  C   UNL     1       0.609  -7.838   1.319  0.00  0.00    +0.031 A 
ATOM     13  N   UNL     1       0.854  -6.650   0.613  0.00  0.00    -0.336 N 
ATOM     14  H   UNL     1       1.484  -6.004   0.969  0.00  0.00    +0.147 HD
ENDROOT
BRANCH   1  18
ATOM     15  C   UNL     1      -0.146  -2.142  -1.260  0.00  0.00    +0.173 A 
ATOM     16  C   UNL     1      -0.305  -2.680   0.007  0.00  0.00    +0.050 A 
ATOM     17  C   UNL     1      -0.204  -4.045   0.196  0.00  0.00    +0.009 A 
ATOM     18  C   UNL     1       0.056  -4.877  -0.877  0.00  0.00    -0.023 A 
ATOM     19  C   UNL     1       0.216  -4.348  -2.144  0.00  0.00    +0.055 A 
ATOM     20  C   UNL     1       0.110  -2.980  -2.341  0.00  0.00    +0.163 A 
BRANCH  20  21
ATOM     21  O   UNL     1       0.262  -2.458  -3.588  0.00  0.00    -0.491 OA
ATOM     22  C   UNL     1       0.523  -3.378  -4.649  0.00  0.00    +0.277 C 
ENDBRANCH  20  21
BRANCH  15  23
ATOM     23  O   UNL     1      -0.246  -0.799  -1.448  0.00  0.00    -0.422 OA
BRANCH  23  25
ATOM     24  C   UNL     1      -1.621   1.185  -1.970  0.00  0.00    +0.136 C 
ATOM     25  C   UNL     1      -1.427  -0.305  -1.854  0.00  0.00    +0.309 C 
ATOM     26  O   UNL     1      -2.335  -1.056  -2.125  0.00  0.00    -0.251 OA
ENDBRANCH  23  25
ENDBRANCH  15  23
ENDBRANCH   1  18
BRANCH   9  27
ATOM     27  N   UNL     1      -0.142 -11.303   3.534  0.00  0.00    -0.281 N 
ATOM     28  C   UNL     1       0.848 -11.877   4.245  0.00  0.00    +0.248 C 
ATOM     29  O   UNL     1       1.982 -11.445   4.168  0.00  0.00    -0.270 OA
ATOM     30  H   UNL     1      -1.031 -11.691   3.539  0.00  0.00    +0.155 HD
BRANCH  28  31
ATOM     31  C   UNL     1       0.556 -13.033   5.119  0.00  0.00    +0.037 A 
ATOM     32  C   UNL     1      -0.744 -13.535   5.206  0.00  0.00    +0.013 A 
ATOM     33  C   UNL     1      -1.010 -14.614   6.024  0.00  0.00    +0.005 A 
ATOM     34  C   UNL     1       0.008 -15.198   6.757  0.00  0.00    -0.042 A 
ATOM     35  C   UNL     1       1.298 -14.705   6.675  0.00  0.00    +0.005 A 
ATOM     36  C   UNL     1       1.579 -13.631   5.857  0.00  0.00    +0.013 A 
BRANCH  34  37
ATOM     37  C   UNL     1      -0.290 -16.376   7.649  0.00  0.00    -0.013 C 
ATOM     38  C   UNL     1      -0.848 -17.525   6.806  0.00  0.00    +0.015 C 
ATOM     39  C   UNL     1       0.996 -16.829   8.342  0.00  0.00    +0.015 C 
ATOM     40  C   UNL     1      -1.322 -15.969   8.703  0.00  0.00    +0.015 C 
ENDBRANCH  34  37
ENDBRANCH  28  31
ENDBRANCH   9  27
TORSDOF 7
