REMARK  Name = ZINC21600792
REMARK  6 active torsions:
REMARK  status: ('A' for Active; 'I' for Inactive)
REMARK    1  A    between atoms: N_12  and  C_16
REMARK    2  A    between atoms: C_16  and  C_17
REMARK    3  A    between atoms: N_19  and  C_20
REMARK    4  A    between atoms: C_25  and  C_26
REMARK    5  A    between atoms: N_28  and  C_29
REMARK    6  A    between atoms: C_29  and  C_30
REMARK                            x       y       z     vdW  Elec       q    Type
REMARK                         _______ _______ _______ _____ _____    ______ ____
ROOT
ATOM      1  C   UNL     1       1.012  -0.068   6.114  0.00  0.00    +0.235 C 
ATOM      2  O   UNL     1       0.357   0.153   7.111  0.00  0.00    -0.274 OA
ATOM      3  N   UNL     1       0.623   0.436   4.926  0.00  0.00    -0.284 N 
ATOM      4  H   UNL     1       1.169   0.170   4.010  0.00  0.00    +0.155 HD
ENDROOT
BRANCH   3   5
ATOM      5  C   UNL     1      -0.472   1.295   4.859  0.00  0.00    +0.046 A 
ATOM      6  C   UNL     1      -1.620   1.020   5.590  0.00  0.00    +0.024 A 
ATOM      7  C   UNL     1      -2.704   1.872   5.522  0.00  0.00    +0.002 A 
ATOM      8  C   UNL     1      -2.655   3.006   4.728  0.00  0.00    +0.001 A 
ATOM      9  C   UNL     1      -1.522   3.298   4.000  0.00  0.00    +0.015 A 
ATOM     10  C   UNL     1      -0.420   2.442   4.054  0.00  0.00    +0.058 A 
BRANCH  10  11
ATOM     11  C   UNL     1       0.795   2.746   3.273  0.00  0.00    +0.246 C 
ATOM     12  O   UNL     1       1.756   2.003   3.331  0.00  0.00    -0.270 OA
ATOM     13  N   UNL     1       0.839   3.846   2.496  0.00  0.00    -0.309 N 
ATOM     14  H   UNL     1      -0.031   4.518   2.444  0.00  0.00    +0.149 HD
BRANCH  13  15
ATOM     15  C   UNL     1       2.045   4.148   1.721  0.00  0.00    +0.136 C 
BRANCH  15  16
ATOM     16  C   UNL     1       1.833   5.441   0.931  0.00  0.00    +0.135 C 
ATOM     17  C   UNL     1       3.043   5.713   0.010  0.00  0.00    +0.035 C 
ATOM     18  C   UNL     1       3.213   7.248   0.057  0.00  0.00    +0.031 C 
ATOM     19  C   UNL     1       2.086   7.722   1.001  0.00  0.00    +0.160 C 
ATOM     20  O   UNL     1       1.788   6.574   1.826  0.00  0.00    -0.375 OA
ENDBRANCH  15  16
ENDBRANCH  13  15
ENDBRANCH  10  11
ENDBRANCH   3   5
BRANCH   1  21
ATOM     21  C   UNL     1       2.260  -0.908   6.203  0.00  0.00    +0.214 C 
BRANCH  21  33
ATOM     22  C   UNL     1       1.740   0.554  13.266  0.00  0.00    +0.000 A 
ATOM     23  C   UNL     1       1.023   0.788  12.107  0.00  0.00    +0.000 A 
ATOM     24  C   UNL     1       1.399   0.177  10.928  0.00  0.00    +0.006 A 
ATOM     25  C   UNL     1       2.494  -0.671  10.899  0.00  0.00    -0.012 A 
ATOM     26  C   UNL     1       3.210  -0.907  12.060  0.00  0.00    -0.042 A 
ATOM     27  C   UNL     1       2.831  -0.292  13.241  0.00  0.00    +0.004 A 
ATOM     28  C   UNL     1       4.347  -1.867  11.775  0.00  0.00    +0.038 C 
ATOM     29  C   UNL     1       4.511  -1.857  10.238  0.00  0.00    +0.045 C 
ATOM     30  C   UNL     1       3.109  -1.449   9.767  0.00  0.00    +0.138 C 
ATOM     31  C   UNL     1       3.179  -0.636   8.501  0.00  0.00    +0.251 C 
ATOM     32  O   UNL     1       3.753   0.419   8.335  0.00  0.00    -0.272 OA
ATOM     33  N   UNL     1       2.465  -1.333   7.590  0.00  0.00    -0.215 N 
ATOM     34  C   UNL     1       1.971  -2.463   8.113  0.00  0.00    +0.310 C 
ATOM     35  O   UNL     1       1.298  -3.259   7.487  0.00  0.00    -0.252 OA
ATOM     36  N   UNL     1       2.304  -2.618   9.410  0.00  0.00    -0.281 N 
ATOM     37  H   UNL     1       2.096  -3.393  10.163  0.00  0.00    +0.152 HD
ENDBRANCH  21  33
ENDBRANCH   1  21
TORSDOF 6
