REMARK  Name = ZINC04331576
REMARK  2 active torsions:
REMARK  status: ('A' for Active; 'I' for Inactive)
REMARK    1  A    between atoms: C_3  and  N_22
REMARK    2  A    between atoms: C_4  and  C_8
REMARK                            x       y       z     vdW  Elec       q    Type
REMARK                         _______ _______ _______ _____ _____    ______ ____
ROOT
ATOM      1  C   UNL     1       3.706  -0.661  -0.124  0.00  0.00    +0.252 C 
ATOM      2  O   UNL     1       4.744  -0.034  -0.042  0.00  0.00    -0.270 OA
ATOM      3  N   UNL     1       3.737  -2.001  -0.271  0.00  0.00    -0.261 N 
ATOM      4  C   UNL     1       4.953  -2.663  -0.329  0.00  0.00    +0.166 A 
ATOM      5  N   UNL     1       6.165  -2.166  -0.253  0.00  0.00    -0.222 NA
ATOM      6  C   UNL     1       7.272  -2.938  -0.325  0.00  0.00    +0.116 A 
ATOM      7  C   UNL     1       8.627  -2.531  -0.257  0.00  0.00    +0.152 A 
ATOM      8  C   UNL     1       9.640  -3.451  -0.348  0.00  0.00    +0.079 A 
ATOM      9  C   UNL     1       9.377  -4.806  -0.508  0.00  0.00    +0.127 A 
ATOM     10  C   UNL     1       8.063  -5.237  -0.577  0.00  0.00    +0.055 A 
ATOM     11  C   UNL     1       7.043  -4.322  -0.487  0.00  0.00    +0.046 A 
ATOM     12  S   UNL     1       5.269  -4.411  -0.517  0.00  0.00    -0.052 S 
ATOM     13  F   UNL     1      10.392  -5.693  -0.595  0.00  0.00    -0.205 F 
ATOM     14  F   UNL     1       8.924  -1.222  -0.102  0.00  0.00    -0.203 F 
ATOM     15  H   UNL     1       2.909  -2.501  -0.337  0.00  0.00    +0.157 HD
ENDROOT
BRANCH   1  19
ATOM     16  C   UNL     1      -0.021   1.370   0.053  0.00  0.00    +0.022 A 
ATOM     17  C   UNL     1       0.900   1.529   1.074  0.00  0.00    +0.035 A 
ATOM     18  C   UNL     1       2.112   0.872   1.022  0.00  0.00    +0.138 A 
ATOM     19  C   UNL     1       2.409   0.045  -0.063  0.00  0.00    +0.069 A 
ATOM     20  C   UNL     1       1.476  -0.112  -1.089  0.00  0.00    +0.035 A 
ATOM     21  C   UNL     1       0.267   0.552  -1.026  0.00  0.00    +0.042 A 
ATOM     22 CL   UNL     1      -0.895   0.358  -2.301  0.00  0.00    -0.084 Cl
BRANCH  18  23
ATOM     23  N   UNL     1       3.095   1.044   2.115  0.00  0.00    +0.057 N 
ATOM     24  O   UNL     1       2.889   1.850   2.992  0.00  0.00    -0.126 OA
ATOM     25  O   UNL     1       4.105   0.380   2.129  0.00  0.00    -0.126 OA
ENDBRANCH  18  23
ENDBRANCH   1  19
TORSDOF 2
