REMARK  Name = ZINC63375503
REMARK  9 active torsions:
REMARK  status: ('A' for Active; 'I' for Inactive)
REMARK    1  A    between atoms: C_1  and  C_2
REMARK    2  A    between atoms: C_2  and  C_3
REMARK    3  A    between atoms: C_3  and  C_4
REMARK    4  A    between atoms: C_4  and  N_5
REMARK    5  A    between atoms: C_6  and  C_8
REMARK    6  A    between atoms: C_13  and  N_14
REMARK    7  A    between atoms: C_30  and  C_35
REMARK    8  A    between atoms: C_38  and  O_41
REMARK    9  A    between atoms: O_41  and  C_42
REMARK                            x       y       z     vdW  Elec       q    Type
REMARK                         _______ _______ _______ _____ _____    ______ ____
ROOT
ATOM      1  N   UNL     1       2.085  -6.919  -3.413  0.00  0.00    -0.192 N 
ATOM      2  C   UNL     1       0.824  -7.396  -3.468  0.00  0.00    +0.248 C 
ATOM      3  O   UNL     1      -0.002  -7.184  -4.330  0.00  0.00    -0.273 OA
ATOM      4  C   UNL     1       0.656  -8.252  -2.231  0.00  0.00    +0.169 C 
ATOM      5  C   UNL     1      -0.508  -7.718  -1.377  0.00  0.00    +0.065 C 
ATOM      6  C   UNL     1      -0.250  -8.188   0.035  0.00  0.00    -0.034 C 
ATOM      7  C   UNL     1      -1.021  -8.874   0.873  0.00  0.00    -0.001 A 
ATOM      8  C   UNL     1      -2.417  -9.329   0.768  0.00  0.00    +0.010 A 
ATOM      9  C   UNL     1      -2.897 -10.038   1.824  0.00  0.00    +0.001 A 
ATOM     10  C   UNL     1      -2.137 -10.334   2.960  0.00  0.00    +0.002 A 
ATOM     11  C   UNL     1      -0.849  -9.949   3.144  0.00  0.00    +0.026 A 
ATOM     12  C   UNL     1      -0.236  -9.191   2.104  0.00  0.00    +0.043 A 
ATOM     13  N   UNL     1       0.958  -8.684   2.025  0.00  0.00    -0.375 N 
ATOM     14  C   UNL     1       1.062  -7.940   0.768  0.00  0.00    +0.131 C 
ATOM     15  C   UNL     1       2.183  -8.493  -0.123  0.00  0.00    +0.135 C 
ATOM     16  N   UNL     1       1.922  -8.042  -1.500  0.00  0.00    -0.264 N 
ATOM     17  C   UNL     1       2.718  -7.323  -2.302  0.00  0.00    +0.317 C 
ATOM     18  O   UNL     1       3.878  -7.063  -2.051  0.00  0.00    -0.252 OA
ATOM     19  H   UNL     1       1.661  -8.781   2.687  0.00  0.00    +0.160 HD
ENDROOT
BRANCH   1  25
ATOM     20  C   UNL     1       2.558  -4.715  -4.307  0.00  0.00    +0.059 A 
ATOM     21  C   UNL     1       3.143  -3.917  -5.292  0.00  0.00    +0.015 A 
ATOM     22  C   UNL     1       3.813  -4.503  -6.344  0.00  0.00    +0.001 A 
ATOM     23  C   UNL     1       3.908  -5.883  -6.431  0.00  0.00    +0.002 A 
ATOM     24  C   UNL     1       3.334  -6.684  -5.464  0.00  0.00    +0.025 A 
ATOM     25  C   UNL     1       2.661  -6.110  -4.394  0.00  0.00    +0.058 A 
BRANCH  20  27
ATOM     26  N   UNL     1       1.743  -2.751  -3.097  0.00  0.00    -0.311 N 
ATOM     27  C   UNL     1       1.840  -4.093  -3.177  0.00  0.00    +0.246 C 
ATOM     28  O   UNL     1       1.336  -4.792  -2.319  0.00  0.00    -0.270 OA
ATOM     29  H   UNL     1       2.145  -2.194  -3.782  0.00  0.00    +0.149 HD
BRANCH  26  30
ATOM     30  C   UNL     1       1.031  -2.134  -1.976  0.00  0.00    +0.104 C 
BRANCH  30  31
ATOM     31  C   UNL     1       1.068  -0.612  -2.124  0.00  0.00    +0.018 C 
BRANCH  31  33
ATOM     32  C   UNL     1       0.361   1.555  -1.101  0.00  0.00    +0.004 C 
ATOM     33  C   UNL     1       0.324   0.033  -0.953  0.00  0.00    -0.002 C 
ENDBRANCH  31  33
ENDBRANCH  30  31
ENDBRANCH  26  30
ENDBRANCH  20  27
ENDBRANCH   1  25
BRANCH  15  34
ATOM     34  C   UNL     1       3.518  -7.973   0.346  0.00  0.00    -0.024 A 
ATOM     35  C   UNL     1       3.745  -6.611   0.407  0.00  0.00    +0.009 A 
ATOM     36  C   UNL     1       4.967  -6.131   0.837  0.00  0.00    +0.046 A 
ATOM     37  C   UNL     1       5.967  -7.019   1.208  0.00  0.00    +0.120 A 
ATOM     38  C   UNL     1       5.736  -8.385   1.147  0.00  0.00    +0.046 A 
ATOM     39  C   UNL     1       4.510  -8.859   0.722  0.00  0.00    +0.009 A 
BRANCH  37  40
ATOM     40  O   UNL     1       7.170  -6.550   1.631  0.00  0.00    -0.495 OA
ATOM     41  C   UNL     1       8.153  -7.521   1.998  0.00  0.00    +0.277 C 
ENDBRANCH  37  40
ENDBRANCH  15  34
TORSDOF 7
