REMARK  Name = ZINC39594576
REMARK  7 active torsions:
REMARK  status: ('A' for Active; 'I' for Inactive)
REMARK    1  A    between atoms: C_3  and  C_7
REMARK    2  A    between atoms: C_7  and  C_9
REMARK    3  A    between atoms: C_7  and  N_34
REMARK    4  A    between atoms: C_9  and  N_10
REMARK    5  A    between atoms: C_11  and  C_13
REMARK    6  A    between atoms: C_24  and  C_26
REMARK    7  A    between atoms: C_26  and  C_27
REMARK                            x       y       z     vdW  Elec       q    Type
REMARK                         _______ _______ _______ _____ _____    ______ ____
ROOT
ATOM      1  C   UNL     1       7.713   3.394   2.451  0.00  0.00    +0.100 C 
ATOM      2  C   UNL     1       7.755   4.795   1.802  0.00  0.00    +0.121 C 
ATOM      3  N   UNL     1       7.554   5.736   2.928  0.00  0.00    -0.300 N 
ATOM      4  C   UNL     1       8.332   5.147   4.044  0.00  0.00    +0.115 C 
ATOM      5  C   UNL     1       8.096   3.629   3.922  0.00  0.00    -0.004 C 
ATOM      6  C   UNL     1       6.955   3.198   4.840  0.00  0.00    -0.010 C 
ATOM      7  C   UNL     1       7.381   3.388   6.298  0.00  0.00    -0.082 C 
ATOM      8  N   UNL     1       8.582   2.588   6.568  0.00  0.00    +0.379 N 
ATOM      9  C   UNL     1       9.699   3.070   5.747  0.00  0.00    -0.082 C 
ATOM     10  C   UNL     1       9.372   2.866   4.265  0.00  0.00    -0.010 C 
ATOM     11  C   UNL     1       6.828   6.872   2.937  0.00  0.00    +0.220 C 
ATOM     12  O   UNL     1       6.760   7.541   3.946  0.00  0.00    -0.275 OA
ATOM     13  H   UNL     1       8.825   2.667   7.544  0.00  0.00    -0.086 HD
ATOM     14  H   UNL     1       8.396   1.621   6.347  0.00  0.00    -0.086 HD
ENDROOT
BRANCH   1  16
ATOM     15  N   UNL     1       6.158   1.477   2.287  0.00  0.00    -0.316 N 
ATOM     16  C   UNL     1       6.326   2.813   2.356  0.00  0.00    +0.218 C 
ATOM     17  O   UNL     1       5.361   3.547   2.341  0.00  0.00    -0.275 OA
ATOM     18  H   UNL     1       6.930   0.890   2.299  0.00  0.00    +0.149 HD
BRANCH  15  19
ATOM     19  C   UNL     1       4.809   0.912   2.194  0.00  0.00    +0.093 C 
BRANCH  19  20
ATOM     20  C   UNL     1       4.903  -0.602   2.000  0.00  0.00    -0.019 C 
BRANCH  20  23
ATOM     21  C   UNL     1       7.431  -1.506  -0.652  0.00  0.00    +0.020 A 
ATOM     22  C   UNL     1       6.885  -1.241   0.595  0.00  0.00    +0.005 A 
ATOM     23  C   UNL     1       5.543  -0.899   0.668  0.00  0.00    -0.041 A 
ATOM     24  C   UNL     1       4.800  -0.835  -0.495  0.00  0.00    +0.112 A 
ATOM     25  N   UNL     1       5.353  -1.094  -1.664  0.00  0.00    -0.263 NA
ATOM     26  C   UNL     1       6.626  -1.422  -1.771  0.00  0.00    +0.111 A 
ENDBRANCH  20  23
BRANCH  20  27
ATOM     27  N   UNL     1       3.555  -1.185   2.036  0.00  0.00    +0.385 N 
ATOM     28  C   UNL     1       3.628  -2.657   1.853  0.00  0.00    -0.078 C 
ATOM     29  C   UNL     1       2.294  -3.157   2.462  0.00  0.00    -0.020 C 
ATOM     30  C   UNL     1       2.098  -2.223   3.678  0.00  0.00    -0.020 C 
ATOM     31  C   UNL     1       2.944  -0.974   3.366  0.00  0.00    -0.078 C 
ATOM     32  H   UNL     1       2.978  -0.772   1.319  0.00  0.00    -0.081 HD
ENDBRANCH  20  27
ENDBRANCH  19  20
ENDBRANCH  15  19
ENDBRANCH   1  16
BRANCH  11  33
ATOM     33  C   UNL     1       6.100   7.309   1.692  0.00  0.00    +0.131 C 
BRANCH  33  34
ATOM     34  C   UNL     1       5.369   8.599   1.964  0.00  0.00    -0.039 A 
ATOM     35  C   UNL     1       4.072   8.571   2.441  0.00  0.00    +0.005 A 
ATOM     36  C   UNL     1       3.401   9.753   2.691  0.00  0.00    +0.020 A 
ATOM     37  C   UNL     1       4.029  10.965   2.465  0.00  0.00    +0.041 A 
ATOM     38  C   UNL     1       5.327  10.993   1.988  0.00  0.00    +0.020 A 
ATOM     39  C   UNL     1       5.999   9.810   1.744  0.00  0.00    +0.005 A 
ATOM     40 CL   UNL     1       3.187  12.450   2.779  0.00  0.00    -0.084 Cl
ENDBRANCH  33  34
ENDBRANCH  11  33
TORSDOF 7
