REMARK  Name = ZINC39634857
REMARK  11 active torsions:
REMARK  status: ('A' for Active; 'I' for Inactive)
REMARK    1  A    between atoms: C_1  and  C_2
REMARK    2  A    between atoms: C_2  and  C_3
REMARK    3  A    between atoms: C_2  and  N_4
REMARK    4  A    between atoms: N_4  and  C_5
REMARK    5  A    between atoms: N_4  and  C_32
REMARK    6  A    between atoms: C_5  and  C_6
REMARK    7  A    between atoms: C_6  and  N_7
REMARK    8  A    between atoms: C_8  and  C_10
REMARK    9  A    between atoms: C_21  and  C_23
REMARK   10  A    between atoms: C_32  and  C_33
REMARK   11  A    between atoms: C_32  and  C_34
REMARK                            x       y       z     vdW  Elec       q    Type
REMARK                         _______ _______ _______ _____ _____    ______ ____
ROOT
ATOM      1  C   UNL     1      -4.121   1.532  -5.235  0.00  0.00    +0.100 C 
ATOM      2  C   UNL     1      -3.111   2.647  -5.584  0.00  0.00    +0.121 C 
ATOM      3  N   UNL     1      -3.864   3.909  -5.393  0.00  0.00    -0.296 N 
ATOM      4  C   UNL     1      -4.683   3.669  -4.181  0.00  0.00    +0.115 C 
ATOM      5  C   UNL     1      -5.151   2.207  -4.314  0.00  0.00    -0.004 C 
ATOM      6  C   UNL     1      -6.540   2.152  -4.944  0.00  0.00    -0.010 C 
ATOM      7  C   UNL     1      -7.555   2.778  -3.984  0.00  0.00    -0.082 C 
ATOM      8  N   UNL     1      -7.545   2.046  -2.712  0.00  0.00    +0.379 N 
ATOM      9  C   UNL     1      -6.232   2.181  -2.067  0.00  0.00    -0.082 C 
ATOM     10  C   UNL     1      -5.161   1.530  -2.946  0.00  0.00    -0.010 C 
ATOM     11  C   UNL     1      -3.816   5.022  -6.151  0.00  0.00    +0.248 C 
ATOM     12  O   UNL     1      -4.420   6.021  -5.804  0.00  0.00    -0.270 OA
ATOM     13  H   UNL     1      -8.257   2.422  -2.103  0.00  0.00    -0.086 HD
ATOM     14  H   UNL     1      -7.734   1.071  -2.885  0.00  0.00    -0.086 HD
ENDROOT
BRANCH  11  15
ATOM     15  C   UNL     1      -3.036   5.031  -7.395  0.00  0.00    +0.052 A 
ATOM     16  C   UNL     1      -1.844   4.385  -7.478  0.00  0.00    +0.059 A 
ATOM     17  S   UNL     1      -1.304   4.647  -9.044  0.00  0.00    -0.096 S 
ATOM     18  C   UNL     1      -2.635   5.631  -9.675  0.00  0.00    +0.020 A 
ATOM     19  C   UNL     1      -3.522   5.732  -8.586  0.00  0.00    +0.001 A 
ATOM     20  C   UNL     1      -4.705   6.468  -8.784  0.00  0.00    +0.010 A 
ATOM     21  C   UNL     1      -4.966   7.050  -9.999  0.00  0.00    +0.001 A 
ATOM     22  C   UNL     1      -4.078   6.932 -11.058  0.00  0.00    +0.001 A 
ATOM     23  C   UNL     1      -2.904   6.225 -10.890  0.00  0.00    +0.015 A 
ENDBRANCH  11  15
BRANCH   1  25
ATOM     24  N   UNL     1      -3.893  -0.856  -4.632  0.00  0.00    -0.317 N 
ATOM     25  C   UNL     1      -3.430   0.404  -4.513  0.00  0.00    +0.218 C 
ATOM     26  O   UNL     1      -2.458   0.631  -3.825  0.00  0.00    -0.275 OA
ATOM     27  H   UNL     1      -4.670  -1.037  -5.183  0.00  0.00    +0.149 HD
BRANCH  24  28
ATOM     28  C   UNL     1      -3.220  -1.952  -3.930  0.00  0.00    +0.085 C 
BRANCH  28  29
ATOM     29  C   UNL     1      -3.940  -3.268  -4.231  0.00  0.00    -0.059 C 
BRANCH  29  30
ATOM     30  N   UNL     1      -3.312  -4.356  -3.468  0.00  0.00    +0.384 N 
ATOM     31  H   UNL     1      -2.321  -4.371  -3.658  0.00  0.00    -0.081 HD
BRANCH  30  33
ATOM     32  C   UNL     1      -3.655  -5.878  -5.356  0.00  0.00    -0.014 C 
ATOM     33  C   UNL     1      -3.907  -5.639  -3.865  0.00  0.00    -0.074 C 
ATOM     34  C   UNL     1      -3.271  -6.769  -3.053  0.00  0.00    -0.014 C 
ENDBRANCH  30  33
BRANCH  30  35
ATOM     35  C   UNL     1      -3.533  -4.137  -2.033  0.00  0.00    -0.074 C 
ATOM     36  C   UNL     1      -4.911  -4.675  -1.641  0.00  0.00    -0.014 C 
ATOM     37  C   UNL     1      -2.454  -4.869  -1.233  0.00  0.00    -0.014 C 
ENDBRANCH  30  35
ENDBRANCH  29  30
ENDBRANCH  28  29
ENDBRANCH  24  28
ENDBRANCH   1  25
TORSDOF 7
