REMARK  Name = ZINC05860248
REMARK  12 active torsions:
REMARK  status: ('A' for Active; 'I' for Inactive)
REMARK    1  A    between atoms: C_1  and  C_2
REMARK    2  A    between atoms: C_5  and  C_30
REMARK    3  A    between atoms: C_6  and  O_8
REMARK    4  A    between atoms: O_8  and  C_9
REMARK    5  A    between atoms: C_9  and  C_10
REMARK    6  A    between atoms: N_12  and  N_13
REMARK    7  A    between atoms: C_14  and  C_16
REMARK    8  A    between atoms: C_19  and  O_22
REMARK    9  A    between atoms: O_22  and  C_23
REMARK   10  A    between atoms: C_23  and  C_24
REMARK   11  A    between atoms: C_30  and  C_31
REMARK   12  A    between atoms: C_30  and  C_32
REMARK                            x       y       z     vdW  Elec       q    Type
REMARK                         _______ _______ _______ _____ _____    ______ ____
ROOT
ATOM      1  N   UNL     1       8.029   3.548   0.765  0.00  0.00    -0.230 N 
ATOM      2  C   UNL     1       7.495   2.666   1.634  0.00  0.00    +0.260 C 
ATOM      3  O   UNL     1       8.174   2.216   2.538  0.00  0.00    -0.269 OA
ATOM      4  H   UNL     1       7.487   3.906   0.045  0.00  0.00    +0.173 HD
ENDROOT
BRANCH   2   5
ATOM      5  C   UNL     1       6.088   2.246   1.489  0.00  0.00    +0.038 A 
ATOM      6  C   UNL     1       5.533   1.331   2.388  0.00  0.00    +0.016 A 
ATOM      7  C   UNL     1       4.220   0.942   2.249  0.00  0.00    +0.046 A 
ATOM      8  C   UNL     1       3.446   1.456   1.216  0.00  0.00    +0.121 A 
ATOM      9  C   UNL     1       3.996   2.362   0.316  0.00  0.00    +0.046 A 
ATOM     10  C   UNL     1       5.307   2.761   0.451  0.00  0.00    +0.016 A 
BRANCH   8  11
ATOM     11  O   UNL     1       2.152   1.069   1.081  0.00  0.00    -0.489 OA
BRANCH  11  12
ATOM     12  C   UNL     1       1.415   1.637  -0.003  0.00  0.00    +0.260 C 
BRANCH  12  13
ATOM     13  C   UNL     1      -0.013   1.086   0.008  0.00  0.00    +0.156 C 
ATOM     14  C   UNL     1      -0.804   1.620  -1.206  0.00  0.00    +0.037 C 
ATOM     15  C   UNL     1      -2.230   1.847  -0.655  0.00  0.00    +0.031 C 
ATOM     16  C   UNL     1      -2.131   1.423   0.827  0.00  0.00    +0.160 C 
ATOM     17  O   UNL     1      -0.731   1.573   1.163  0.00  0.00    -0.373 OA
ENDBRANCH  12  13
ENDBRANCH  11  12
ENDBRANCH   8  11
ENDBRANCH   2   5
BRANCH   1  20
ATOM     18  C   UNL     1       9.898   4.828   0.035  0.00  0.00    +0.267 C 
ATOM     19  O   UNL     1       9.221   5.277  -0.866  0.00  0.00    -0.271 OA
ATOM     20  N   UNL     1       9.364   3.946   0.903  0.00  0.00    -0.231 N 
ATOM     21  H   UNL     1       9.906   3.588   1.624  0.00  0.00    +0.173 HD
BRANCH  18  22
ATOM     22  C   UNL     1      11.335   5.257   0.183  0.00  0.00    +0.326 C 
BRANCH  22  23
ATOM     23  O   UNL     1      11.662   6.190  -0.849  0.00  0.00    -0.482 OA
BRANCH  23  29
ATOM     24  C   UNL     1      16.117   6.324   1.140  0.00  0.00    +0.044 C 
ATOM     25  C   UNL     1      15.129   6.768   0.093  0.00  0.00    -0.047 A 
ATOM     26  C   UNL     1      15.512   7.673  -0.880  0.00  0.00    +0.004 A 
ATOM     27  C   UNL     1      14.607   8.083  -1.841  0.00  0.00    +0.008 A 
ATOM     28  C   UNL     1      13.317   7.587  -1.833  0.00  0.00    -0.003 A 
ATOM     29  C   UNL     1      12.931   6.678  -0.859  0.00  0.00    +0.125 A 
ATOM     30  C   UNL     1      13.839   6.274   0.108  0.00  0.00    +0.049 A 
BRANCH  28  31
ATOM     31  C   UNL     1      12.331   8.033  -2.882  0.00  0.00    +0.016 C 
ATOM     32  C   UNL     1      12.145   9.549  -2.795  0.00  0.00    +0.012 C 
ATOM     33  C   UNL     1      12.860   7.664  -4.269  0.00  0.00    +0.012 C 
ENDBRANCH  28  31
ENDBRANCH  23  29
ENDBRANCH  22  23
ENDBRANCH  18  22
ENDBRANCH   1  20
TORSDOF 9
