REMARK  Name = ZINC10521901
REMARK  11 active torsions:
REMARK  status: ('A' for Active; 'I' for Inactive)
REMARK    1  A    between atoms: C_1  and  C_2
REMARK    2  A    between atoms: C_2  and  C_3
REMARK    3  A    between atoms: C_7  and  C_27
REMARK    4  A    between atoms: C_8  and  N_9
REMARK    5  A    between atoms: C_10  and  C_12
REMARK    6  A    between atoms: C_12  and  S_13
REMARK    7  A    between atoms: S_13  and  C_14
REMARK    8  A    between atoms: C_17  and  C_20
REMARK    9  A    between atoms: N_18  and  N_19
REMARK   10  A    between atoms: C_23  and  C_26
REMARK   11  A    between atoms: C_27  and  C_28
REMARK                            x       y       z     vdW  Elec       q    Type
REMARK                         _______ _______ _______ _____ _____    ______ ____
ROOT
ATOM      1  C   UNL     1      -0.854  -4.734   2.167  0.00  0.00    +0.173 C 
ENDROOT
BRANCH   1   3
ATOM      2  N   UNL     1      -0.952  -2.296   1.756  0.00  0.00    -0.284 N 
ATOM      3  C   UNL     1      -1.526  -3.391   2.293  0.00  0.00    +0.228 C 
ATOM      4  O   UNL     1      -2.585  -3.296   2.877  0.00  0.00    -0.275 OA
ATOM      5  H   UNL     1      -0.085  -2.365   1.327  0.00  0.00    +0.155 HD
BRANCH   2  11
ATOM      6  C   UNL     1      -0.978   0.030   2.403  0.00  0.00    -0.026 A 
ATOM      7  C   UNL     1      -1.628   1.248   2.467  0.00  0.00    +0.007 A 
ATOM      8  C   UNL     1      -2.899   1.383   1.941  0.00  0.00    +0.020 A 
ATOM      9  C   UNL     1      -3.529   0.297   1.358  0.00  0.00    +0.046 A 
ATOM     10  C   UNL     1      -2.885  -0.925   1.295  0.00  0.00    -0.008 A 
ATOM     11  C   UNL     1      -1.606  -1.061   1.818  0.00  0.00    +0.041 A 
ATOM     12 CL   UNL     1      -5.128   0.469   0.705  0.00  0.00    -0.083 Cl
BRANCH   6  14
ATOM     13  C   UNL     1       1.441   0.075   1.857  0.00  0.00    +0.009 C 
ATOM     14  C   UNL     1       0.410  -0.114   2.972  0.00  0.00    +0.033 C 
ENDBRANCH   6  14
BRANCH  10  15
ATOM     15  C   UNL     1      -3.571  -2.107   0.661  0.00  0.00    +0.035 C 
ATOM     16  C   UNL     1      -4.575  -2.705   1.649  0.00  0.00    +0.009 C 
ENDBRANCH  10  15
ENDBRANCH   2  11
ENDBRANCH   1   3
BRANCH   1  17
ATOM     17  S   UNL     1      -1.864  -5.994   2.984  0.00  0.00    -0.075 S 
BRANCH  17  18
ATOM     18  C   UNL     1      -0.871  -7.420   2.692  0.00  0.00    +0.209 A 
ATOM     19  N   UNL     1       0.271  -7.454   2.042  0.00  0.00    -0.121 NA
ATOM     20  N   UNL     1       0.729  -8.655   2.018  0.00  0.00    -0.127 NA
ATOM     21  C   UNL     1      -0.096  -9.462   2.642  0.00  0.00    +0.182 A 
ATOM     22  N   UNL     1      -1.147  -8.695   3.093  0.00  0.00    -0.224 N 
BRANCH  21  23
ATOM     23  C   UNL     1       0.070 -10.919   2.826  0.00  0.00    +0.021 A 
ATOM     24  C   UNL     1       1.301 -11.523   2.562  0.00  0.00    +0.012 A 
ATOM     25  C   UNL     1       1.451 -12.882   2.741  0.00  0.00    +0.004 A 
ATOM     26  C   UNL     1       0.382 -13.649   3.170  0.00  0.00    -0.050 A 
ATOM     27  C   UNL     1      -0.842 -13.058   3.428  0.00  0.00    +0.004 A 
ATOM     28  C   UNL     1      -1.004 -11.698   3.259  0.00  0.00    +0.012 A 
ATOM     29  C   UNL     1       0.552 -15.135   3.357  0.00  0.00    +0.044 C 
ENDBRANCH  21  23
BRANCH  22  30
ATOM     30  N   UNL     1      -2.237  -9.122   3.796  0.00  0.00    -0.295 N 
ATOM     31  H   UNL     1      -2.945  -9.488   3.178  0.00  0.00    +0.163 HD
ATOM     32  H   UNL     1      -1.975  -9.805   4.491  0.00  0.00    +0.163 HD
ENDBRANCH  22  30
ENDBRANCH  17  18
ENDBRANCH   1  17
TORSDOF 8
