REMARK  Name = ZINC19864326
REMARK  6 active torsions:
REMARK  status: ('A' for Active; 'I' for Inactive)
REMARK    1  A    between atoms: C_10  and  C_13
REMARK    2  A    between atoms: N_14  and  N_15
REMARK    3  A    between atoms: C_16  and  C_18
REMARK    4  A    between atoms: C_18  and  O_19
REMARK    5  A    between atoms: O_19  and  C_20
REMARK    6  A    between atoms: C_21  and  C_28
REMARK                            x       y       z     vdW  Elec       q    Type
REMARK                         _______ _______ _______ _____ _____    ______ ____
ROOT
ATOM      1  N   UNL     1      -2.349   0.993   0.019  0.00  0.00    -0.204 N 
ATOM      2  C   UNL     1      -3.525   1.651   0.028  0.00  0.00    +0.270 C 
ATOM      3  O   UNL     1      -3.542   2.864   0.034  0.00  0.00    -0.270 OA
ATOM      4  H   UNL     1      -2.334  -0.107   0.013  0.00  0.00    +0.177 HD
ENDROOT
BRANCH   1   6
ATOM      5  C   UNL     1      -0.013   1.076   0.008  0.00  0.00    +0.145 C 
ATOM      6  N   UNL     1      -1.146   1.710   0.017  0.00  0.00    -0.187 NA
BRANCH   5  16
ATOM      7  C   UNL     1       5.066   5.155  -0.017  0.00  0.00    +0.023 A 
ATOM      8  C   UNL     1       4.971   3.780  -0.024  0.00  0.00    +0.048 A 
ATOM      9  C   UNL     1       3.722   3.169  -0.015  0.00  0.00    +0.138 A 
ATOM     10  C   UNL     1       2.568   3.970  -0.001  0.00  0.00    +0.066 A 
ATOM     11  C   UNL     1       2.676   5.360   0.005  0.00  0.00    +0.035 A 
ATOM     12  C   UNL     1       3.925   5.945  -0.002  0.00  0.00    +0.042 A 
ATOM     13 CL   UNL     1       4.070   7.675   0.007  0.00  0.00    -0.084 Cl
ATOM     14  C   UNL     1       1.251   3.304   0.008  0.00  0.00    +0.201 A 
ATOM     15  O   UNL     1       0.213   3.942   0.020  0.00  0.00    -0.286 OA
ATOM     16  C   UNL     1       1.253   1.830  -0.000  0.00  0.00    +0.077 A 
ATOM     17  C   UNL     1       2.451   1.179  -0.009  0.00  0.00    +0.209 A 
ATOM     18  O   UNL     1       3.618   1.825  -0.022  0.00  0.00    -0.462 OA
ENDBRANCH   5  16
ENDBRANCH   1   6
BRANCH   2  19
ATOM     19  C   UNL     1      -4.820   0.879   0.030  0.00  0.00    +0.326 C 
BRANCH  19  20
ATOM     20  O   UNL     1      -5.919   1.793   0.040  0.00  0.00    -0.481 OA
BRANCH  20  21
ATOM     21  C   UNL     1      -7.167   1.257   0.043  0.00  0.00    +0.150 A 
ATOM     22  C   UNL     1      -7.807   0.973   1.256  0.00  0.00    +0.064 A 
ATOM     23  C   UNL     1      -9.089   0.423   1.248  0.00  0.00    +0.035 A 
ATOM     24  C   UNL     1      -9.719   0.162   0.047  0.00  0.00    +0.043 A 
ATOM     25  C   UNL     1      -9.083   0.443  -1.150  0.00  0.00    +0.043 A 
ATOM     26  C   UNL     1      -7.814   0.994  -1.155  0.00  0.00    +0.085 A 
ATOM     27 CL   UNL     1      -7.029   1.351  -2.661  0.00  0.00    -0.080 Cl
ATOM     28 CL   UNL     1     -11.314  -0.523   0.038  0.00  0.00    -0.083 Cl
BRANCH  22  29
ATOM     29  C   UNL     1      -7.128   1.254   2.537  0.00  0.00    +0.171 A 
ATOM     30  C   UNL     1      -7.640   1.938   3.607  0.00  0.00    +0.072 A 
ATOM     31  C   UNL     1      -6.595   1.919   4.552  0.00  0.00    +0.157 A 
ATOM     32  N   UNL     1      -5.609   1.266   4.004  0.00  0.00    -0.086 NA
ATOM     33  O   UNL     1      -5.884   0.884   2.890  0.00  0.00    -0.355 OA
ENDBRANCH  22  29
ENDBRANCH  20  21
ENDBRANCH  19  20
ENDBRANCH   2  19
TORSDOF 6
