REMARK  Name = ZINC13735621
REMARK  9 active torsions:
REMARK  status: ('A' for Active; 'I' for Inactive)
REMARK    1  A    between atoms: C_1  and  C_2
REMARK    2  A    between atoms: C_6  and  O_29
REMARK    3  A    between atoms: C_12  and  C_13
REMARK    4  A    between atoms: C_13  and  C_14
REMARK    5  A    between atoms: C_14  and  C_15
REMARK    6  A    between atoms: N_17  and  C_18
REMARK    7  A    between atoms: C_23  and  C_24
REMARK    8  A    between atoms: C_24  and  O_26
REMARK    9  A    between atoms: O_26  and  C_27
REMARK                            x       y       z     vdW  Elec       q    Type
REMARK                         _______ _______ _______ _____ _____    ______ ____
ROOT
ATOM      1  C   UNL     1      -1.432   0.271   2.927  0.00  0.00    +0.101 C 
ENDROOT
BRANCH   1   2
ATOM      2  C   UNL     1      -1.425   0.977   4.258  0.00  0.00    +0.218 C 
ATOM      3  O   UNL     1      -0.371   1.269   4.784  0.00  0.00    -0.275 OA
ATOM      4  N   UNL     1      -2.588   1.285   4.865  0.00  0.00    -0.285 N 
ATOM      5  H   UNL     1      -3.430   1.110   4.416  0.00  0.00    +0.155 HD
BRANCH   4   6
ATOM      6  C   UNL     1      -2.582   1.853   6.136  0.00  0.00    +0.049 A 
ATOM      7  C   UNL     1      -1.579   2.743   6.497  0.00  0.00    +0.044 A 
ATOM      8  C   UNL     1      -1.577   3.309   7.758  0.00  0.00    +0.043 A 
ATOM      9  C   UNL     1      -2.569   2.986   8.674  0.00  0.00    +0.021 A 
ATOM     10  C   UNL     1      -3.568   2.102   8.334  0.00  0.00    +0.018 A 
ATOM     11  C   UNL     1      -3.586   1.525   7.061  0.00  0.00    +0.080 A 
ATOM     12 CL   UNL     1      -0.324   4.425   8.200  0.00  0.00    -0.083 Cl
BRANCH  11  13
ATOM     13  C   UNL     1      -4.652   0.578   6.691  0.00  0.00    +0.341 C 
ATOM     14  O   UNL     1      -4.612   0.005   5.621  0.00  0.00    -0.245 OA
BRANCH  13  15
ATOM     15  O   UNL     1      -5.673   0.349   7.540  0.00  0.00    -0.464 OA
ATOM     16  C   UNL     1      -6.688  -0.596   7.110  0.00  0.00    +0.280 C 
ENDBRANCH  13  15
ENDBRANCH  11  13
ENDBRANCH   4   6
ENDBRANCH   1   2
BRANCH   1  17
ATOM     17  C   UNL     1       0.007   0.043   2.463  0.00  0.00    +0.052 C 
BRANCH  17  29
ATOM     18  C   UNL     1      -0.028   1.562   0.007  0.00  0.00    +0.045 C 
ATOM     19  C   UNL     1      -0.017   0.056  -0.021  0.00  0.00    -0.030 A 
ATOM     20  C   UNL     1      -0.030  -0.673  -1.291  0.00  0.00    +0.021 A 
ATOM     21  C   UNL     1      -0.042   0.009  -2.513  0.00  0.00    +0.015 A 
ATOM     22  C   UNL     1      -0.048  -0.694  -3.683  0.00  0.00    +0.046 A 
ATOM     23  C   UNL     1      -0.037  -2.088  -3.668  0.00  0.00    +0.120 A 
ATOM     24  C   UNL     1      -0.021  -2.779  -2.468  0.00  0.00    +0.092 A 
ATOM     25  C   UNL     1      -0.014  -2.080  -1.270  0.00  0.00    +0.143 A 
ATOM     26  O   UNL     1       0.002  -2.734  -0.089  0.00  0.00    -0.422 OA
ATOM     27  C   UNL     1       0.009  -2.072   1.079  0.00  0.00    +0.341 A 
ATOM     28  O   UNL     1       0.023  -2.705   2.119  0.00  0.00    -0.245 OA
ATOM     29  C   UNL     1      -0.000  -0.663   1.131  0.00  0.00    +0.041 A 
BRANCH  23  30
ATOM     30  O   UNL     1      -0.043  -2.773  -4.840  0.00  0.00    -0.507 OA
ATOM     31  H   UNL     1      -0.929  -2.978  -5.171  0.00  0.00    +0.292 HD
ENDBRANCH  23  30
ENDBRANCH  17  29
ENDBRANCH   1  17
TORSDOF 7
