REMARK  Name = ZINC02253254
REMARK  6 active torsions:
REMARK  status: ('A' for Active; 'I' for Inactive)
REMARK    1  A    between atoms: C_9  and  C_22
REMARK    2  A    between atoms: C_10  and  N_21
REMARK    3  A    between atoms: N_11  and  N_14
REMARK    4  A    between atoms: C_15  and  C_16
REMARK    5  A    between atoms: N_24  and  C_25
REMARK    6  A    between atoms: C_25  and  C_26
REMARK                            x       y       z     vdW  Elec       q    Type
REMARK                         _______ _______ _______ _____ _____    ______ ____
ROOT
ATOM      1  C   UNL     1       3.912  10.033   5.184  0.00  0.00    +0.002 A 
ATOM      2  C   UNL     1       3.474   8.779   5.607  0.00  0.00    +0.002 A 
ATOM      3  C   UNL     1       3.125   7.820   4.708  0.00  0.00    +0.030 A 
ATOM      4  C   UNL     1       3.204   8.090   3.330  0.00  0.00    +0.092 A 
ATOM      5  C   UNL     1       3.650   9.365   2.900  0.00  0.00    +0.090 A 
ATOM      6  C   UNL     1       4.003  10.331   3.860  0.00  0.00    +0.030 A 
ATOM      7  N   UNL     1       3.734   9.648   1.594  0.00  0.00    -0.241 NA
ATOM      8  C   UNL     1       3.400   8.731   0.708  0.00  0.00    +0.124 A 
ATOM      9  C   UNL     1       3.366   8.684  -0.763  0.00  0.00    +0.105 A 
ATOM     10  C   UNL     1       2.918   7.413  -1.107  0.00  0.00    +0.134 A 
ATOM     11  N   UNL     1       2.666   6.678   0.012  0.00  0.00    -0.198 N 
ATOM     12  C   UNL     1       2.939   7.412   1.150  0.00  0.00    +0.183 A 
ATOM     13  N   UNL     1       2.862   7.152   2.438  0.00  0.00    -0.224 NA
ENDROOT
BRANCH   9  14
ATOM     14  C   UNL     1       3.725   9.727  -1.654  0.00  0.00    +0.250 C 
ATOM     15  O   UNL     1       4.874   9.824  -2.048  0.00  0.00    -0.270 OA
ATOM     16  N   UNL     1       2.796  10.613  -2.065  0.00  0.00    -0.309 N 
ATOM     17  H   UNL     1       1.881  10.536  -1.751  0.00  0.00    +0.149 HD
BRANCH  16  18
ATOM     18  C   UNL     1       3.166  11.691  -2.985  0.00  0.00    +0.136 C 
BRANCH  18  19
ATOM     19  C   UNL     1       1.936  12.547  -3.290  0.00  0.00    +0.135 C 
ATOM     20  C   UNL     1       2.315  13.684  -4.258  0.00  0.00    +0.035 C 
ATOM     21  C   UNL     1       1.390  13.467  -5.480  0.00  0.00    +0.031 C 
ATOM     22  C   UNL     1       0.249  12.610  -4.875  0.00  0.00    +0.160 C 
ATOM     23  O   UNL     1       0.933  11.748  -3.941  0.00  0.00    -0.375 OA
ENDBRANCH  18  19
ENDBRANCH  16  18
ENDBRANCH   9  14
BRANCH  10  24
ATOM     24  N   UNL     1       2.751   6.963  -2.393  0.00  0.00    -0.342 N 
ATOM     25  H   UNL     1       2.431   6.062  -2.553  0.00  0.00    +0.144 HD
ATOM     26  H   UNL     1       2.953   7.546  -3.141  0.00  0.00    +0.144 HD
ENDBRANCH  10  24
BRANCH  11  27
ATOM     27  N   UNL     1       2.199   5.357   0.009  0.00  0.00    -0.171 NA
ATOM     28  C   UNL     1       0.920   5.120   0.021  0.00  0.00    +0.148 C 
BRANCH  28  29
ATOM     29  C   UNL     1       0.431   3.737   0.018  0.00  0.00    +0.032 A 
ATOM     30  C   UNL     1      -0.873   3.273   0.028  0.00  0.00    +0.017 A 
ATOM     31  C   UNL     1      -1.082   1.914   0.017  0.00  0.00    +0.008 A 
ATOM     32  C   UNL     1      -0.013   1.076   0.008  0.00  0.00    +0.046 A 
ATOM     33  S   UNL     1       1.362   2.214   0.001  0.00  0.00    -0.096 S 
ENDBRANCH  28  29
ENDBRANCH  11  27
TORSDOF 6
