REMARK  Name = ZINC61720857
REMARK  7 active torsions:
REMARK  status: ('A' for Active; 'I' for Inactive)
REMARK    1  A    between atoms: C_3  and  S_26
REMARK    2  A    between atoms: C_6  and  C_7
REMARK    3  A    between atoms: C_7  and  C_8
REMARK    4  A    between atoms: C_8  and  N_9
REMARK    5  A    between atoms: C_10  and  C_12
REMARK    6  A    between atoms: C_16  and  N_17
REMARK    7  A    between atoms: S_26  and  N_29
REMARK                            x       y       z     vdW  Elec       q    Type
REMARK                         _______ _______ _______ _____ _____    ______ ____
ROOT
ATOM      1  N   UNL     1      -3.004  -1.778  -1.420  0.00  0.00    -0.311 N 
ATOM      2  C   UNL     1      -3.594  -2.117  -2.584  0.00  0.00    +0.247 C 
ATOM      3  O   UNL     1      -3.082  -1.800  -3.641  0.00  0.00    -0.270 OA
ATOM      4  H   UNL     1      -3.412  -2.031  -0.578  0.00  0.00    +0.149 HD
ENDROOT
BRANCH   2   5
ATOM      5  C   UNL     1      -4.856  -2.868  -2.575  0.00  0.00    +0.073 A 
ATOM      6  C   UNL     1      -6.138  -2.190  -2.564  0.00  0.00    -0.023 A 
ATOM      7  C   UNL     1      -7.204  -3.023  -2.558  0.00  0.00    -0.004 A 
ATOM      8  S   UNL     1      -6.502  -4.646  -2.566  0.00  0.00    -0.073 S 
ATOM      9  C   UNL     1      -4.870  -4.252  -2.583  0.00  0.00    +0.119 A 
ATOM     10  C   UNL     1      -8.649  -2.633  -2.545  0.00  0.00    +0.043 C 
ATOM     11  C   UNL     1      -8.745  -1.149  -2.160  0.00  0.00    +0.005 C 
ATOM     12  C   UNL     1      -7.745  -0.353  -3.003  0.00  0.00    +0.005 C 
ATOM     13  C   UNL     1      -6.316  -0.679  -2.561  0.00  0.00    +0.037 C 
BRANCH   9  14
ATOM     14  N   UNL     1      -3.780  -5.119  -2.598  0.00  0.00    -0.193 N 
ATOM     15  C   UNL     1      -3.806  -6.471  -2.611  0.00  0.00    +0.251 A 
ATOM     16  N   UNL     1      -2.566  -6.883  -2.623  0.00  0.00    -0.116 NA
ATOM     17  N   UNL     1      -1.757  -5.885  -2.619  0.00  0.00    -0.023 NA
ATOM     18  N   UNL     1      -2.416  -4.777  -2.610  0.00  0.00    -0.039 NA
ENDBRANCH   9  14
ENDBRANCH   2   5
BRANCH   1  19
ATOM     19  C   UNL     1      -1.745  -1.028  -1.429  0.00  0.00    +0.109 C 
BRANCH  19  20
ATOM     20  C   UNL     1      -1.293  -0.775   0.011  0.00  0.00    +0.054 C 
BRANCH  20  26
ATOM     21  C   UNL     1      -0.017   1.378   0.010  0.00  0.00    +0.005 A 
ATOM     22  C   UNL     1       1.171   2.086   0.002  0.00  0.00    +0.029 A 
ATOM     23  C   UNL     1       2.377   1.411  -0.013  0.00  0.00    +0.105 A 
ATOM     24  C   UNL     1       2.396   0.029  -0.020  0.00  0.00    +0.029 A 
ATOM     25  C   UNL     1       1.208  -0.679  -0.012  0.00  0.00    +0.005 A 
ATOM     26  C   UNL     1       0.002  -0.004   0.002  0.00  0.00    -0.046 A 
BRANCH  23  27
ATOM     27  S   UNL     1       3.891   2.312  -0.024  0.00  0.00    +0.056 S 
ATOM     28  O   UNL     1       4.872   1.453  -0.588  0.00  0.00    -0.153 OA
ATOM     29  O   UNL     1       3.597   3.593  -0.566  0.00  0.00    -0.153 OA
BRANCH  27  30
ATOM     30  N   UNL     1       4.327   2.556   1.555  0.00  0.00    -0.204 NA
ATOM     31  H   UNL     1       3.768   2.215   2.271  0.00  0.00    +0.144 HD
ATOM     32  H   UNL     1       5.142   3.039   1.764  0.00  0.00    +0.144 HD
ENDBRANCH  27  30
ENDBRANCH  23  27
ENDBRANCH  20  26
ENDBRANCH  19  20
ENDBRANCH   1  19
TORSDOF 7
