REMARK  Name = ZINC66197544
REMARK  12 active torsions:
REMARK  status: ('A' for Active; 'I' for Inactive)
REMARK    1  A    between atoms: C_1  and  C_2
REMARK    2  A    between atoms: C_2  and  C_3
REMARK    3  A    between atoms: C_2  and  O_4
REMARK    4  A    between atoms: O_4  and  C_5
REMARK    5  A    between atoms: C_8  and  C_12
REMARK    6  A    between atoms: N_14  and  C_15
REMARK    7  A    between atoms: C_15  and  N_17
REMARK    8  A    between atoms: N_17  and  C_18
REMARK    9  A    between atoms: C_21  and  C_24
REMARK   10  A    between atoms: C_24  and  C_25
REMARK   11  A    between atoms: C_25  and  C_26
REMARK   12  A    between atoms: N_28  and  C_29
REMARK                            x       y       z     vdW  Elec       q    Type
REMARK                         _______ _______ _______ _____ _____    ______ ____
ROOT
ATOM      1  C   UNL     1      -3.842  -6.923  -3.429  0.00  0.00    +0.141 C 
ATOM      2  S   UNL     1      -2.524  -7.930  -3.852  0.00  0.00    -0.018 S 
ENDROOT
BRANCH   1   5
ATOM      3  C   UNL     1      -2.378  -5.459  -2.351  0.00  0.00    +0.250 C 
ATOM      4  O   UNL     1      -1.442  -6.174  -2.651  0.00  0.00    -0.270 OA
ATOM      5  N   UNL     1      -3.629  -5.794  -2.724  0.00  0.00    -0.264 N 
ATOM      6  H   UNL     1      -4.376  -5.223  -2.485  0.00  0.00    +0.157 HD
BRANCH   3  10
ATOM      7  C   UNL     1      -1.705  -1.903  -0.129  0.00  0.00    +0.135 A 
ATOM      8  C   UNL     1      -0.634  -2.721  -0.471  0.00  0.00    +0.047 A 
ATOM      9  C   UNL     1      -0.848  -3.874  -1.191  0.00  0.00    +0.017 A 
ATOM     10  C   UNL     1      -2.144  -4.224  -1.579  0.00  0.00    +0.038 A 
ATOM     11  C   UNL     1      -3.219  -3.400  -1.233  0.00  0.00    +0.032 A 
ATOM     12  C   UNL     1      -2.997  -2.250  -0.508  0.00  0.00    +0.060 A 
ATOM     13 BR   UNL     1      -4.450  -1.137  -0.034  0.00  0.00    -0.046 Br
BRANCH   7  14
ATOM     14  O   UNL     1      -1.489  -0.767   0.581  0.00  0.00    -0.488 OA
BRANCH  14  16
ATOM     15  C   UNL     1      -0.038   1.105   1.058  0.00  0.00    +0.051 C 
ATOM     16  C   UNL     1      -0.129  -0.404   0.828  0.00  0.00    +0.167 C 
ATOM     17  C   UNL     1       0.378  -1.141   2.069  0.00  0.00    +0.051 C 
ENDBRANCH  14  16
ENDBRANCH   7  14
ENDBRANCH   3  10
ENDBRANCH   1   5
BRANCH   1  18
ATOM     18  N   UNL     1      -5.093  -7.258  -3.802  0.00  0.00    -0.297 N 
ATOM     19  H   UNL     1      -5.829  -6.649  -3.635  0.00  0.00    +0.154 HD
BRANCH  18  20
ATOM     20  C   UNL     1      -5.331  -8.485  -4.431  0.00  0.00    +0.033 A 
ATOM     21  C   UNL     1      -4.690  -9.632  -3.982  0.00  0.00    +0.023 A 
ATOM     22  C   UNL     1      -4.927 -10.842  -4.605  0.00  0.00    +0.005 A 
ATOM     23  C   UNL     1      -5.800 -10.911  -5.675  0.00  0.00    -0.047 A 
ATOM     24  C   UNL     1      -6.440  -9.771  -6.124  0.00  0.00    +0.005 A 
ATOM     25  C   UNL     1      -6.212  -8.559  -5.502  0.00  0.00    +0.023 A 
BRANCH  23  26
ATOM     26  C   UNL     1      -6.056 -12.233  -6.352  0.00  0.00    +0.044 C 
BRANCH  26  27
ATOM     27  C   UNL     1      -7.234 -12.935  -5.673  0.00  0.00    +0.100 C 
BRANCH  27  28
ATOM     28  C   UNL     1      -7.490 -14.256  -6.351  0.00  0.00    +0.213 C 
ATOM     29  O   UNL     1      -6.798 -14.603  -7.284  0.00  0.00    -0.276 OA
ATOM     30  N   UNL     1      -8.487 -15.053  -5.919  0.00  0.00    -0.318 N 
ATOM     31  C   UNL     1      -8.736 -16.338  -6.577  0.00  0.00    +0.128 C 
ATOM     32  H   UNL     1      -9.041 -14.776  -5.172  0.00  0.00    +0.148 HD
ENDBRANCH  27  28
ENDBRANCH  26  27
ENDBRANCH  23  26
ENDBRANCH  18  20
ENDBRANCH   1  18
TORSDOF 9
