REMARK  Name = ZINC04249740
REMARK  10 active torsions:
REMARK  status: ('A' for Active; 'I' for Inactive)
REMARK    1  A    between atoms: C_1  and  C_2
REMARK    2  A    between atoms: C_2  and  N_3
REMARK    3  A    between atoms: N_3  and  C_4
REMARK    4  A    between atoms: C_4  and  C_5
REMARK    5  A    between atoms: C_6  and  C_8
REMARK    6  A    between atoms: C_8  and  O_9
REMARK    7  A    between atoms: O_9  and  C_10
REMARK    8  A    between atoms: C_10  and  C_12
REMARK    9  A    between atoms: C_12  and  C_13
REMARK   10  A    between atoms: C_13  and  C_14
REMARK                            x       y       z     vdW  Elec       q    Type
REMARK                         _______ _______ _______ _____ _____    ______ ____
ROOT
ATOM      1  C   UNL     1      -1.759   5.809  -4.178  0.00  0.00    +0.111 A 
ATOM      2  N   UNL     1      -1.651   4.504  -4.524  0.00  0.00    -0.310 N 
ATOM      3  H   UNL     1      -1.777   4.253  -5.484  0.00  0.00    +0.170 HD
ATOM      4  C   UNL     1      -1.382   3.522  -3.632  0.00  0.00    +0.260 A 
ATOM      5  O   UNL     1      -1.288   2.352  -3.962  0.00  0.00    -0.267 OA
ATOM      6  C   UNL     1      -1.213   3.947  -2.271  0.00  0.00    +0.075 A 
ATOM      7  C   UNL     1      -0.921   3.104  -1.126  0.00  0.00    -0.023 A 
ATOM      8  C   UNL     1      -0.803   3.725   0.071  0.00  0.00    -0.004 A 
ATOM      9  S   UNL     1      -1.074   5.446  -0.270  0.00  0.00    -0.073 S 
ATOM     10  C   UNL     1      -1.343   5.329  -2.010  0.00  0.00    +0.116 A 
ATOM     11  N   UNL     1      -1.610   6.237  -2.944  0.00  0.00    -0.227 NA
ATOM     12  C   UNL     1      -0.510   3.093   1.397  0.00  0.00    +0.043 C 
ATOM     13  C   UNL     1      -0.726   1.578   1.270  0.00  0.00    +0.005 C 
ATOM     14  C   UNL     1      -0.013   1.086   0.008  0.00  0.00    +0.005 C 
ATOM     15  C   UNL     1      -0.749   1.591  -1.233  0.00  0.00    +0.037 C 
ENDROOT
BRANCH   1  16
ATOM     16  C   UNL     1      -2.062   6.816  -5.257  0.00  0.00    +0.085 C 
BRANCH  16  17
ATOM     17  C   UNL     1      -2.136   8.216  -4.642  0.00  0.00    +0.128 C 
BRANCH  17  18
ATOM     18  C   UNL     1      -2.439   9.223  -5.721  0.00  0.00    +0.308 C 
ATOM     19  O   UNL     1      -2.581   8.860  -6.864  0.00  0.00    -0.251 OA
BRANCH  18  20
ATOM     20  O   UNL     1      -2.551  10.524  -5.412  0.00  0.00    -0.455 OA
BRANCH  20  21
ATOM     21  C   UNL     1      -2.844  11.438  -6.501  0.00  0.00    +0.327 C 
BRANCH  21  23
ATOM     22  N   UNL     1      -3.198  13.867  -6.804  0.00  0.00    -0.299 N 
ATOM     23  C   UNL     1      -2.933  12.845  -5.968  0.00  0.00    +0.253 C 
ATOM     24  O   UNL     1      -2.765  13.056  -4.785  0.00  0.00    -0.272 OA
BRANCH  22  26
ATOM     25  C   UNL     1      -4.883  13.346  -8.498  0.00  0.00    +0.024 C 
ATOM     26  C   UNL     1      -3.400  13.612  -8.232  0.00  0.00    +0.104 C 
ENDBRANCH  22  26
BRANCH  22  27
ATOM     27  C   UNL     1      -3.284  15.235  -6.285  0.00  0.00    +0.104 C 
ATOM     28  C   UNL     1      -1.901  15.888  -6.336  0.00  0.00    +0.024 C 
ENDBRANCH  22  27
ENDBRANCH  21  23
ENDBRANCH  20  21
ENDBRANCH  18  20
ENDBRANCH  17  18
ENDBRANCH  16  17
ENDBRANCH   1  16
TORSDOF 8
