REMARK  Name = ZINC19222124
REMARK  7 active torsions:
REMARK  status: ('A' for Active; 'I' for Inactive)
REMARK    1  A    between atoms: C_1  and  C_2
REMARK    2  A    between atoms: C_7  and  C_14
REMARK    3  A    between atoms: C_14  and  N_15
REMARK    4  A    between atoms: N_15  and  C_16
REMARK    5  A    between atoms: C_16  and  C_17
REMARK    6  A    between atoms: C_17  and  N_18
REMARK    7  A    between atoms: N_26  and  C_27
REMARK                            x       y       z     vdW  Elec       q    Type
REMARK                         _______ _______ _______ _____ _____    ______ ____
ROOT
ATOM      1  N   UNL     1      -2.345   0.934   0.018  0.00  0.00    -0.280 N 
ATOM      2  C   UNL     1      -1.187   1.624   0.017  0.00  0.00    +0.303 C 
ATOM      3  O   UNL     1      -1.204   2.840   0.023  0.00  0.00    -0.253 OA
ATOM      4  N   UNL     1      -0.011   0.966   0.007  0.00  0.00    -0.296 N 
ATOM      5  H   UNL     1       0.004  -0.134   0.006  0.00  0.00    +0.151 HD
ENDROOT
BRANCH   4   6
ATOM      6  C   UNL     1       1.248   1.716  -0.001  0.00  0.00    +0.074 C 
ATOM      7  C   UNL     1       1.608   2.092  -1.439  0.00  0.00    +0.022 C 
ATOM      8  C   UNL     1       2.922   2.875  -1.448  0.00  0.00    +0.002 C 
ATOM      9  C   UNL     1       4.035   2.010  -0.853  0.00  0.00    +0.000 C 
ATOM     10  C   UNL     1       3.675   1.633   0.585  0.00  0.00    +0.002 C 
ATOM     11  C   UNL     1       2.361   0.850   0.594  0.00  0.00    +0.022 C 
ENDBRANCH   4   6
BRANCH   1  12
ATOM     12  C   UNL     1      -3.624   1.649   0.028  0.00  0.00    +0.150 C 
BRANCH  12  19
ATOM     13  C   UNL     1      -6.509   2.167  -7.390  0.00  0.00    +0.044 C 
ATOM     14  C   UNL     1      -6.091   1.874  -5.972  0.00  0.00    -0.048 A 
ATOM     15  C   UNL     1      -6.585   0.747  -5.330  0.00  0.00    +0.004 A 
ATOM     16  C   UNL     1      -6.218   0.462  -4.045  0.00  0.00    +0.010 A 
ATOM     17  C   UNL     1      -5.338   1.315  -3.370  0.00  0.00    -0.001 A 
ATOM     18  C   UNL     1      -4.924   1.040  -1.992  0.00  0.00    +0.020 A 
ATOM     19  C   UNL     1      -4.069   1.902  -1.389  0.00  0.00    +0.035 A 
ATOM     20  C   UNL     1      -3.598   3.038  -2.082  0.00  0.00    +0.254 A 
ATOM     21  O   UNL     1      -2.834   3.803  -1.519  0.00  0.00    -0.268 OA
ATOM     22  N   UNL     1      -3.968   3.296  -3.349  0.00  0.00    -0.322 N 
ATOM     23  H   UNL     1      -3.578   4.185  -3.866  0.00  0.00    +0.169 HD
ATOM     24  C   UNL     1      -4.835   2.458  -4.018  0.00  0.00    +0.049 A 
ATOM     25  C   UNL     1      -5.222   2.728  -5.327  0.00  0.00    +0.029 A 
ENDBRANCH  12  19
ENDBRANCH   1  12
BRANCH   1  26
ATOM     26  C   UNL     1      -2.325  -0.531   0.010  0.00  0.00    +0.125 C 
BRANCH  26  27
ATOM     27  C   UNL     1      -2.312  -1.048   1.450  0.00  0.00    +0.103 C 
BRANCH  27  28
ATOM     28  N   UNL     1      -2.292  -2.517   1.442  0.00  0.00    -0.297 NA
ATOM     29  C   UNL     1      -3.544  -3.058   0.894  0.00  0.00    +0.112 C 
ATOM     30  C   UNL     1      -3.457  -4.586   0.849  0.00  0.00    +0.175 C 
ATOM     31  O   UNL     1      -3.181  -5.082   2.162  0.00  0.00    -0.377 OA
ATOM     32  C   UNL     1      -1.968  -4.576   2.725  0.00  0.00    +0.175 C 
ATOM     33  C   UNL     1      -2.040  -3.048   2.789  0.00  0.00    +0.112 C 
ENDBRANCH  27  28
ENDBRANCH  26  27
ENDBRANCH   1  26
TORSDOF 6
