REMARK  Name = ZINC04905677
REMARK  11 active torsions:
REMARK  status: ('A' for Active; 'I' for Inactive)
REMARK    1  A    between atoms: C_1  and  C_2
REMARK    2  A    between atoms: C_2  and  C_3
REMARK    3  A    between atoms: C_2  and  C_4
REMARK    4  A    between atoms: C_4  and  O_5
REMARK    5  A    between atoms: O_5  and  C_6
REMARK    6  A    between atoms: N_8  and  C_9
REMARK    7  A    between atoms: C_9  and  C_11
REMARK    8  A    between atoms: C_9  and  C_22
REMARK    9  A    between atoms: C_11  and  C_12
REMARK   10  A    between atoms: N_24  and  N_25
REMARK   11  A    between atoms: C_26  and  C_27
REMARK                            x       y       z     vdW  Elec       q    Type
REMARK                         _______ _______ _______ _____ _____    ______ ____
ROOT
ATOM      1  C   UNL     1       2.423   5.103   0.815  0.00  0.00    +0.168 C 
ENDROOT
BRANCH   1   4
ATOM      2  C   UNL     1       4.184   6.780   0.657  0.00  0.00    +0.401 C 
ATOM      3  O   UNL     1       3.351   7.575   0.270  0.00  0.00    -0.226 OA
ATOM      4  N   UNL     1       3.821   5.516   0.956  0.00  0.00    -0.269 N 
ATOM      5  H   UNL     1       4.486   4.881   1.266  0.00  0.00    +0.153 HD
BRANCH   2   6
ATOM      6  O   UNL     1       5.469   7.160   0.788  0.00  0.00    -0.450 OA
BRANCH   6   7
ATOM      7  C   UNL     1       5.787   8.535   0.448  0.00  0.00    +0.236 C 
BRANCH   7   9
ATOM      8  C   UNL     1       7.641  10.189   0.182  0.00  0.00    +0.010 C 
ATOM      9  C   UNL     1       7.283   8.779   0.657  0.00  0.00    +0.021 C 
ATOM     10  C   UNL     1       7.619   8.642   2.143  0.00  0.00    +0.010 C 
ENDBRANCH   7   9
ENDBRANCH   6   7
ENDBRANCH   2   6
ENDBRANCH   1   4
BRANCH   1  11
ATOM     11  C   UNL     1       2.360   3.612   0.600  0.00  0.00    +0.253 C 
ATOM     12  O   UNL     1       3.382   2.960   0.569  0.00  0.00    -0.272 OA
ATOM     13  N   UNL     1       1.167   3.004   0.443  0.00  0.00    -0.205 N 
ATOM     14  H   UNL     1       0.350   3.526   0.468  0.00  0.00    +0.177 HD
BRANCH  13  15
ATOM     15  N   UNL     1       1.108   1.619   0.244  0.00  0.00    -0.188 NA
ATOM     16  C   UNL     1      -0.026   1.050  -0.031  0.00  0.00    +0.138 C 
BRANCH  16  17
ATOM     17  C   UNL     1      -1.143   1.853  -0.563  0.00  0.00    -0.003 A 
ATOM     18  C   UNL     1      -2.457   1.369  -0.529  0.00  0.00    +0.029 A 
ATOM     19  C   UNL     1      -3.471   2.156  -1.034  0.00  0.00    +0.111 A 
ATOM     20  N   UNL     1      -3.216   3.342  -1.551  0.00  0.00    -0.263 NA
ATOM     21  C   UNL     1      -1.992   3.834  -1.608  0.00  0.00    +0.111 A 
ATOM     22  C   UNL     1      -0.918   3.118  -1.122  0.00  0.00    +0.029 A 
ENDBRANCH  16  17
ENDBRANCH  13  15
ENDBRANCH   1  11
BRANCH   1  23
ATOM     23  C   UNL     1       1.652   5.469   2.084  0.00  0.00    +0.069 C 
BRANCH  23  24
ATOM     24  C   UNL     1       1.611   6.968   2.232  0.00  0.00    -0.020 A 
ATOM     25  C   UNL     1       2.450   7.722   2.959  0.00  0.00    +0.087 A 
ATOM     26  N   UNL     1       2.105   9.041   2.852  0.00  0.00    -0.360 N 
ATOM     27  H   UNL     1       2.566   9.775   3.287  0.00  0.00    +0.165 HD
ATOM     28  C   UNL     1       1.001   9.171   2.039  0.00  0.00    +0.047 A 
ATOM     29  C   UNL     1       0.643   7.878   1.615  0.00  0.00    +0.003 A 
ATOM     30  C   UNL     1      -0.453   7.701   0.769  0.00  0.00    +0.010 A 
ATOM     31  C   UNL     1      -1.175   8.786   0.357  0.00  0.00    +0.001 A 
ATOM     32  C   UNL     1      -0.826  10.064   0.773  0.00  0.00    +0.002 A 
ATOM     33  C   UNL     1       0.253  10.261   1.607  0.00  0.00    +0.026 A 
ENDBRANCH  23  24
ENDBRANCH   1  23
TORSDOF 9
