REMARK  Name = ZINC32925005
REMARK  10 active torsions:
REMARK  status: ('A' for Active; 'I' for Inactive)
REMARK    1  A    between atoms: C_1  and  C_2
REMARK    2  A    between atoms: C_2  and  C_4
REMARK    3  A    between atoms: C_2  and  N_14
REMARK    4  A    between atoms: N_6  and  C_7
REMARK    5  A    between atoms: C_15  and  C_17
REMARK    6  A    between atoms: N_22  and  C_24
REMARK    7  A    between atoms: C_27  and  O_32
REMARK    8  A    between atoms: C_29  and  O_30
REMARK    9  A    between atoms: O_30  and  C_31
REMARK   10  A    between atoms: O_32  and  C_33
REMARK                            x       y       z     vdW  Elec       q    Type
REMARK                         _______ _______ _______ _____ _____    ______ ____
ROOT
ATOM      1  N   UNL     1      -1.190   1.865   0.015  0.00  0.00    -0.304 N 
ATOM      2  C   UNL     1      -0.013   1.208   0.000  0.00  0.00    +0.219 C 
ATOM      3  O   UNL     1       0.004  -0.004  -0.015  0.00  0.00    -0.275 OA
ATOM      4  H   UNL     1      -1.206   2.965   0.029  0.00  0.00    +0.149 HD
ENDROOT
BRANCH   2   5
ATOM      5  C   UNL     1       1.281   1.981  -0.005  0.00  0.00    +0.101 C 
ATOM      6  C   UNL     1       1.489   2.720   1.338  0.00  0.00    +0.110 C 
ATOM      7  C   UNL     1       2.312   1.759   2.166  0.00  0.00    +0.221 C 
ATOM      8  O   UNL     1       2.458   1.827   3.369  0.00  0.00    -0.275 OA
ATOM      9  N   UNL     1       2.859   0.819   1.377  0.00  0.00    -0.267 N 
ATOM     10  C   UNL     1       2.495   1.026  -0.030  0.00  0.00    +0.127 C 
BRANCH   9  11
ATOM     11  C   UNL     1       3.673  -0.227   1.838  0.00  0.00    +0.080 A 
ATOM     12  C   UNL     1       5.048  -0.056   1.911  0.00  0.00    +0.051 A 
ATOM     13  C   UNL     1       5.849  -1.084   2.370  0.00  0.00    +0.084 A 
ATOM     14  C   UNL     1       5.282  -2.293   2.749  0.00  0.00    +0.142 A 
ATOM     15  C   UNL     1       3.908  -2.470   2.672  0.00  0.00    +0.094 A 
ATOM     16  C   UNL     1       3.102  -1.439   2.217  0.00  0.00    +0.145 A 
ATOM     17 CL   UNL     1       7.569  -0.866   2.467  0.00  0.00    -0.080 Cl
BRANCH  16  18
ATOM     18  O   UNL     1       1.756  -1.611   2.141  0.00  0.00    -0.493 OA
ATOM     19  C   UNL     1       1.240  -2.880   2.547  0.00  0.00    +0.277 C 
ENDBRANCH  16  18
BRANCH  14  20
ATOM     20  O   UNL     1       6.073  -3.305   3.195  0.00  0.00    -0.494 OA
ATOM     21  C   UNL     1       5.422  -4.522   3.567  0.00  0.00    +0.277 C 
ENDBRANCH  14  20
ENDBRANCH   9  11
ENDBRANCH   2   5
BRANCH   1  23
ATOM     22  C   UNL     1      -2.812   0.727   1.448  0.00  0.00    +0.038 C 
ATOM     23  C   UNL     1      -2.448   1.114   0.014  0.00  0.00    +0.156 C 
BRANCH  23  24
ATOM     24  C   UNL     1      -3.543   1.970  -0.569  0.00  0.00    +0.237 C 
ATOM     25  O   UNL     1      -3.297   3.096  -0.946  0.00  0.00    -0.273 OA
ATOM     26  N   UNL     1      -4.796   1.484  -0.672  0.00  0.00    -0.284 N 
ATOM     27  H   UNL     1      -5.004   0.438  -0.401  0.00  0.00    +0.155 HD
BRANCH  26  28
ATOM     28  C   UNL     1      -5.832   2.309  -1.122  0.00  0.00    +0.034 A 
ATOM     29  C   UNL     1      -7.112   2.165  -0.603  0.00  0.00    +0.025 A 
ATOM     30  C   UNL     1      -8.132   2.984  -1.047  0.00  0.00    +0.022 A 
ATOM     31  C   UNL     1      -7.882   3.941  -2.014  0.00  0.00    +0.041 A 
ATOM     32  C   UNL     1      -6.608   4.084  -2.537  0.00  0.00    +0.022 A 
ATOM     33  C   UNL     1      -5.584   3.271  -2.093  0.00  0.00    +0.025 A 
ATOM     34 CL   UNL     1      -9.167   4.965  -2.573  0.00  0.00    -0.084 Cl
ENDBRANCH  26  28
ENDBRANCH  23  24
ENDBRANCH   1  23
TORSDOF 7
