REMARK  Name = ZINC39370830
REMARK  6 active torsions:
REMARK  status: ('A' for Active; 'I' for Inactive)
REMARK    1  A    between atoms: C_1  and  C_2
REMARK    2  A    between atoms: C_4  and  C_25
REMARK    3  A    between atoms: C_6  and  N_24
REMARK    4  A    between atoms: C_7  and  C_11
REMARK    5  A    between atoms: C_25  and  O_26
REMARK    6  A    between atoms: O_26  and  C_27
REMARK                            x       y       z     vdW  Elec       q    Type
REMARK                         _______ _______ _______ _____ _____    ______ ____
ROOT
ATOM      1  C   UNL     1       0.280   0.970  -1.028  0.00  0.00    +0.065 C 
ATOM      2  C   UNL     1       0.303  -0.524  -0.826  0.00  0.00    +0.040 A 
ATOM      3  C   UNL     1       0.419  -1.365  -1.922  0.00  0.00    +0.029 A 
ATOM      4  C   UNL     1       0.441  -2.730  -1.751  0.00  0.00    -0.009 A 
ATOM      5  C   UNL     1       0.344  -3.260  -0.439  0.00  0.00    +0.034 A 
ATOM      6  C   UNL     1       0.347  -4.653  -0.025  0.00  0.00    +0.054 A 
ATOM      7  C   UNL     1       0.238  -4.928   1.345  0.00  0.00    +0.097 A 
ATOM      8  S   UNL     1       0.132  -3.308   2.080  0.00  0.00    -0.062 S 
ATOM      9  C   UNL     1       0.230  -2.318   0.609  0.00  0.00    +0.111 A 
ATOM     10  N   UNL     1       0.218  -1.021   0.394  0.00  0.00    -0.245 NA
ENDROOT
BRANCH   7  11
ATOM     11  C   UNL     1       0.217  -6.187   1.988  0.00  0.00    +0.257 C 
ATOM     12  O   UNL     1       0.301  -7.211   1.329  0.00  0.00    -0.269 OA
ATOM     13  N   UNL     1       0.106  -6.257   3.331  0.00  0.00    -0.281 N 
ATOM     14  C   UNL     1      -0.873  -6.957   3.877  0.00  0.00    +0.036 C 
ATOM     15  C   UNL     1      -1.909  -7.555   3.029  0.00  0.00    +0.025 C 
ATOM     16  C   UNL     1      -2.913  -8.271   3.575  0.00  0.00    +0.032 C 
ATOM     17  C   UNL     1      -2.978  -8.459   5.022  0.00  0.00    +0.095 C 
ATOM     18  N   UNL     1      -3.812  -9.089   5.837  0.00  0.00    -0.190 NA
ATOM     19  C   UNL     1      -3.392  -8.939   7.097  0.00  0.00    +0.369 C 
ATOM     20  O   UNL     1      -4.021  -9.461   8.178  0.00  0.00    -0.243 OA
ATOM     21  N   UNL     1      -2.292  -8.220   7.157  0.00  0.00    -0.190 NA
ATOM     22  C   UNL     1      -1.946  -7.865   5.890  0.00  0.00    +0.097 C 
ATOM     23  C   UNL     1      -0.920  -7.141   5.336  0.00  0.00    +0.053 C 
ATOM     24  H   UNL     1       0.744  -5.793   3.895  0.00  0.00    +0.155 HD
ENDBRANCH   7  11
BRANCH   6  25
ATOM     25  N   UNL     1       0.452  -5.666  -0.946  0.00  0.00    -0.356 N 
ATOM     26  H   UNL     1       0.526  -5.457  -1.891  0.00  0.00    +0.142 HD
ATOM     27  H   UNL     1       0.452  -6.591  -0.652  0.00  0.00    +0.142 HD
ENDBRANCH   6  25
BRANCH   4  28
ATOM     28  C   UNL     1       0.566  -3.647  -2.940  0.00  0.00    +0.195 C 
BRANCH  28  29
ATOM     29  O   UNL     1       0.646  -2.869  -4.136  0.00  0.00    -0.378 OA
ATOM     30  C   UNL     1       0.768  -3.648  -5.328  0.00  0.00    +0.194 C 
ENDBRANCH  28  29
ENDBRANCH   4  28
TORSDOF 4
