REMARK  Name = ZINC39638926
REMARK  8 active torsions:
REMARK  status: ('A' for Active; 'I' for Inactive)
REMARK    1  A    between atoms: C_1  and  C_2
REMARK    2  A    between atoms: C_2  and  C_3
REMARK    3  A    between atoms: C_3  and  C_5
REMARK    4  A    between atoms: C_3  and  C_11
REMARK    5  A    between atoms: C_15  and  C_24
REMARK    6  A    between atoms: N_26  and  C_27
REMARK    7  A    between atoms: C_27  and  C_28
REMARK    8  A    between atoms: C_28  and  C_29
REMARK                            x       y       z     vdW  Elec       q    Type
REMARK                         _______ _______ _______ _____ _____    ______ ____
ROOT
ATOM      1  C   UNL     1      -2.171  -0.074  -1.361  0.00  0.00    +0.223 C 
ATOM      2  O   UNL     1      -2.775  -0.820  -2.102  0.00  0.00    -0.275 OA
ATOM      3  N   UNL     1      -2.171   1.254  -1.595  0.00  0.00    -0.300 N 
ATOM      4  C   UNL     1      -1.573   2.323  -0.760  0.00  0.00    +0.121 C 
ATOM      5  C   UNL     1      -0.963   3.315  -1.775  0.00  0.00    +0.100 C 
ATOM      6  C   UNL     1      -1.752   3.083  -3.074  0.00  0.00    -0.004 C 
ATOM      7  C   UNL     1      -2.763   1.974  -2.748  0.00  0.00    +0.115 C 
ATOM      8  C   UNL     1      -0.815   2.623  -4.187  0.00  0.00    -0.010 C 
ATOM      9  C   UNL     1      -1.613   2.454  -5.483  0.00  0.00    -0.082 C 
ATOM     10  N   UNL     1      -2.243   3.730  -5.842  0.00  0.00    +0.379 N 
ATOM     11  C   UNL     1      -3.211   4.119  -4.810  0.00  0.00    -0.082 C 
ATOM     12  C   UNL     1      -2.481   4.358  -3.486  0.00  0.00    -0.010 C 
ATOM     13  H   UNL     1      -1.533   4.443  -5.921  0.00  0.00    -0.086 HD
ATOM     14  H   UNL     1      -2.717   3.632  -6.727  0.00  0.00    -0.086 HD
ENDROOT
BRANCH   5  15
ATOM     15  C   UNL     1       0.499   3.016  -1.986  0.00  0.00    +0.218 C 
ATOM     16  O   UNL     1       0.906   1.878  -1.887  0.00  0.00    -0.275 OA
ATOM     17  N   UNL     1       1.355   4.014  -2.285  0.00  0.00    -0.315 N 
ATOM     18  H   UNL     1       1.029   4.924  -2.364  0.00  0.00    +0.149 HD
BRANCH  17  19
ATOM     19  C   UNL     1       2.776   3.724  -2.490  0.00  0.00    +0.109 C 
BRANCH  19  20
ATOM     20  C   UNL     1       3.520   5.021  -2.814  0.00  0.00    +0.056 C 
BRANCH  20  21
ATOM     21  C   UNL     1       4.981   4.723  -3.025  0.00  0.00    -0.011 A 
ATOM     22  C   UNL     1       5.873   4.855  -1.977  0.00  0.00    +0.006 A 
ATOM     23  C   UNL     1       7.214   4.581  -2.170  0.00  0.00    +0.000 A 
ATOM     24  C   UNL     1       7.665   4.175  -3.412  0.00  0.00    +0.003 A 
ATOM     25  C   UNL     1       6.776   4.041  -4.462  0.00  0.00    +0.038 A 
ATOM     26  C   UNL     1       5.432   4.310  -4.268  0.00  0.00    +0.127 A 
ATOM     27  F   UNL     1       4.561   4.175  -5.292  0.00  0.00    -0.205 F 
ENDBRANCH  20  21
ENDBRANCH  19  20
ENDBRANCH  17  19
ENDBRANCH   5  15
BRANCH   1  28
ATOM     28  C   UNL     1      -1.421  -0.631  -0.178  0.00  0.00    +0.105 C 
BRANCH  28  29
ATOM     29  C   UNL     1      -2.353  -0.739   1.001  0.00  0.00    -0.036 A 
ATOM     30  C   UNL     1      -3.480  -1.536   0.921  0.00  0.00    +0.004 A 
ATOM     31  C   UNL     1      -4.334  -1.635   2.003  0.00  0.00    +0.000 A 
ATOM     32  C   UNL     1      -4.061  -0.939   3.166  0.00  0.00    +0.000 A 
ATOM     33  C   UNL     1      -2.934  -0.143   3.246  0.00  0.00    +0.000 A 
ATOM     34  C   UNL     1      -2.077  -0.047   2.166  0.00  0.00    +0.004 A 
ENDBRANCH  28  29
BRANCH  28  36
ATOM     35  C   UNL     1       0.175  -1.889  -1.631  0.00  0.00    +0.005 C 
ATOM     36  C   UNL     1      -0.877  -2.017  -0.527  0.00  0.00    +0.014 C 
ENDBRANCH  28  36
ENDBRANCH   1  28
TORSDOF 7
