REMARK  Name = ZINC40038600
REMARK  9 active torsions:
REMARK  status: ('A' for Active; 'I' for Inactive)
REMARK    1  A    between atoms: C_1  and  C_2
REMARK    2  A    between atoms: C_2  and  C_3
REMARK    3  A    between atoms: C_3  and  C_4
REMARK    4  A    between atoms: C_4  and  C_5
REMARK    5  A    between atoms: C_8  and  C_11
REMARK    6  A    between atoms: N_13  and  C_14
REMARK    7  A    between atoms: C_15  and  C_25
REMARK    8  A    between atoms: C_20  and  C_24
REMARK    9  A    between atoms: N_27  and  C_28
REMARK                            x       y       z     vdW  Elec       q    Type
REMARK                         _______ _______ _______ _____ _____    ______ ____
ROOT
ATOM      1  C   UNL     1      -3.328  -6.741   3.514  0.00  0.00    +0.084 A 
ATOM      2  C   UNL     1      -3.074  -8.080   3.766  0.00  0.00    +0.069 A 
ATOM      3  C   UNL     1      -2.306  -8.398   4.957  0.00  0.00    -0.023 A 
ATOM      4  C   UNL     1      -1.934  -7.318   5.679  0.00  0.00    -0.004 A 
ATOM      5  S   UNL     1      -2.583  -5.936   4.786  0.00  0.00    -0.077 S 
ATOM      6  C   UNL     1      -1.142  -7.315   6.950  0.00  0.00    +0.046 C 
ATOM      7  C   UNL     1      -1.135  -8.742   7.517  0.00  0.00    -0.009 C 
ATOM      8  C   UNL     1      -0.778  -9.720   6.394  0.00  0.00    +0.008 C 
ATOM      9  C   UNL     1      -1.931  -9.807   5.392  0.00  0.00    +0.037 C 
ATOM     10  C   UNL     1      -0.098  -8.844   8.637  0.00  0.00    +0.008 C 
ENDROOT
BRANCH   1  13
ATOM     11  C   UNL     1      -4.178  -4.855   2.361  0.00  0.00    +0.221 C 
ATOM     12  O   UNL     1      -3.695  -4.133   3.208  0.00  0.00    -0.275 OA
ATOM     13  N   UNL     1      -4.031  -6.192   2.453  0.00  0.00    -0.279 N 
ATOM     14  H   UNL     1      -4.418  -6.770   1.776  0.00  0.00    +0.155 HD
BRANCH  11  18
ATOM     15  C   UNL     1      -2.848  -2.593   0.015  0.00  0.00    -0.011 C 
ATOM     16  C   UNL     1      -3.525  -2.205   1.331  0.00  0.00    +0.004 C 
ATOM     17  C   UNL     1      -4.960  -2.734   1.342  0.00  0.00    +0.013 C 
ATOM     18  C   UNL     1      -4.943  -4.258   1.208  0.00  0.00    +0.075 C 
ATOM     19  C   UNL     1      -4.266  -4.647  -0.108  0.00  0.00    +0.013 C 
ATOM     20  C   UNL     1      -2.830  -4.117  -0.119  0.00  0.00    +0.004 C 
BRANCH  15  21
ATOM     21  C   UNL     1      -1.413  -2.063   0.004  0.00  0.00    +0.003 C 
BRANCH  21  22
ATOM     22  C   UNL     1      -1.433  -0.534   0.013  0.00  0.00    +0.000 C 
BRANCH  22  24
ATOM     23  C   UNL     1      -0.019   1.526   0.010  0.00  0.00    +0.004 C 
ATOM     24  C   UNL     1       0.002  -0.004   0.002  0.00  0.00    -0.003 C 
ENDBRANCH  22  24
ENDBRANCH  21  22
ENDBRANCH  15  21
ENDBRANCH  11  18
ENDBRANCH   1  13
BRANCH   2  25
ATOM     25  C   UNL     1      -3.560  -9.132   2.868  0.00  0.00    +0.247 C 
ATOM     26  O   UNL     1      -2.869  -9.504   1.937  0.00  0.00    -0.270 OA
ATOM     27  N   UNL     1      -4.771  -9.687   3.072  0.00  0.00    -0.307 N 
ATOM     28  H   UNL     1      -5.321  -9.390   3.814  0.00  0.00    +0.149 HD
BRANCH  27  29
ATOM     29  C   UNL     1      -5.257 -10.738   2.175  0.00  0.00    +0.096 C 
ATOM     30  C   UNL     1      -5.953 -10.102   0.960  0.00  0.00    +0.046 C 
ATOM     31  C   UNL     1      -6.741 -11.181   0.179  0.00  0.00    +0.168 C 
ATOM     32  S   UNL     1      -7.159 -12.403   1.489  0.00  0.00    -0.029 S 
ATOM     33  O   UNL     1      -6.529 -13.640   1.185  0.00  0.00    -0.174 OA
ATOM     34  O   UNL     1      -8.560 -12.370   1.722  0.00  0.00    -0.174 OA
ATOM     35  C   UNL     1      -6.295 -11.625   2.918  0.00  0.00    +0.188 C 
ENDBRANCH  27  29
ENDBRANCH   2  25
TORSDOF 7
