REMARK  Name = ZINC03239563
REMARK  9 active torsions:
REMARK  status: ('A' for Active; 'I' for Inactive)
REMARK    1  A    between atoms: C_1  and  C_2
REMARK    2  A    between atoms: C_2  and  C_3
REMARK    3  A    between atoms: C_3  and  C_4
REMARK    4  A    between atoms: C_4  and  C_6
REMARK    5  A    between atoms: C_4  and  C_7
REMARK    6  A    between atoms: C_7  and  O_9
REMARK    7  A    between atoms: O_9  and  C_10
REMARK    8  A    between atoms: C_10  and  C_11
REMARK    9  A    between atoms: C_19  and  C_23
REMARK                            x       y       z     vdW  Elec       q    Type
REMARK                         _______ _______ _______ _____ _____    ______ ____
ROOT
ATOM      1  C   UNL     1       1.051   3.506   0.011  0.00  0.00    +0.256 C 
ATOM      2  O   UNL     1      -0.076   3.954   0.024  0.00  0.00    -0.272 OA
ATOM      3  N   UNL     1       2.108   4.341   0.005  0.00  0.00    -0.262 N 
ATOM      4  C   UNL     1       1.908   5.712   0.015  0.00  0.00    +0.166 A 
ATOM      5  N   UNL     1       0.778   6.379   0.029  0.00  0.00    -0.225 NA
ATOM      6  C   UNL     1       0.731   7.729   0.037  0.00  0.00    +0.080 A 
ATOM      7  C   UNL     1      -0.411   8.563   0.053  0.00  0.00    +0.029 A 
ATOM      8  C   UNL     1      -0.281   9.927   0.059  0.00  0.00    +0.005 A 
ATOM      9  C   UNL     1       0.965  10.537   0.050  0.00  0.00    -0.049 A 
ATOM     10  C   UNL     1       2.103   9.752   0.034  0.00  0.00    +0.020 A 
ATOM     11  C   UNL     1       1.983   8.385   0.028  0.00  0.00    +0.041 A 
ATOM     12  S   UNL     1       3.124   7.023   0.017  0.00  0.00    -0.052 S 
ATOM     13  C   UNL     1       1.077  12.040   0.057  0.00  0.00    +0.044 C 
ATOM     14  H   UNL     1       3.010   3.983  -0.005  0.00  0.00    +0.157 HD
ENDROOT
BRANCH   1  15
ATOM     15  C   UNL     1       1.268   2.015   0.001  0.00  0.00    +0.328 C 
BRANCH  15  16
ATOM     16  O   UNL     1      -0.016   1.338   0.009  0.00  0.00    -0.455 OA
BRANCH  16  17
ATOM     17  C   UNL     1       0.002  -0.004   0.002  0.00  0.00    +0.310 C 
ATOM     18  O   UNL     1       1.056  -0.594  -0.011  0.00  0.00    -0.251 OA
BRANCH  17  19
ATOM     19  C   UNL     1      -1.293  -0.775   0.010  0.00  0.00    +0.095 C 
ATOM     20  C   UNL     1      -2.088  -0.423   1.269  0.00  0.00    +0.019 C 
BRANCH  19  21
ATOM     21  C   UNL     1      -0.993  -2.276  -0.001  0.00  0.00    +0.014 C 
BRANCH  21  23
ATOM     22  C   UNL     1      -2.003  -4.557  -0.129  0.00  0.00    +0.004 C 
ATOM     23  C   UNL     1      -2.303  -3.057  -0.118  0.00  0.00    -0.003 C 
ENDBRANCH  21  23
ENDBRANCH  19  21
ENDBRANCH  17  19
ENDBRANCH  16  17
ENDBRANCH  15  16
ENDBRANCH   1  15
TORSDOF 6
