REMARK  Name = ZINC17818083
REMARK  5 active torsions:
REMARK  status: ('A' for Active; 'I' for Inactive)
REMARK    1  A    between atoms: C_2  and  C_12
REMARK    2  A    between atoms: N_14  and  N_15
REMARK    3  A    between atoms: C_16  and  C_18
REMARK    4  A    between atoms: C_18  and  C_19
REMARK    5  A    between atoms: C_19  and  C_20
REMARK                            x       y       z     vdW  Elec       q    Type
REMARK                         _______ _______ _______ _____ _____    ______ ____
ROOT
ATOM      1  N   UNL     1      -2.552  10.530  -5.410  0.00  0.00    -0.234 N 
ATOM      2  C   UNL     1      -2.439   9.223  -5.721  0.00  0.00    +0.229 C 
ATOM      3  O   UNL     1      -2.581   8.858  -6.869  0.00  0.00    -0.274 OA
ATOM      4  H   UNL     1      -2.438  10.822  -4.492  0.00  0.00    +0.173 HD
ENDROOT
BRANCH   1   7
ATOM      5  C   UNL     1      -2.946  12.773  -6.103  0.00  0.00    +0.279 C 
ATOM      6  O   UNL     1      -2.803  13.139  -4.952  0.00  0.00    -0.267 OA
ATOM      7  N   UNL     1      -2.833  11.466  -6.413  0.00  0.00    -0.229 N 
ATOM      8  H   UNL     1      -2.947  11.175  -7.331  0.00  0.00    +0.173 HD
BRANCH   5  10
ATOM      9  C   UNL     1      -3.358  15.090  -6.851  0.00  0.00    +0.081 A 
ATOM     10  C   UNL     1      -3.242  13.757  -7.156  0.00  0.00    +0.136 A 
ATOM     11  N   UNL     1      -3.396  13.367  -8.424  0.00  0.00    -0.220 NA
ATOM     12  C   UNL     1      -3.666  14.235  -9.377  0.00  0.00    +0.162 A 
ATOM     13  S   UNL     1      -3.709  15.772  -8.466  0.00  0.00    -0.060 S 
ATOM     14  N   UNL     1      -3.861  14.015 -10.730  0.00  0.00    -0.305 N 
ATOM     15  C   UNL     1      -2.706  13.326 -11.324  0.00  0.00    +0.135 C 
ATOM     16  C   UNL     1      -2.988  13.051 -12.803  0.00  0.00    +0.179 C 
ATOM     17  O   UNL     1      -3.281  14.284 -13.465  0.00  0.00    -0.377 OA
ATOM     18  C   UNL     1      -4.401  14.981 -12.913  0.00  0.00    +0.179 C 
ATOM     19  C   UNL     1      -4.134  15.277 -11.435  0.00  0.00    +0.135 C 
ENDBRANCH   5  10
ENDBRANCH   1   7
BRANCH   2  20
ATOM     20  C   UNL     1      -2.136   8.216  -4.642  0.00  0.00    +0.105 C 
BRANCH  20  21
ATOM     21  C   UNL     1      -2.062   6.816  -5.257  0.00  0.00    +0.083 C 
BRANCH  21  22
ATOM     22  C   UNL     1      -1.759   5.809  -4.178  0.00  0.00    +0.111 A 
ATOM     23  N   UNL     1      -1.651   4.504  -4.524  0.00  0.00    -0.310 N 
ATOM     24  H   UNL     1      -1.773   4.261  -5.456  0.00  0.00    +0.170 HD
ATOM     25  C   UNL     1      -1.382   3.522  -3.632  0.00  0.00    +0.260 A 
ATOM     26  O   UNL     1      -1.288   2.352  -3.962  0.00  0.00    -0.267 OA
ATOM     27  C   UNL     1      -1.213   3.947  -2.271  0.00  0.00    +0.075 A 
ATOM     28  C   UNL     1      -0.921   3.104  -1.126  0.00  0.00    -0.023 A 
ATOM     29  C   UNL     1      -0.803   3.725   0.071  0.00  0.00    -0.004 A 
ATOM     30  S   UNL     1      -1.074   5.446  -0.270  0.00  0.00    -0.073 S 
ATOM     31  C   UNL     1      -1.343   5.329  -2.010  0.00  0.00    +0.116 A 
ATOM     32  N   UNL     1      -1.610   6.237  -2.944  0.00  0.00    -0.227 NA
ATOM     33  C   UNL     1      -0.510   3.093   1.397  0.00  0.00    +0.043 C 
ATOM     34  C   UNL     1      -0.726   1.578   1.270  0.00  0.00    +0.005 C 
ATOM     35  C   UNL     1      -0.013   1.086   0.008  0.00  0.00    +0.005 C 
ATOM     36  C   UNL     1      -0.749   1.591  -1.233  0.00  0.00    +0.037 C 
ENDBRANCH  21  22
ENDBRANCH  20  21
ENDBRANCH   2  20
TORSDOF 5
