REMARK  Name = ZINC21263261
REMARK  17 active torsions:
REMARK  status: ('A' for Active; 'I' for Inactive)
REMARK    1  A    between atoms: C_1  and  C_2
REMARK    2  A    between atoms: C_2  and  C_34
REMARK    3  A    between atoms: C_4  and  N_10
REMARK    4  A    between atoms: C_6  and  C_8
REMARK    5  A    between atoms: C_6  and  C_9
REMARK    6  A    between atoms: N_10  and  C_11
REMARK    7  A    between atoms: C_11  and  N_13
REMARK    8  A    between atoms: N_13  and  C_14
REMARK    9  A    between atoms: N_13  and  C_23
REMARK   10  A    between atoms: C_14  and  C_15
REMARK   11  A    between atoms: C_15  and  C_16
REMARK   12  A    between atoms: C_16  and  N_17
REMARK   13  A    between atoms: C_23  and  C_24
REMARK   14  A    between atoms: C_27  and  C_30
REMARK   15  A    between atoms: C_30  and  C_31
REMARK   16  A    between atoms: C_30  and  C_32
REMARK   17  A    between atoms: C_30  and  C_33
REMARK                            x       y       z     vdW  Elec       q    Type
REMARK                         _______ _______ _______ _____ _____    ______ ____
ROOT
ATOM      1  N   UNL     1       0.106   7.051  -2.376  0.00  0.00    -0.308 N 
ENDROOT
BRANCH   1   2
ATOM      2  C   UNL     1       0.113   5.703  -2.353  0.00  0.00    +0.133 C 
ATOM      3  S   UNL     1      -0.229   4.821  -3.780  0.00  0.00    -0.019 S 
BRANCH   2   4
ATOM      4  N   UNL     1       0.389   5.051  -1.207  0.00  0.00    -0.324 N 
ATOM      5  H   UNL     1       0.608   5.617  -0.290  0.00  0.00    +0.148 HD
BRANCH   4   9
ATOM      6  C   UNL     1      -0.944   0.975  -2.269  0.00  0.00    -0.010 C 
ATOM      7  C   UNL     1      -1.042   1.551  -0.852  0.00  0.00    -0.072 C 
ATOM      8  C   UNL     1      -1.022   3.076  -0.918  0.00  0.00    +0.009 C 
ATOM      9  C   UNL     1       0.396   3.583  -1.181  0.00  0.00    +0.069 C 
ATOM     10  C   UNL     1       1.298   3.104  -0.042  0.00  0.00    +0.009 C 
ATOM     11  C   UNL     1       1.320   1.577  -0.002  0.00  0.00    -0.072 C 
ATOM     12  N   UNL     1      -0.012   1.005   0.008  0.00  0.00    +0.386 N 
ATOM     13  C   UNL     1       2.035   1.156   1.301  0.00  0.00    -0.010 C 
ATOM     14  C   UNL     1       2.151   1.041  -1.172  0.00  0.00    -0.010 C 
ATOM     15  C   UNL     1      -2.415   1.129  -0.282  0.00  0.00    -0.010 C 
ATOM     16  H   UNL     1      -0.328   1.088   1.058  0.00  0.00    -0.084 HD
ATOM     17  H   UNL     1       0.152  -0.053  -0.244  0.00  0.00    -0.084 HD
ENDBRANCH   4   9
ENDBRANCH   2   4
ENDBRANCH   1   2
BRANCH   1  18
ATOM     18  C   UNL     1       0.398   7.806  -1.155  0.00  0.00    +0.108 C 
BRANCH  18  19
ATOM     19  C   UNL     1       1.903   8.070  -1.067  0.00  0.00    +0.034 C 
BRANCH  19  20
ATOM     20  C   UNL     1       2.208   8.859   0.208  0.00  0.00    +0.086 C 
BRANCH  20  21
ATOM     21  N   UNL     1       3.653   9.113   0.293  0.00  0.00    -0.298 NA
ATOM     22  C   UNL     1       4.398   7.859   0.478  0.00  0.00    +0.112 C 
ATOM     23  C   UNL     1       5.898   8.162   0.501  0.00  0.00    +0.175 C 
ATOM     24  O   UNL     1       6.172   9.112   1.535  0.00  0.00    -0.377 OA
ATOM     25  C   UNL     1       5.463  10.345   1.385  0.00  0.00    +0.175 C 
ATOM     26  C   UNL     1       3.958  10.064   1.371  0.00  0.00    +0.112 C 
ENDBRANCH  20  21
ENDBRANCH  19  20
ENDBRANCH  18  19
ENDBRANCH   1  18
BRANCH   1  27
ATOM     27  C   UNL     1      -0.194   7.761  -3.622  0.00  0.00    +0.141 C 
BRANCH  27  28
ATOM     28  C   UNL     1      -1.678   8.002  -3.718  0.00  0.00    -0.030 A 
ATOM     29  C   UNL     1      -2.493   7.069  -4.331  0.00  0.00    +0.005 A 
ATOM     30  C   UNL     1      -3.855   7.289  -4.415  0.00  0.00    +0.004 A 
ATOM     31  C   UNL     1      -4.401   8.447  -3.894  0.00  0.00    -0.042 A 
ATOM     32  C   UNL     1      -3.586   9.383  -3.285  0.00  0.00    +0.004 A 
ATOM     33  C   UNL     1      -2.224   9.161  -3.198  0.00  0.00    +0.005 A 
BRANCH  31  34
ATOM     34  C   UNL     1      -5.886   8.689  -3.990  0.00  0.00    -0.013 C 
ATOM     35  C   UNL     1      -6.143   9.973  -4.780  0.00  0.00    +0.015 C 
ATOM     36  C   UNL     1      -6.550   7.509  -4.703  0.00  0.00    +0.015 C 
ATOM     37  C   UNL     1      -6.471   8.830  -2.583  0.00  0.00    +0.015 C 
ENDBRANCH  31  34
ENDBRANCH  27  28
ENDBRANCH   1  27
TORSDOF 10
