REMARK  Name = ZINC39683730
REMARK  5 active torsions:
REMARK  status: ('A' for Active; 'I' for Inactive)
REMARK    1  A    between atoms: C_5  and  C_7
REMARK    2  A    between atoms: C_7  and  C_8
REMARK    3  A    between atoms: C_8  and  N_9
REMARK    4  A    between atoms: C_10  and  C_12
REMARK    5  A    between atoms: C_23  and  C_25
REMARK                            x       y       z     vdW  Elec       q    Type
REMARK                         _______ _______ _______ _____ _____    ______ ____
ROOT
ATOM      1  C   UNL     1       1.670  -5.860   2.870  0.00  0.00    +0.100 C 
ATOM      2  C   UNL     1       2.667  -6.485   1.869  0.00  0.00    +0.121 C 
ATOM      3  N   UNL     1       3.806  -6.932   2.704  0.00  0.00    -0.296 N 
ATOM      4  C   UNL     1       3.174  -7.475   3.930  0.00  0.00    +0.115 C 
ATOM      5  C   UNL     1       2.004  -6.514   4.221  0.00  0.00    -0.004 C 
ATOM      6  C   UNL     1       0.799  -7.292   4.743  0.00  0.00    -0.010 C 
ATOM      7  C   UNL     1       1.136  -7.885   6.114  0.00  0.00    -0.082 C 
ATOM      8  N   UNL     1       1.487  -6.805   7.044  0.00  0.00    +0.379 N 
ATOM      9  C   UNL     1       2.701  -6.122   6.582  0.00  0.00    -0.082 C 
ATOM     10  C   UNL     1       2.431  -5.454   5.231  0.00  0.00    -0.010 C 
ATOM     11  C   UNL     1       5.121  -6.860   2.415  0.00  0.00    +0.249 C 
ATOM     12  O   UNL     1       5.937  -7.357   3.167  0.00  0.00    -0.270 OA
ATOM     13  H   UNL     1       0.727  -6.143   7.091  0.00  0.00    -0.086 HD
ATOM     14  H   UNL     1       1.649  -7.192   7.962  0.00  0.00    -0.086 HD
ENDROOT
BRANCH  11  15
ATOM     15  C   UNL     1       5.570  -6.178   1.184  0.00  0.00    +0.073 A 
ATOM     16  C   UNL     1       4.798  -6.249   0.022  0.00  0.00    +0.036 A 
ATOM     17  C   UNL     1       5.224  -5.609  -1.125  0.00  0.00    +0.042 A 
ATOM     18  C   UNL     1       6.413  -4.898  -1.126  0.00  0.00    +0.023 A 
ATOM     19  C   UNL     1       7.182  -4.824   0.020  0.00  0.00    +0.040 A 
ATOM     20  C   UNL     1       6.766  -5.455   1.178  0.00  0.00    +0.136 A 
ATOM     21  F   UNL     1       7.516  -5.377   2.299  0.00  0.00    -0.205 F 
ATOM     22 CL   UNL     1       4.266  -5.696  -2.570  0.00  0.00    -0.084 Cl
ENDBRANCH  11  15
BRANCH   1  24
ATOM     23  N   UNL     1       0.839  -3.566   3.280  0.00  0.00    -0.315 N 
ATOM     24  C   UNL     1       1.870  -4.368   2.946  0.00  0.00    +0.218 C 
ATOM     25  O   UNL     1       2.958  -3.889   2.707  0.00  0.00    -0.275 OA
ATOM     26  H   UNL     1      -0.031  -3.949   3.472  0.00  0.00    +0.149 HD
BRANCH  23  27
ATOM     27  C   UNL     1       1.034  -2.116   3.355  0.00  0.00    +0.109 C 
BRANCH  27  28
ATOM     28  C   UNL     1      -0.283  -1.445   3.751  0.00  0.00    +0.055 C 
BRANCH  28  33
ATOM     29  C   UNL     1       0.387   2.013   5.111  0.00  0.00    +0.000 A 
ATOM     30  C   UNL     1       0.283   2.784   3.968  0.00  0.00    +0.001 A 
ATOM     31  C   UNL     1      -0.005   2.188   2.755  0.00  0.00    +0.015 A 
ATOM     32  C   UNL     1      -0.188   0.818   2.684  0.00  0.00    +0.021 A 
ATOM     33  C   UNL     1      -0.083   0.047   3.828  0.00  0.00    -0.032 A 
ATOM     34  C   UNL     1       0.204   0.645   5.040  0.00  0.00    +0.005 A 
ATOM     35 BR   UNL     1      -0.582   0.001   1.025  0.00  0.00    -0.050 Br
ENDBRANCH  28  33
ENDBRANCH  27  28
ENDBRANCH  23  27
ENDBRANCH   1  24
TORSDOF 5
