REMARK  Name = ZINC13946224
REMARK  7 active torsions:
REMARK  status: ('A' for Active; 'I' for Inactive)
REMARK    1  A    between atoms: C_4  and  C_7
REMARK    2  A    between atoms: C_10  and  C_12
REMARK    3  A    between atoms: C_13  and  C_14
REMARK    4  A    between atoms: N_16  and  C_17
REMARK    5  A    between atoms: C_17  and  N_19
REMARK    6  A    between atoms: N_19  and  C_20
REMARK    7  A    between atoms: C_23  and  C_26
REMARK                            x       y       z     vdW  Elec       q    Type
REMARK                         _______ _______ _______ _____ _____    ______ ____
ROOT
ATOM      1  C   UNL     1      -8.191   8.018  -0.837  0.00  0.00    +0.141 C 
ATOM      2  S   UNL     1      -7.984   6.764  -1.983  0.00  0.00    -0.018 S 
ENDROOT
BRANCH   1   5
ATOM      3  C   UNL     1     -10.223   8.594  -1.831  0.00  0.00    +0.242 C 
ATOM      4  O   UNL     1     -10.076   7.702  -2.647  0.00  0.00    -0.270 OA
ATOM      5  N   UNL     1      -9.288   8.800  -0.883  0.00  0.00    -0.264 N 
ATOM      6  H   UNL     1      -9.405   9.511  -0.233  0.00  0.00    +0.157 HD
BRANCH   3   8
ATOM      7  C   UNL     1     -12.315   9.206  -2.836  0.00  0.00    +0.051 C 
ATOM      8  C   UNL     1     -11.373   9.413  -1.879  0.00  0.00    +0.071 C 
BRANCH   7  12
ATOM      9  C   UNL     1     -14.923  11.596  -2.391  0.00  0.00    +0.136 A 
ATOM     10  C   UNL     1     -15.419  10.922  -3.484  0.00  0.00    +0.050 A 
ATOM     11  C   UNL     1     -14.493   9.926  -3.804  0.00  0.00    +0.050 A 
ATOM     12  C   UNL     1     -13.466  10.025  -2.884  0.00  0.00    +0.129 A 
ATOM     13  O   UNL     1     -13.748  11.043  -2.044  0.00  0.00    -0.455 OA
BRANCH   9  17
ATOM     14  C   UNL     1     -16.791  14.874  -0.443  0.00  0.00    +0.000 A 
ATOM     15  C   UNL     1     -15.575  14.400   0.018  0.00  0.00    +0.001 A 
ATOM     16  C   UNL     1     -14.963  13.335  -0.610  0.00  0.00    +0.011 A 
ATOM     17  C   UNL     1     -15.573  12.735  -1.714  0.00  0.00    +0.017 A 
ATOM     18  C   UNL     1     -16.797  13.222  -2.177  0.00  0.00    +0.011 A 
ATOM     19  C   UNL     1     -17.401  14.284  -1.536  0.00  0.00    +0.001 A 
ENDBRANCH   9  17
ENDBRANCH   7  12
ENDBRANCH   3   8
ENDBRANCH   1   5
BRANCH   1  20
ATOM     20  N   UNL     1      -7.256   8.225   0.112  0.00  0.00    -0.297 N 
ATOM     21  H   UNL     1      -7.401   8.894   0.799  0.00  0.00    +0.154 HD
BRANCH  20  22
ATOM     22  C   UNL     1      -6.077   7.473   0.107  0.00  0.00    +0.033 A 
ATOM     23  C   UNL     1      -4.852   8.103   0.293  0.00  0.00    +0.024 A 
ATOM     24  C   UNL     1      -3.688   7.364   0.289  0.00  0.00    +0.010 A 
ATOM     25  C   UNL     1      -3.741   5.984   0.097  0.00  0.00    -0.011 A 
ATOM     26  C   UNL     1      -4.971   5.355  -0.095  0.00  0.00    +0.010 A 
ATOM     27  C   UNL     1      -6.132   6.097  -0.084  0.00  0.00    +0.024 A 
BRANCH  25  28
ATOM     28  C   UNL     1      -2.492   5.187   0.092  0.00  0.00    +0.067 A 
ATOM     29  C   UNL     1      -2.382   4.061   0.863  0.00  0.00    +0.027 A 
ATOM     30  C   UNL     1      -1.125   3.312   0.819  0.00  0.00    +0.018 A 
ATOM     31  C   UNL     1      -0.963   2.150   1.585  0.00  0.00    +0.011 A 
ATOM     32  C   UNL     1       0.217   1.464   1.537  0.00  0.00    +0.001 A 
ATOM     33  C   UNL     1       1.254   1.905   0.727  0.00  0.00    +0.004 A 
ATOM     34  C   UNL     1       1.113   3.043  -0.039  0.00  0.00    +0.047 A 
ATOM     35  C   UNL     1      -0.077   3.761  -0.003  0.00  0.00    +0.139 A 
ATOM     36  O   UNL     1      -0.221   4.875  -0.751  0.00  0.00    -0.422 OA
ATOM     37  C   UNL     1      -1.355   5.592  -0.740  0.00  0.00    +0.345 A 
ATOM     38  O   UNL     1      -1.441   6.591  -1.431  0.00  0.00    -0.245 OA
ENDBRANCH  25  28
ENDBRANCH  20  22
ENDBRANCH   1  20
TORSDOF 7
