REMARK  Name = ZINC58916800
REMARK  10 active torsions:
REMARK  status: ('A' for Active; 'I' for Inactive)
REMARK    1  A    between atoms: C_1  and  C_2
REMARK    2  A    between atoms: C_4  and  C_39
REMARK    3  A    between atoms: C_6  and  C_8
REMARK    4  A    between atoms: C_8  and  S_9
REMARK    5  A    between atoms: S_9  and  C_10
REMARK    6  A    between atoms: C_10  and  C_11
REMARK    7  A    between atoms: N_13  and  N_14
REMARK    8  A    between atoms: C_15  and  C_16
REMARK    9  A    between atoms: C_15  and  C_17
REMARK   10  A    between atoms: C_30  and  C_33
REMARK                            x       y       z     vdW  Elec       q    Type
REMARK                         _______ _______ _______ _____ _____    ______ ____
ROOT
ATOM      1  C   UNL     1       5.872  -6.249   8.411  0.00  0.00    -0.002 A 
ATOM      2  C   UNL     1       6.013  -6.955   9.609  0.00  0.00    +0.011 A 
ATOM      3  C   UNL     1       7.271  -7.222  10.098  0.00  0.00    +0.024 A 
ATOM      4  C   UNL     1       8.402  -6.793   9.404  0.00  0.00    +0.031 A 
ATOM      5  C   UNL     1       8.270  -6.103   8.210  0.00  0.00    -0.019 A 
ATOM      6  C   UNL     1       7.006  -5.831   7.715  0.00  0.00    +0.015 A 
ATOM      7  C   UNL     1       9.459  -5.652   7.408  0.00  0.00    +0.049 C 
ATOM      8  C   UNL     1       9.262  -6.128   5.978  0.00  0.00    -0.023 C 
ATOM      9  C   UNL     1       9.984  -7.192   5.742  0.00  0.00    -0.030 C 
ATOM     10  C   UNL     1      10.783  -7.586   6.967  0.00  0.00    +0.033 C 
ATOM     11  C   UNL     1      10.766  -6.302   7.855  0.00  0.00    +0.029 C 
ATOM     12  C   UNL     1      10.885  -6.599   9.320  0.00  0.00    +0.105 C 
ATOM     13  N   UNL     1       9.657  -7.065   9.934  0.00  0.00    -0.336 N 
ATOM     14  H   UNL     1       9.713  -7.568  10.761  0.00  0.00    +0.147 HD
ENDROOT
BRANCH  12  15
ATOM     15  C   UNL     1      11.922  -7.676   9.505  0.00  0.00    -0.027 A 
ATOM     16  C   UNL     1      11.591  -9.000   9.280  0.00  0.00    +0.005 A 
ATOM     17  C   UNL     1      12.543  -9.988   9.450  0.00  0.00    +0.000 A 
ATOM     18  C   UNL     1      13.825  -9.654   9.844  0.00  0.00    +0.000 A 
ATOM     19  C   UNL     1      14.155  -8.330  10.068  0.00  0.00    +0.000 A 
ATOM     20  C   UNL     1      13.206  -7.341   9.894  0.00  0.00    +0.005 A 
ENDBRANCH  12  15
BRANCH   1  22
ATOM     21  N   UNL     1       4.400  -5.302   6.765  0.00  0.00    -0.185 NA
ATOM     22  C   UNL     1       4.529  -5.953   7.881  0.00  0.00    +0.063 C 
ATOM     23  C   UNL     1       3.305  -6.406   8.634  0.00  0.00    +0.068 C 
BRANCH  21  26
ATOM     24  C   UNL     1       2.990  -4.344   5.103  0.00  0.00    +0.242 C 
ATOM     25  O   UNL     1       3.976  -3.980   4.497  0.00  0.00    -0.273 OA
ATOM     26  N   UNL     1       3.124  -5.020   6.262  0.00  0.00    -0.206 N 
ATOM     27  H   UNL     1       2.336  -5.311   6.747  0.00  0.00    +0.177 HD
BRANCH  24  28
ATOM     28  C   UNL     1       1.617  -4.041   4.562  0.00  0.00    +0.166 C 
BRANCH  28  29
ATOM     29  S   UNL     1       1.770  -3.127   3.002  0.00  0.00    -0.147 S 
BRANCH  29  30
ATOM     30  C   UNL     1       0.054  -2.844   2.489  0.00  0.00    +0.104 C 
BRANCH  30  36
ATOM     31  C   UNL     1      -0.018   1.503   0.010  0.00  0.00    +0.044 C 
ATOM     32  C   UNL     1       0.002  -0.004   0.002  0.00  0.00    -0.050 A 
ATOM     33  C   UNL     1       0.006  -0.689  -1.199  0.00  0.00    +0.006 A 
ATOM     34  C   UNL     1       0.025  -2.071  -1.206  0.00  0.00    -0.050 A 
ATOM     35  C   UNL     1       0.040  -2.768  -0.013  0.00  0.00    +0.007 A 
ATOM     36  C   UNL     1       0.037  -2.084   1.188  0.00  0.00    -0.037 A 
ATOM     37  C   UNL     1       0.023  -0.702   1.195  0.00  0.00    +0.007 A 
ATOM     38  C   UNL     1       0.027  -2.817  -2.516  0.00  0.00    +0.044 C 
ENDBRANCH  30  36
ENDBRANCH  29  30
ENDBRANCH  28  29
ENDBRANCH  24  28
ENDBRANCH  21  26
ENDBRANCH   1  22
TORSDOF 7
