REMARK  Name = ZINC36594915
REMARK  7 active torsions:
REMARK  status: ('A' for Active; 'I' for Inactive)
REMARK    1  A    between atoms: C_6  and  C_7
REMARK    2  A    between atoms: C_7  and  N_8
REMARK    3  A    between atoms: C_11  and  C_16
REMARK    4  A    between atoms: C_14  and  O_15
REMARK    5  A    between atoms: C_16  and  C_17
REMARK    6  A    between atoms: C_17  and  C_18
REMARK    7  A    between atoms: N_20  and  C_21
REMARK                            x       y       z     vdW  Elec       q    Type
REMARK                         _______ _______ _______ _____ _____    ______ ____
ROOT
ATOM      1  N   UNL     1      -1.714  -1.015  -1.369  0.00  0.00    -0.220 N 
ATOM      2  C   UNL     1      -2.510  -0.191  -2.082  0.00  0.00    +0.248 C 
ATOM      3  O   UNL     1      -2.993   0.863  -1.723  0.00  0.00    -0.273 OA
ATOM      4  C   UNL     1      -2.670  -0.867  -3.429  0.00  0.00    +0.197 C 
ATOM      5  N   UNL     1      -1.875  -2.098  -3.302  0.00  0.00    -0.224 NA
ATOM      6  C   UNL     1      -1.361  -2.110  -2.114  0.00  0.00    +0.285 C 
ENDROOT
BRANCH   6   7
ATOM      7  O   UNL     1      -0.564  -3.100  -1.655  0.00  0.00    -0.481 OA
ATOM      8  H   UNL     1      -0.404  -3.806  -2.297  0.00  0.00    +0.295 HD
ENDBRANCH   6   7
BRANCH   1   9
ATOM      9  C   UNL     1      -1.282  -0.770   0.009  0.00  0.00    +0.153 C 
BRANCH   9  15
ATOM     10  C   UNL     1      -0.021   1.391   0.008  0.00  0.00    +0.009 A 
ATOM     11  C   UNL     1       1.160   2.111  -0.000  0.00  0.00    +0.050 A 
ATOM     12  C   UNL     1       2.375   1.448  -0.017  0.00  0.00    +0.166 A 
ATOM     13  C   UNL     1       2.405   0.055  -0.025  0.00  0.00    +0.167 A 
ATOM     14  C   UNL     1       1.218  -0.659  -0.017  0.00  0.00    +0.054 A 
ATOM     15  C   UNL     1       0.008   0.010   0.000  0.00  0.00    -0.026 A 
ATOM     16  O   UNL     1       3.707  -0.354  -0.041  0.00  0.00    -0.453 OA
ATOM     17  C   UNL     1       4.466   0.798  -0.455  0.00  0.00    +0.466 C 
ATOM     18  O   UNL     1       3.659   1.911  -0.028  0.00  0.00    -0.453 OA
ENDBRANCH   9  15
ENDBRANCH   1   9
BRANCH   4  19
ATOM     19  C   UNL     1      -2.116   0.022  -4.545  0.00  0.00    +0.045 C 
BRANCH  19  20
ATOM     20  C   UNL     1      -2.401  -0.626  -5.901  0.00  0.00    +0.098 C 
BRANCH  20  21
ATOM     21  C   UNL     1      -1.855   0.249  -7.000  0.00  0.00    +0.217 C 
ATOM     22  O   UNL     1      -1.293   1.288  -6.725  0.00  0.00    -0.275 OA
ATOM     23  N   UNL     1      -1.991  -0.123  -8.288  0.00  0.00    -0.285 N 
ATOM     24  H   UNL     1      -2.380  -0.985  -8.506  0.00  0.00    +0.155 HD
BRANCH  23  25
ATOM     25  C   UNL     1      -1.570   0.734  -9.314  0.00  0.00    +0.034 A 
ATOM     26  C   UNL     1      -0.440   1.530  -9.133  0.00  0.00    +0.025 A 
ATOM     27  C   UNL     1      -0.013   2.378 -10.131  0.00  0.00    +0.028 A 
ATOM     28  C   UNL     1      -0.712   2.446 -11.332  0.00  0.00    +0.047 A 
ATOM     29  C   UNL     1      -1.852   1.644 -11.518  0.00  0.00    +0.001 A 
ATOM     30  C   UNL     1      -2.274   0.783 -10.502  0.00  0.00    +0.033 A 
ATOM     31  C   UNL     1      -2.346   1.948 -12.863  0.00  0.00    +0.027 A 
ATOM     32  C   UNL     1      -1.520   2.867 -13.387  0.00  0.00    +0.083 A 
ATOM     33  N   UNL     1      -0.537   3.177 -12.488  0.00  0.00    -0.361 N 
ATOM     34  H   UNL     1       0.176   3.817 -12.640  0.00  0.00    +0.165 HD
ENDBRANCH  23  25
ENDBRANCH  20  21
ENDBRANCH  19  20
ENDBRANCH   4  19
TORSDOF 7
