REMARK  Name = ZINC14655517
REMARK  10 active torsions:
REMARK  status: ('A' for Active; 'I' for Inactive)
REMARK    1  A    between atoms: C_1  and  C_2
REMARK    2  A    between atoms: C_2  and  O_3
REMARK    3  A    between atoms: O_3  and  C_4
REMARK    4  A    between atoms: C_9  and  C_10
REMARK    5  A    between atoms: N_12  and  C_13
REMARK    6  A    between atoms: C_13  and  N_15
REMARK    7  A    between atoms: N_15  and  C_16
REMARK    8  A    between atoms: C_21  and  C_22
REMARK    9  A    between atoms: N_24  and  C_25
REMARK   10  A    between atoms: N_24  and  C_26
REMARK                            x       y       z     vdW  Elec       q    Type
REMARK                         _______ _______ _______ _____ _____    ______ ____
ROOT
ATOM      1  N   UNL     1       1.140   3.402  -0.141  0.00  0.00    -0.296 N 
ATOM      2  H   UNL     1       0.370   3.671   0.385  0.00  0.00    +0.154 HD
ENDROOT
BRANCH   1   3
ATOM      3  C   UNL     1       2.354   4.064   0.016  0.00  0.00    +0.045 A 
ATOM      4  C   UNL     1       3.545   3.350  -0.001  0.00  0.00    +0.024 A 
ATOM      5  C   UNL     1       4.749   4.008   0.150  0.00  0.00    +0.002 A 
ATOM      6  C   UNL     1       4.779   5.382   0.329  0.00  0.00    +0.001 A 
ATOM      7  C   UNL     1       3.607   6.107   0.353  0.00  0.00    +0.015 A 
ATOM      8  C   UNL     1       2.381   5.455   0.197  0.00  0.00    +0.058 A 
BRANCH   8   9
ATOM      9  C   UNL     1       1.123   6.224   0.223  0.00  0.00    +0.248 C 
ATOM     10  O   UNL     1       0.316   6.100  -0.678  0.00  0.00    -0.270 OA
ATOM     11  N   UNL     1       0.868   7.065   1.245  0.00  0.00    -0.297 N 
ATOM     12  C   UNL     1       1.791   7.139   2.380  0.00  0.00    +0.132 C 
BRANCH  11  13
ATOM     13  C   UNL     1      -0.332   7.905   1.220  0.00  0.00    +0.076 C 
ATOM     14  C   UNL     1       0.077   9.379   1.270  0.00  0.00    +0.022 C 
ATOM     15  C   UNL     1      -1.177  10.257   1.244  0.00  0.00    +0.002 C 
ATOM     16  C   UNL     1      -2.053   9.929   2.454  0.00  0.00    +0.000 C 
ATOM     17  C   UNL     1      -2.461   8.456   2.405  0.00  0.00    +0.002 C 
ATOM     18  C   UNL     1      -1.208   7.578   2.431  0.00  0.00    +0.022 C 
ENDBRANCH  11  13
ENDBRANCH   8   9
ENDBRANCH   1   3
BRANCH   1  19
ATOM     19  C   UNL     1       1.034   2.388  -1.022  0.00  0.00    +0.141 C 
ATOM     20  S   UNL     1       2.373   1.959  -1.998  0.00  0.00    -0.018 S 
BRANCH  19  23
ATOM     21  C   UNL     1      -0.233   0.698  -2.016  0.00  0.00    +0.253 C 
ATOM     22  O   UNL     1       0.718   0.393  -2.709  0.00  0.00    -0.270 OA
ATOM     23  N   UNL     1      -0.127   1.712  -1.134  0.00  0.00    -0.263 N 
ATOM     24  H   UNL     1      -0.887   1.958  -0.584  0.00  0.00    +0.157 HD
BRANCH  21  30
ATOM     25  C   UNL     1      -1.618  -1.097  -3.054  0.00  0.00    +0.133 A 
ATOM     26  C   UNL     1      -2.816  -1.787  -3.161  0.00  0.00    +0.047 A 
ATOM     27  C   UNL     1      -3.891  -1.435  -2.370  0.00  0.00    +0.019 A 
ATOM     28  C   UNL     1      -3.782  -0.392  -1.463  0.00  0.00    +0.019 A 
ATOM     29  C   UNL     1      -2.597   0.301  -1.339  0.00  0.00    +0.032 A 
ATOM     30  C   UNL     1      -1.503  -0.042  -2.139  0.00  0.00    +0.080 A 
ATOM     31 BR   UNL     1      -5.263   0.078  -0.386  0.00  0.00    -0.050 Br
BRANCH  25  32
ATOM     32  O   UNL     1      -0.561  -1.443  -3.832  0.00  0.00    -0.491 OA
BRANCH  32  34
ATOM     33  C   UNL     1       0.538  -2.770  -5.526  0.00  0.00    +0.048 C 
ATOM     34  C   UNL     1      -0.752  -2.529  -4.741  0.00  0.00    +0.226 C 
ENDBRANCH  32  34
ENDBRANCH  25  32
ENDBRANCH  21  30
ENDBRANCH  19  23
ENDBRANCH   1  19
TORSDOF 8
