REMARK  Name = ZINC21689896
REMARK  5 active torsions:
REMARK  status: ('A' for Active; 'I' for Inactive)
REMARK    1  A    between atoms: C_1  and  C_2
REMARK    2  A    between atoms: C_12  and  C_14
REMARK    3  A    between atoms: C_14  and  C_15
REMARK    4  A    between atoms: C_15  and  C_16
REMARK    5  A    between atoms: C_22  and  C_24
REMARK                            x       y       z     vdW  Elec       q    Type
REMARK                         _______ _______ _______ _____ _____    ______ ____
ROOT
ATOM      1  C   UNL     1       2.185   0.713  -0.053  0.00  0.00    +0.051 A 
ATOM      2  C   UNL     1       1.744   1.994  -0.027  0.00  0.00    +0.071 A 
ATOM      3  S   UNL     1      -0.024   1.735   0.005  0.00  0.00    -0.060 S 
ATOM      4  C   UNL     1       0.001  -0.001  -0.019  0.00  0.00    +0.165 A 
ATOM      5  N   UNL     1       1.294  -0.260  -0.048  0.00  0.00    -0.230 NA
ATOM      6  N   UNL     1      -1.066  -0.890  -0.010  0.00  0.00    -0.261 N 
ATOM      7  C   UNL     1      -2.330  -0.424   0.022  0.00  0.00    +0.255 C 
ATOM      8  O   UNL     1      -2.536   0.770   0.138  0.00  0.00    -0.270 OA
ATOM      9  H   UNL     1      -0.880  -1.974  -0.029  0.00  0.00    +0.157 HD
ENDROOT
BRANCH   7  10
ATOM     10  C   UNL     1      -3.461  -1.358  -0.084  0.00  0.00    +0.101 A 
ATOM     11  C   UNL     1      -4.768  -0.882  -0.174  0.00  0.00    +0.020 A 
ATOM     12  C   UNL     1      -5.814  -1.798  -0.279  0.00  0.00    +0.018 A 
ATOM     13  C   UNL     1      -5.555  -3.131  -0.281  0.00  0.00    +0.086 A 
ATOM     14  N   UNL     1      -4.288  -3.601  -0.187  0.00  0.00    -0.328 N 
ATOM     15  H   UNL     1      -4.102  -4.685  -0.190  0.00  0.00    +0.168 HD
ATOM     16  C   UNL     1      -3.241  -2.760  -0.090  0.00  0.00    +0.261 A 
ATOM     17  O   UNL     1      -2.108  -3.201  -0.007  0.00  0.00    -0.267 OA
ENDBRANCH   7  10
BRANCH   1  18
ATOM     18  C   UNL     1       3.660   0.406  -0.087  0.00  0.00    +0.065 C 
BRANCH  18  19
ATOM     19  C   UNL     1       4.015  -0.523   1.076  0.00  0.00    +0.102 C 
BRANCH  19  31
ATOM     20  C   UNL     1      13.627  -3.265   1.879  0.00  0.00    +0.044 C 
ATOM     21  C   UNL     1      12.220  -2.779   1.645  0.00  0.00    -0.049 A 
ATOM     22  C   UNL     1      11.938  -1.936   0.579  0.00  0.00    +0.005 A 
ATOM     23  C   UNL     1      10.667  -1.479   0.344  0.00  0.00    +0.029 A 
ATOM     24  C   UNL     1       9.596  -1.856   1.187  0.00  0.00    +0.080 A 
ATOM     25  C   UNL     1       9.921  -2.715   2.262  0.00  0.00    +0.041 A 
ATOM     26  C   UNL     1      11.197  -3.167   2.490  0.00  0.00    +0.020 A 
ATOM     27  S   UNL     1       8.348  -2.934   3.059  0.00  0.00    -0.052 S 
ATOM     28  C   UNL     1       7.389  -1.916   1.946  0.00  0.00    +0.165 A 
ATOM     29  N   UNL     1       8.297  -1.498   1.096  0.00  0.00    -0.225 NA
ATOM     30  N   UNL     1       6.033  -1.634   1.978  0.00  0.00    -0.265 N 
ATOM     31  C   UNL     1       5.490  -0.829   1.042  0.00  0.00    +0.219 C 
ATOM     32  O   UNL     1       6.189  -0.352   0.174  0.00  0.00    -0.275 OA
ATOM     33  H   UNL     1       5.399  -2.067   2.765  0.00  0.00    +0.157 HD
ENDBRANCH  19  31
ENDBRANCH  18  19
ENDBRANCH   1  18
TORSDOF 4
