REMARK  Name = ZINC39355934
REMARK  9 active torsions:
REMARK  status: ('A' for Active; 'I' for Inactive)
REMARK    1  A    between atoms: C_1  and  C_2
REMARK    2  A    between atoms: C_6  and  C_7
REMARK    3  A    between atoms: C_7  and  C_9
REMARK    4  A    between atoms: C_7  and  C_23
REMARK    5  A    between atoms: C_18  and  O_19
REMARK    6  A    between atoms: O_19  and  C_20
REMARK    7  A    between atoms: C_20  and  C_21
REMARK    8  A    between atoms: C_24  and  C_30
REMARK    9  A    between atoms: C_27  and  O_29
REMARK                            x       y       z     vdW  Elec       q    Type
REMARK                         _______ _______ _______ _____ _____    ______ ____
ROOT
ATOM      1  C   UNL     1       0.005  -0.272   2.475  0.00  0.00    +0.092 C 
ENDROOT
BRANCH   1   2
ATOM      2  C   UNL     1       1.231  -0.577   3.296  0.00  0.00    +0.014 A 
ATOM      3  C   UNL     1       2.479  -0.736   2.671  0.00  0.00    -0.010 A 
ATOM      4  C   UNL     1       2.616  -0.615   1.277  0.00  0.00    +0.009 A 
ATOM      5  C   UNL     1       3.840  -0.774   0.704  0.00  0.00    +0.001 A 
ATOM      6  C   UNL     1       4.963  -1.057   1.479  0.00  0.00    +0.001 A 
ATOM      7  C   UNL     1       4.869  -1.181   2.831  0.00  0.00    +0.008 A 
ATOM      8  C   UNL     1       3.622  -1.023   3.459  0.00  0.00    -0.017 A 
ATOM      9  C   UNL     1       3.487  -1.143   4.853  0.00  0.00    +0.012 A 
ATOM     10  C   UNL     1       2.265  -0.984   5.428  0.00  0.00    +0.046 A 
ATOM     11  C   UNL     1       1.137  -0.696   4.654  0.00  0.00    +0.127 A 
BRANCH  11  12
ATOM     12  O   UNL     1      -0.069  -0.537   5.258  0.00  0.00    -0.479 OA
BRANCH  12  13
ATOM     13  C   UNL     1      -0.122  -0.757   6.669  0.00  0.00    +0.317 C 
BRANCH  13  14
ATOM     14  C   UNL     1      -1.496  -0.541   7.149  0.00  0.00    -0.065 C 
ATOM     15  C   UNL     1      -2.593  -0.369   7.531  0.00  0.00    +0.007 C 
ENDBRANCH  13  14
ENDBRANCH  12  13
ENDBRANCH  11  12
ENDBRANCH   1   2
BRANCH   1  21
ATOM     16  C   UNL     1      -0.393   0.841  -0.406  0.00  0.00    +0.065 C 
ATOM     17  C   UNL     1      -0.135  -0.599  -0.044  0.00  0.00    +0.039 A 
ATOM     18  N   UNL     1      -0.029  -1.637  -0.926  0.00  0.00    -0.301 N 
ATOM     19  N   UNL     1       0.213  -2.808  -0.196  0.00  0.00    -0.266 N 
ATOM     20  C   UNL     1       0.252  -2.475   1.111  0.00  0.00    +0.269 A 
ATOM     21  C   UNL     1       0.038  -1.079   1.203  0.00  0.00    +0.050 A 
ATOM     22  O   UNL     1       0.442  -3.236   2.042  0.00  0.00    -0.266 OA
ATOM     23  H   UNL     1      -0.108  -1.574  -1.891  0.00  0.00    +0.186 HD
ATOM     24  H   UNL     1       0.331  -3.697  -0.563  0.00  0.00    +0.190 HD
ENDBRANCH   1  21
BRANCH   1  25
ATOM     25  C   UNL     1      -1.229  -0.627   3.264  0.00  0.00    +0.017 C 
ATOM     26  C   UNL     1      -2.137   0.200   3.787  0.00  0.00    +0.065 C 
ATOM     27  N   UNL     1      -3.104  -0.492   4.428  0.00  0.00    -0.156 NA
ATOM     28  N   UNL     1      -2.960  -1.717   4.402  0.00  0.00    -0.151 NA
ATOM     29  C   UNL     1      -1.732  -2.008   3.643  0.00  0.00    +0.284 C 
ATOM     30  C   UNL     1      -2.089   1.703   3.679  0.00  0.00    +0.067 C 
BRANCH  29  31
ATOM     31  O   UNL     1      -0.780  -2.685   4.466  0.00  0.00    -0.366 OA
ATOM     32  H   UNL     1      -1.054  -3.572   4.736  0.00  0.00    +0.212 HD
ENDBRANCH  29  31
ENDBRANCH   1  25
TORSDOF 7
