REMARK  Name = ZINC20767594
REMARK  9 active torsions:
REMARK  status: ('A' for Active; 'I' for Inactive)
REMARK    1  A    between atoms: C_1  and  C_2
REMARK    2  A    between atoms: C_6  and  N_8
REMARK    3  A    between atoms: C_13  and  C_15
REMARK    4  A    between atoms: C_16  and  C_18
REMARK    5  A    between atoms: C_27  and  C_30
REMARK    6  A    between atoms: C_30  and  S_31
REMARK    7  A    between atoms: S_31  and  C_32
REMARK    8  A    between atoms: C_32  and  C_33
REMARK    9  A    between atoms: C_38  and  C_39
REMARK                            x       y       z     vdW  Elec       q    Type
REMARK                         _______ _______ _______ _____ _____    ______ ____
ROOT
ATOM      1  C   UNL     1       6.026   5.962   2.902  0.00  0.00    +0.039 A 
ATOM      2  C   UNL     1       5.028   6.937   2.824  0.00  0.00    +0.015 A 
ATOM      3  C   UNL     1       4.969   7.941   3.766  0.00  0.00    +0.025 A 
ATOM      4  C   UNL     1       5.906   7.989   4.787  0.00  0.00    +0.049 A 
ATOM      5  C   UNL     1       6.906   7.014   4.876  0.00  0.00    +0.055 A 
ATOM      6  C   UNL     1       6.970   6.008   3.933  0.00  0.00    +0.038 A 
ATOM      7  N   UNL     1       7.842   7.075   5.916  0.00  0.00    -0.282 N 
ATOM      8  C   UNL     1       7.673   7.924   6.947  0.00  0.00    +0.238 C 
ATOM      9  O   UNL     1       8.550   8.045   7.776  0.00  0.00    -0.273 OA
ATOM     10  C   UNL     1       6.403   8.725   7.080  0.00  0.00    +0.167 C 
ATOM     11  N   UNL     1       5.873   9.009   5.739  0.00  0.00    -0.331 N 
ATOM     12  H   UNL     1       8.729   6.424   5.897  0.00  0.00    +0.155 HD
ATOM     13  H   UNL     1       5.464  10.004   5.509  0.00  0.00    +0.147 HD
ENDROOT
BRANCH   1  21
ATOM     14  N   UNL     1       2.669   2.833   1.057  0.00  0.00    -0.324 N 
ATOM     15  C   UNL     1       2.703   3.851   2.115  0.00  0.00    +0.124 C 
ATOM     16  C   UNL     1       3.645   4.986   1.698  0.00  0.00    +0.127 C 
ATOM     17  N   UNL     1       4.951   4.405   1.352  0.00  0.00    -0.294 N 
ATOM     18  C   UNL     1       4.984   3.286   0.399  0.00  0.00    +0.130 C 
ATOM     19  C   UNL     1       3.990   2.218   0.867  0.00  0.00    +0.088 C 
ATOM     20  C   UNL     1       3.892   1.114  -0.188  0.00  0.00    +0.029 C 
ATOM     21  C   UNL     1       6.087   4.887   1.894  0.00  0.00    +0.247 C 
ATOM     22  O   UNL     1       7.163   4.435   1.551  0.00  0.00    -0.270 OA
BRANCH  14  28
ATOM     23  C   UNL     1       0.859  -0.627   4.041  0.00  0.00    +0.044 C 
ATOM     24  C   UNL     1       0.797   0.171   2.764  0.00  0.00    -0.049 A 
ATOM     25  C   UNL     1      -0.224  -0.052   1.858  0.00  0.00    +0.003 A 
ATOM     26  C   UNL     1      -0.281   0.674   0.683  0.00  0.00    +0.002 A 
ATOM     27  C   UNL     1       0.676   1.633   0.415  0.00  0.00    +0.023 A 
ATOM     28  C   UNL     1       1.700   1.864   1.325  0.00  0.00    +0.030 A 
ATOM     29  C   UNL     1       1.757   1.129   2.502  0.00  0.00    +0.026 A 
ENDBRANCH  14  28
ENDBRANCH   1  21
BRANCH  10  30
ATOM     30  C   UNL     1       5.373   7.924   7.879  0.00  0.00    +0.101 C 
BRANCH  30  31
ATOM     31  S   UNL     1       3.846   8.890   8.039  0.00  0.00    -0.154 S 
BRANCH  31  32
ATOM     32  C   UNL     1       2.744   7.814   8.997  0.00  0.00    +0.104 C 
BRANCH  32  33
ATOM     33  C   UNL     1       1.421   8.507   9.204  0.00  0.00    -0.035 A 
ATOM     34  C   UNL     1       1.224   9.302  10.317  0.00  0.00    +0.005 A 
ATOM     35  C   UNL     1       0.013   9.941  10.504  0.00  0.00    +0.000 A 
ATOM     36  C   UNL     1      -1.005   9.776   9.584  0.00  0.00    +0.000 A 
ATOM     37  C   UNL     1      -0.810   8.976   8.474  0.00  0.00    +0.003 A 
ATOM     38  C   UNL     1       0.404   8.341   8.284  0.00  0.00    -0.046 A 
ATOM     39  C   UNL     1       0.616   7.469   7.073  0.00  0.00    +0.044 C 
ENDBRANCH  32  33
ENDBRANCH  31  32
ENDBRANCH  30  31
ENDBRANCH  10  30
TORSDOF 6
