REMARK  Name = ZINC08846135
REMARK  8 active torsions:
REMARK  status: ('A' for Active; 'I' for Inactive)
REMARK    1  A    between atoms: C_1  and  C_2
REMARK    2  A    between atoms: C_2  and  C_3
REMARK    3  A    between atoms: C_3  and  O_4
REMARK    4  A    between atoms: O_4  and  C_5
REMARK    5  A    between atoms: C_9  and  C_11
REMARK    6  A    between atoms: C_16  and  N_25
REMARK    7  A    between atoms: C_20  and  N_24
REMARK    8  A    between atoms: C_21  and  C_22
REMARK                            x       y       z     vdW  Elec       q    Type
REMARK                         _______ _______ _______ _____ _____    ______ ____
ROOT
ATOM      1  C   UNL     1      -1.332   2.113   0.020  0.00  0.00    +0.098 C 
ATOM      2  C   UNL     1      -2.112   1.758  -1.218  0.00  0.00    +0.008 A 
ATOM      3  C   UNL     1      -1.758   2.324  -2.431  0.00  0.00    +0.010 A 
ATOM      4  C   UNL     1      -2.461   2.010  -3.577  0.00  0.00    +0.023 A 
ATOM      5  C   UNL     1      -3.528   1.122  -3.516  0.00  0.00    +0.028 A 
ATOM      6  C   UNL     1      -3.884   0.553  -2.302  0.00  0.00    +0.069 A 
ATOM      7  C   UNL     1      -3.176   0.871  -1.151  0.00  0.00    +0.136 A 
ATOM      8  O   UNL     1      -3.537   0.306   0.028  0.00  0.00    -0.441 OA
ATOM      9  C   UNL     1      -3.146   0.865   1.186  0.00  0.00    +0.199 C 
ATOM     10  C   UNL     1      -2.107   1.730   1.249  0.00  0.00    +0.098 C 
ENDROOT
BRANCH   1  15
ATOM     11  C   UNL     1       2.380   1.409  -0.013  0.00  0.00    +0.121 A 
ATOM     12  C   UNL     1       2.396   0.022  -0.022  0.00  0.00    +0.045 A 
ATOM     13  C   UNL     1       1.208  -0.681  -0.014  0.00  0.00    +0.004 A 
ATOM     14  C   UNL     1       0.002  -0.004   0.002  0.00  0.00    +0.005 A 
ATOM     15  C   UNL     1      -0.017   1.378   0.010  0.00  0.00    -0.031 A 
ATOM     16  C   UNL     1       1.170   2.086   0.002  0.00  0.00    +0.050 A 
BRANCH  11  17
ATOM     17  O   UNL     1       3.548   2.104  -0.022  0.00  0.00    -0.492 OA
BRANCH  17  18
ATOM     18  C   UNL     1       4.756   1.341  -0.039  0.00  0.00    +0.229 C 
BRANCH  18  20
ATOM     19  C   UNL     1       7.251   1.471  -0.064  0.00  0.00    +0.007 C 
ATOM     20  C   UNL     1       5.958   2.288  -0.046  0.00  0.00    +0.038 C 
ENDBRANCH  18  20
ENDBRANCH  17  18
ENDBRANCH  11  17
ENDBRANCH   1  15
BRANCH   9  21
ATOM     21  N   UNL     1      -3.820   0.548   2.339  0.00  0.00    -0.328 N 
ATOM     22  H   UNL     1      -3.550   0.943   3.183  0.00  0.00    +0.145 HD
ATOM     23  H   UNL     1      -4.566  -0.071   2.309  0.00  0.00    +0.145 HD
ENDBRANCH   9  21
BRANCH   5  24
ATOM     24  N   UNL     1      -4.240   0.804  -4.674  0.00  0.00    -0.358 N 
ATOM     25  H   UNL     1      -3.990   1.202  -5.522  0.00  0.00    +0.142 HD
ATOM     26  H   UNL     1      -4.985   0.184  -4.630  0.00  0.00    +0.142 HD
ENDBRANCH   5  24
BRANCH  10  27
ATOM     27  C   UNL     1      -1.738   2.293   2.514  0.00  0.00    +0.101 C 
ATOM     28  N   UNL     1      -1.446   2.739   3.517  0.00  0.00    -0.191 NA
ENDBRANCH  10  27
TORSDOF 7
