REMARK  Name = ZINC21253889
REMARK  10 active torsions:
REMARK  status: ('A' for Active; 'I' for Inactive)
REMARK    1  A    between atoms: C_1  and  C_2
REMARK    2  A    between atoms: C_2  and  C_3
REMARK    3  A    between atoms: C_3  and  O_4
REMARK    4  A    between atoms: O_4  and  C_5
REMARK    5  A    between atoms: C_6  and  C_13
REMARK    6  A    between atoms: C_10  and  O_11
REMARK    7  A    between atoms: O_11  and  C_12
REMARK    8  A    between atoms: C_18  and  C_23
REMARK    9  A    between atoms: C_26  and  C_29
REMARK   10  A    between atoms: C_29  and  C_30
REMARK                            x       y       z     vdW  Elec       q    Type
REMARK                         _______ _______ _______ _____ _____    ______ ____
ROOT
ATOM      1  C   UNL     1       2.527  -0.356   2.933  0.00  0.00    +0.140 C 
ATOM      2  C   UNL     1       1.731   0.193   1.773  0.00  0.00    +0.037 C 
ATOM      3  C   UNL     1       1.950   1.363   1.151  0.00  0.00    +0.017 C 
ATOM      4  C   UNL     1       1.092   1.775  -0.035  0.00  0.00    +0.059 C 
ATOM      5  C   UNL     1      -0.331   1.248   0.147  0.00  0.00    +0.032 C 
ATOM      6  C   UNL     1      -0.254  -0.281   0.237  0.00  0.00    +0.088 C 
ATOM      7  C   UNL     1       0.674  -0.650   1.355  0.00  0.00    +0.163 C 
ATOM      8  O   UNL     1       0.512  -1.712   1.924  0.00  0.00    -0.292 OA
ATOM      9  N   UNL     1       2.918   2.252   1.485  0.00  0.00    -0.316 N 
ATOM     10  C   UNL     1       4.246   1.922   1.733  0.00  0.00    +0.052 A 
ATOM     11  C   UNL     1       5.281   2.367   0.929  0.00  0.00    +0.025 A 
ATOM     12  C   UNL     1       6.585   2.038   1.258  0.00  0.00    +0.002 A 
ATOM     13  C   UNL     1       6.850   1.275   2.380  0.00  0.00    +0.002 A 
ATOM     14  C   UNL     1       5.815   0.815   3.175  0.00  0.00    +0.025 A 
ATOM     15  C   UNL     1       4.508   1.125   2.837  0.00  0.00    +0.049 A 
ATOM     16  N   UNL     1       3.429   0.597   3.545  0.00  0.00    -0.331 N 
ATOM     17  H   UNL     1       2.675   3.321   1.578  0.00  0.00    +0.152 HD
ATOM     18  H   UNL     1       3.269   0.917   4.585  0.00  0.00    +0.147 HD
ENDROOT
BRANCH   1  20
ATOM     19  C   UNL     1       3.873  -2.427   3.357  0.00  0.00    +0.167 A 
ATOM     20  C   UNL     1       3.333  -1.533   2.446  0.00  0.00    +0.023 A 
ATOM     21  C   UNL     1       3.538  -1.717   1.092  0.00  0.00    +0.009 A 
ATOM     22  C   UNL     1       4.278  -2.795   0.642  0.00  0.00    +0.004 A 
ATOM     23  C   UNL     1       4.816  -3.693   1.545  0.00  0.00    +0.049 A 
ATOM     24  C   UNL     1       4.613  -3.515   2.904  0.00  0.00    +0.162 A 
BRANCH  24  25
ATOM     25  O   UNL     1       5.141  -4.398   3.793  0.00  0.00    -0.491 OA
ATOM     26  C   UNL     1       5.894  -5.487   3.256  0.00  0.00    +0.277 C 
ENDBRANCH  24  25
BRANCH  19  27
ATOM     27  O   UNL     1       3.676  -2.245   4.690  0.00  0.00    -0.488 OA
BRANCH  27  28
ATOM     28  C   UNL     1       2.588  -2.953   5.288  0.00  0.00    +0.229 C 
BRANCH  28  30
ATOM     29  C   UNL     1       1.210  -3.195   7.358  0.00  0.00    +0.007 C 
ATOM     30  C   UNL     1       2.447  -2.530   6.752  0.00  0.00    +0.038 C 
ENDBRANCH  28  30
ENDBRANCH  27  28
ENDBRANCH  19  27
ENDBRANCH   1  20
BRANCH   5  31
ATOM     31  C   UNL     1      -1.178   1.648  -1.033  0.00  0.00    -0.043 A 
ATOM     32  C   UNL     1      -0.810   1.266  -2.310  0.00  0.00    +0.004 A 
ATOM     33  C   UNL     1      -1.590   1.630  -3.392  0.00  0.00    +0.004 A 
ATOM     34  C   UNL     1      -2.733   2.383  -3.198  0.00  0.00    -0.048 A 
ATOM     35  C   UNL     1      -3.098   2.769  -1.922  0.00  0.00    +0.004 A 
ATOM     36  C   UNL     1      -2.321   2.402  -0.839  0.00  0.00    +0.004 A 
BRANCH  34  37
ATOM     37  C   UNL     1      -3.581   2.782  -4.378  0.00  0.00    +0.032 C 
ATOM     38  C   UNL     1      -3.096   4.127  -4.922  0.00  0.00    +0.009 C 
ENDBRANCH  34  37
ENDBRANCH   5  31
TORSDOF 7
