REMARK  Name = ZINC20634169
REMARK  8 active torsions:
REMARK  status: ('A' for Active; 'I' for Inactive)
REMARK    1  A    between atoms: C_1  and  C_2
REMARK    2  A    between atoms: C_8  and  C_24
REMARK    3  A    between atoms: C_10  and  N_12
REMARK    4  A    between atoms: N_16  and  C_19
REMARK    5  A    between atoms: C_19  and  C_20
REMARK    6  A    between atoms: C_19  and  C_21
REMARK    7  A    between atoms: C_19  and  C_22
REMARK    8  A    between atoms: C_22  and  O_23
REMARK                            x       y       z     vdW  Elec       q    Type
REMARK                         _______ _______ _______ _____ _____    ______ ____
ROOT
ATOM      1  N   UNL     1       0.093  -6.131   1.077  0.00  0.00    -0.181 NA
ATOM      2  C   UNL     1       0.096  -6.771  -0.075  0.00  0.00    +0.185 C 
ATOM      3  N   UNL     1       0.086  -6.103  -1.285  0.00  0.00    -0.304 N 
ATOM      4  C   UNL     1      -0.769  -6.657  -2.348  0.00  0.00    +0.193 C 
ATOM      5  N   UNL     1      -0.510  -8.101  -2.458  0.00  0.00    -0.264 NA
ATOM      6  C   UNL     1      -0.744  -8.776  -1.171  0.00  0.00    +0.193 C 
ATOM      7  N   UNL     1       0.115  -8.150  -0.148  0.00  0.00    -0.304 N 
ATOM      8  H   UNL     1       0.667  -8.681   0.448  0.00  0.00    +0.150 HD
ATOM      9  H   UNL     1       0.618  -5.305  -1.427  0.00  0.00    +0.150 HD
ENDROOT
BRANCH   1  19
ATOM     10  C   UNL     1      -0.018   1.503   0.010  0.00  0.00    +0.044 C 
ATOM     11  C   UNL     1       0.002  -0.004   0.002  0.00  0.00    -0.050 A 
ATOM     12  C   UNL     1       0.006  -0.684  -1.214  0.00  0.00    +0.005 A 
ATOM     13  C   UNL     1       0.024  -2.045  -1.258  0.00  0.00    +0.029 A 
ATOM     14  C   UNL     1       0.040  -2.777  -0.061  0.00  0.00    +0.077 A 
ATOM     15  C   UNL     1       0.037  -2.084   1.177  0.00  0.00    +0.022 A 
ATOM     16  C   UNL     1       0.022  -0.682   1.184  0.00  0.00    +0.015 A 
ATOM     17  C   UNL     1       0.054  -2.836   2.367  0.00  0.00    +0.051 A 
ATOM     18  N   UNL     1       0.071  -4.148   2.282  0.00  0.00    -0.215 NA
ATOM     19  C   UNL     1       0.074  -4.772   1.100  0.00  0.00    +0.254 A 
ATOM     20  N   UNL     1       0.059  -4.115  -0.051  0.00  0.00    -0.211 NA
ATOM     21  C   UNL     1       0.052  -2.151   3.710  0.00  0.00    +0.066 C 
ENDBRANCH   1  19
BRANCH   5  22
ATOM     22  C   UNL     1      -1.323  -8.702  -3.523  0.00  0.00    +0.042 C 
ATOM     23  C   UNL     1      -2.806  -8.492  -3.213  0.00  0.00    +0.030 C 
ATOM     24  C   UNL     1      -0.983  -8.040  -4.860  0.00  0.00    +0.030 C 
BRANCH  22  25
ATOM     25  C   UNL     1      -1.027 -10.201  -3.606  0.00  0.00    +0.177 C 
BRANCH  25  26
ATOM     26  O   UNL     1      -1.818 -10.786  -4.643  0.00  0.00    -0.393 OA
ATOM     27  H   UNL     1      -1.681 -11.737  -4.753  0.00  0.00    +0.209 HD
ENDBRANCH  25  26
ENDBRANCH  22  25
ENDBRANCH   5  22
TORSDOF 4
