REMARK  Name = ZINC03854786
REMARK  8 active torsions:
REMARK  status: ('A' for Active; 'I' for Inactive)
REMARK    1  A    between atoms: C_1  and  C_2
REMARK    2  A    between atoms: C_2  and  C_3
REMARK    3  A    between atoms: C_8  and  N_9
REMARK    4  A    between atoms: C_13  and  C_32
REMARK    5  A    between atoms: C_19  and  S_20
REMARK    6  A    between atoms: S_20  and  C_21
REMARK    7  A    between atoms: C_21  and  C_22
REMARK    8  A    between atoms: N_24  and  C_25
REMARK                            x       y       z     vdW  Elec       q    Type
REMARK                         _______ _______ _______ _____ _____    ______ ____
ROOT
ATOM      1  N   UNL     1      -1.246   2.058   0.019  0.00  0.00    -0.274 N 
ATOM      2  C   UNL     1      -1.845   2.374   1.229  0.00  0.00    +0.124 A 
ATOM      3  N   UNL     1      -1.291   2.055   2.368  0.00  0.00    -0.384 N 
ATOM      4  C   UNL     1      -3.131   3.091   1.175  0.00  0.00    +0.082 A 
ATOM      5  C   UNL     1      -4.017   3.580   2.099  0.00  0.00    +0.072 A 
ATOM      6  N   UNL     1      -5.034   4.149   1.431  0.00  0.00    -0.177 NA
ATOM      7  H   UNL     1      -5.419   4.375  -0.803  0.00  0.00    +0.191 HD
ATOM      8  N   UNL     1      -4.817   4.035   0.053  0.00  0.00    -0.260 N 
ATOM      9  C   UNL     1      -3.683   3.405  -0.151  0.00  0.00    +0.162 A 
ATOM     10  N   UNL     1      -2.983   3.025  -1.254  0.00  0.00    -0.204 NA
ATOM     11  C   UNL     1      -1.843   2.395  -1.166  0.00  0.00    +0.177 A 
ATOM     12  C   UNL     1      -3.875   3.494   3.597  0.00  0.00    +0.068 C 
ATOM     13  H   UNL     1      -1.787   2.318   3.314  0.00  0.00    +0.157 HD
ATOM     14  H   UNL     1      -0.328   1.523   2.381  0.00  0.00    +0.157 HD
ENDROOT
BRANCH   1  20
ATOM     15  C   UNL     1       0.008  -0.008  -0.001  0.00  0.00    -0.024 A 
ATOM     16  C   UNL     1       1.219  -0.673  -0.016  0.00  0.00    +0.005 A 
ATOM     17  C   UNL     1       2.402   0.042  -0.020  0.00  0.00    +0.000 A 
ATOM     18  C   UNL     1       2.378   1.425  -0.009  0.00  0.00    +0.002 A 
ATOM     19  C   UNL     1       1.171   2.096   0.006  0.00  0.00    +0.026 A 
ATOM     20  C   UNL     1      -0.020   1.380   0.010  0.00  0.00    +0.053 A 
BRANCH  15  22
ATOM     21  C   UNL     1      -1.794  -0.933  -1.432  0.00  0.00    +0.009 C 
ATOM     22  C   UNL     1      -1.281  -0.788   0.002  0.00  0.00    +0.034 C 
ENDBRANCH  15  22
ENDBRANCH   1  20
BRANCH  11  23
ATOM     23  S   UNL     1      -1.023   1.953  -2.662  0.00  0.00    -0.078 S 
BRANCH  23  24
ATOM     24  C   UNL     1      -2.199   2.610  -3.871  0.00  0.00    +0.173 C 
BRANCH  24  25
ATOM     25  C   UNL     1      -1.691   2.339  -5.264  0.00  0.00    +0.227 C 
ATOM     26  O   UNL     1      -0.637   1.759  -5.423  0.00  0.00    -0.275 OA
ATOM     27  N   UNL     1      -2.407   2.741  -6.332  0.00  0.00    -0.285 N 
ATOM     28  H   UNL     1      -3.397   3.199  -6.190  0.00  0.00    +0.155 HD
BRANCH  27  29
ATOM     29  C   UNL     1      -1.891   2.577  -7.623  0.00  0.00    +0.033 A 
ATOM     30  C   UNL     1      -2.158   3.522  -8.604  0.00  0.00    +0.024 A 
ATOM     31  C   UNL     1      -1.644   3.360  -9.876  0.00  0.00    +0.017 A 
ATOM     32  C   UNL     1      -0.871   2.252 -10.175  0.00  0.00    +0.018 A 
ATOM     33  C   UNL     1      -0.608   1.306  -9.200  0.00  0.00    +0.017 A 
ATOM     34  C   UNL     1      -1.116   1.465  -7.926  0.00  0.00    +0.024 A 
ATOM     35 BR   UNL     1      -0.174   2.030 -11.918  0.00  0.00    -0.050 Br
ENDBRANCH  27  29
ENDBRANCH  24  25
ENDBRANCH  23  24
ENDBRANCH  11  23
TORSDOF 6
