REMARK  Name = ZINC43736462
REMARK  10 active torsions:
REMARK  status: ('A' for Active; 'I' for Inactive)
REMARK    1  A    between atoms: C_1  and  C_2
REMARK    2  A    between atoms: C_2  and  O_3
REMARK    3  A    between atoms: O_3  and  C_4
REMARK    4  A    between atoms: C_4  and  C_6
REMARK    5  A    between atoms: C_6  and  C_36
REMARK    6  A    between atoms: C_13  and  C_35
REMARK    7  A    between atoms: C_24  and  C_34
REMARK    8  A    between atoms: C_27  and  O_30
REMARK    9  A    between atoms: O_30  and  C_31
REMARK   10  A    between atoms: C_31  and  C_33
REMARK                            x       y       z     vdW  Elec       q    Type
REMARK                         _______ _______ _______ _____ _____    ______ ____
ROOT
ATOM      1  C   UNL     1      -2.655  -2.692  -0.221  0.00  0.00    +0.271 C 
ATOM      2  C   UNL     1      -2.957  -4.002   0.496  0.00  0.00    +0.125 C 
ATOM      3  O   UNL     1      -3.238  -2.740   1.085  0.00  0.00    -0.341 OA
ATOM      4  C   UNL     1      -1.837  -4.908   1.023  0.00  0.00    +0.040 C 
ATOM      5  C   UNL     1      -2.322  -6.363   0.813  0.00  0.00    +0.007 C 
ATOM      6  C   UNL     1      -3.361  -6.236  -0.316  0.00  0.00    +0.001 C 
ATOM      7  C   UNL     1      -4.098  -4.925   0.011  0.00  0.00    +0.004 C 
ATOM      8  C   UNL     1      -5.047  -5.119   1.196  0.00  0.00    +0.010 C 
ATOM      9  C   UNL     1      -5.999  -6.285   0.943  0.00  0.00    +0.005 C 
ATOM     10  C   UNL     1      -5.173  -7.569   0.811  0.00  0.00    -0.001 C 
ATOM     11  C   UNL     1      -4.282  -7.428  -0.399  0.00  0.00    -0.004 C 
ATOM     12  C   UNL     1      -3.477  -8.720  -0.557  0.00  0.00    +0.004 C 
ATOM     13  C   UNL     1      -4.434  -9.900  -0.731  0.00  0.00    +0.004 C 
ATOM     14  C   UNL     1      -5.341 -10.008   0.496  0.00  0.00    -0.001 C 
ATOM     15  C   UNL     1      -6.118  -8.760   0.642  0.00  0.00    -0.026 C 
ATOM     16  C   UNL     1      -7.011  -8.883   1.878  0.00  0.00    +0.011 C 
ATOM     17  C   UNL     1      -6.141  -9.102   3.118  0.00  0.00    +0.045 C 
ATOM     18  C   UNL     1      -5.324 -10.385   2.947  0.00  0.00    +0.177 C 
ATOM     19  C   UNL     1      -4.486 -10.232   1.745  0.00  0.00    +0.048 C 
ATOM     20  C   UNL     1      -6.991  -8.547  -0.596  0.00  0.00    +0.012 C 
ATOM     21  C   UNL     1      -4.808  -4.354  -1.217  0.00  0.00    +0.014 C 
ENDROOT
BRANCH   1  22
ATOM     22  C   UNL     1      -3.543  -2.300  -1.373  0.00  0.00    +0.257 C 
ATOM     23  O   UNL     1      -4.561  -1.673  -1.169  0.00  0.00    -0.272 OA
ATOM     24  N   UNL     1      -3.206  -2.645  -2.632  0.00  0.00    -0.326 N 
ATOM     25  H   UNL     1      -2.391  -3.146  -2.796  0.00  0.00    +0.145 HD
ATOM     26  H   UNL     1      -3.777  -2.392  -3.374  0.00  0.00    +0.145 HD
ENDBRANCH   1  22
BRANCH   1  27
ATOM     27  C   UNL     1      -1.214  -2.268  -0.331  0.00  0.00    +0.352 C 
ATOM     28  O   UNL     1      -0.338  -3.100  -0.343  0.00  0.00    -0.247 OA
BRANCH  27  29
ATOM     29  O   UNL     1      -0.902  -0.965  -0.417  0.00  0.00    -0.462 OA
BRANCH  29  31
ATOM     30  C   UNL     1       0.641   0.885  -0.607  0.00  0.00    +0.048 C 
ATOM     31  C   UNL     1       0.484  -0.634  -0.520  0.00  0.00    +0.229 C 
ENDBRANCH  29  31
ENDBRANCH  27  29
ENDBRANCH   1  27
BRANCH  18  32
ATOM     32  O   UNL     1      -4.513 -10.591   4.105  0.00  0.00    -0.462 OA
BRANCH  32  33
ATOM     33  C   UNL     1      -5.048 -11.306   5.106  0.00  0.00    +0.304 C 
ATOM     34  O   UNL     1      -6.170 -11.745   5.003  0.00  0.00    -0.251 OA
ATOM     35  C   UNL     1      -4.252 -11.564   6.359  0.00  0.00    +0.136 C 
ENDBRANCH  32  33
ENDBRANCH  18  32
TORSDOF 6
