REMARK  Name = ZINC04251931
REMARK  8 active torsions:
REMARK  status: ('A' for Active; 'I' for Inactive)
REMARK    1  A    between atoms: C_1  and  C_2
REMARK    2  A    between atoms: C_2  and  C_4
REMARK    3  A    between atoms: C_2  and  S_17
REMARK    4  A    between atoms: N_6  and  C_7
REMARK    5  A    between atoms: C_11  and  N_13
REMARK    6  A    between atoms: S_17  and  C_18
REMARK    7  A    between atoms: C_20  and  C_24
REMARK    8  A    between atoms: N_22  and  N_23
REMARK                            x       y       z     vdW  Elec       q    Type
REMARK                         _______ _______ _______ _____ _____    ______ ____
ROOT
ATOM      1  C   UNL     1       5.291   4.282  -1.702  0.00  0.00    +0.029 C 
ATOM      2  C   UNL     1       4.863   4.233  -0.234  0.00  0.00    +0.137 C 
ENDROOT
BRANCH   2   3
ATOM      3  C   UNL     1       3.569   3.470  -0.113  0.00  0.00    +0.230 C 
ATOM      4  O   UNL     1       2.513   4.067  -0.101  0.00  0.00    -0.274 OA
ATOM      5  N   UNL     1       3.585   2.126  -0.019  0.00  0.00    -0.285 N 
ATOM      6  H   UNL     1       4.430   1.655   0.047  0.00  0.00    +0.155 HD
BRANCH   5   7
ATOM      7  C   UNL     1       2.381   1.410  -0.018  0.00  0.00    +0.036 A 
ATOM      8  C   UNL     1       2.269   0.239   0.720  0.00  0.00    +0.026 A 
ATOM      9  C   UNL     1       1.082  -0.466   0.719  0.00  0.00    +0.042 A 
ATOM     10  C   UNL     1       0.003  -0.006  -0.018  0.00  0.00    +0.154 A 
ATOM     11  C   UNL     1       0.112   1.161  -0.754  0.00  0.00    +0.163 A 
ATOM     12  C   UNL     1       1.298   1.869  -0.756  0.00  0.00    +0.059 A 
ATOM     13  F   UNL     1      -1.158  -0.697  -0.018  0.00  0.00    -0.203 F 
BRANCH  11  14
ATOM     14  N   UNL     1      -1.042   1.651  -1.540  0.00  0.00    +0.059 N 
ATOM     15  O   UNL     1      -0.947   2.678  -2.188  0.00  0.00    -0.126 OA
ATOM     16  O   UNL     1      -2.088   1.026  -1.539  0.00  0.00    -0.126 OA
ENDBRANCH  11  14
ENDBRANCH   5   7
ENDBRANCH   2   3
BRANCH   2  17
ATOM     17  S   UNL     1       4.631   5.918   0.383  0.00  0.00    -0.074 S 
BRANCH  17  18
ATOM     18  C   UNL     1       6.284   6.516   0.271  0.00  0.00    +0.187 A 
ATOM     19  N   UNL     1       7.318   5.829  -0.154  0.00  0.00    -0.221 NA
ATOM     20  C   UNL     1       8.424   6.614  -0.103  0.00  0.00    +0.092 A 
ATOM     21  C   UNL     1       8.053   7.826   0.379  0.00  0.00    +0.138 A 
ATOM     22  N   UNL     1       6.702   7.766   0.616  0.00  0.00    -0.251 N 
BRANCH  20  23
ATOM     23  C   UNL     1       9.796   6.214  -0.499  0.00  0.00    +0.002 A 
ATOM     24  C   UNL     1      10.847   7.123  -0.395  0.00  0.00    +0.010 A 
ATOM     25  C   UNL     1      12.123   6.745  -0.761  0.00  0.00    +0.001 A 
ATOM     26  C   UNL     1      12.357   5.468  -1.239  0.00  0.00    +0.000 A 
ATOM     27  C   UNL     1      11.317   4.563  -1.349  0.00  0.00    +0.001 A 
ATOM     28  C   UNL     1      10.039   4.929  -0.982  0.00  0.00    +0.010 A 
ENDBRANCH  20  23
BRANCH  22  29
ATOM     29  N   UNL     1       5.920   8.773   1.106  0.00  0.00    -0.296 N 
ATOM     30  H   UNL     1       5.880   8.741   2.114  0.00  0.00    +0.163 HD
ATOM     31  H   UNL     1       6.246   9.672   0.785  0.00  0.00    +0.163 HD
ENDBRANCH  22  29
ENDBRANCH  17  18
ENDBRANCH   2  17
TORSDOF 7
