REMARK  Name = ZINC31784678
REMARK  13 active torsions:
REMARK  status: ('A' for Active; 'I' for Inactive)
REMARK    1  A    between atoms: C_1  and  C_2
REMARK    2  A    between atoms: C_2  and  C_3
REMARK    3  A    between atoms: C_2  and  C_4
REMARK    4  A    between atoms: C_2  and  N_5
REMARK    5  A    between atoms: N_5  and  S_6
REMARK    6  A    between atoms: S_6  and  C_9
REMARK    7  A    between atoms: C_12  and  N_18
REMARK    8  A    between atoms: C_13  and  N_15
REMARK    9  A    between atoms: N_18  and  C_19
REMARK   10  A    between atoms: C_19  and  C_20
REMARK   11  A    between atoms: C_20  and  N_21
REMARK   12  A    between atoms: N_24  and  C_34
REMARK   13  A    between atoms: C_26  and  C_28
REMARK                            x       y       z     vdW  Elec       q    Type
REMARK                         _______ _______ _______ _____ _____    ______ ____
ROOT
ATOM      1  N   UNL     1      -3.164   3.515   4.526  0.00  0.00    -0.344 N 
ATOM      2  H   UNL     1      -4.022   3.027   5.011  0.00  0.00    +0.146 HD
ENDROOT
BRANCH   1   6
ATOM      3  C   UNL     1      -1.188   1.611   1.394  0.00  0.00    +0.108 A 
ATOM      4  C   UNL     1      -0.686   2.792   1.910  0.00  0.00    +0.030 A 
ATOM      5  C   UNL     1      -1.342   3.429   2.945  0.00  0.00    +0.027 A 
ATOM      6  C   UNL     1      -2.501   2.876   3.475  0.00  0.00    +0.058 A 
ATOM      7  C   UNL     1      -2.999   1.687   2.958  0.00  0.00    +0.149 A 
ATOM      8  C   UNL     1      -2.341   1.058   1.920  0.00  0.00    +0.063 A 
BRANCH   3   9
ATOM      9  S   UNL     1      -0.351   0.805   0.070  0.00  0.00    +0.059 S 
ATOM     10  O   UNL     1      -0.386  -0.587   0.354  0.00  0.00    -0.153 OA
ATOM     11  O   UNL     1       0.866   1.511  -0.132  0.00  0.00    -0.153 OA
BRANCH   9  12
ATOM     12  N   UNL     1      -1.261   1.032  -1.295  0.00  0.00    -0.185 NA
ATOM     13  H   UNL     1      -1.911   0.219  -1.649  0.00  0.00    +0.149 HD
BRANCH  12  15
ATOM     14  C   UNL     1       0.006   2.802  -2.410  0.00  0.00    +0.029 C 
ATOM     15  C   UNL     1      -1.366   2.366  -1.892  0.00  0.00    +0.032 C 
ATOM     16  C   UNL     1      -2.361   2.328  -3.054  0.00  0.00    +0.029 C 
ATOM     17  C   UNL     1      -1.852   3.361  -0.836  0.00  0.00    +0.029 C 
ENDBRANCH  12  15
ENDBRANCH   9  12
ENDBRANCH   3   9
BRANCH   7  18
ATOM     18  N   UNL     1      -4.234   1.095   3.520  0.00  0.00    +0.058 N 
ATOM     19  O   UNL     1      -4.633   0.018   3.113  0.00  0.00    -0.126 OA
ATOM     20  O   UNL     1      -4.851   1.683   4.389  0.00  0.00    -0.126 OA
ENDBRANCH   7  18
ENDBRANCH   1   6
BRANCH   1  21
ATOM     21  C   UNL     1      -2.717   4.833   4.980  0.00  0.00    +0.083 C 
BRANCH  21  22
ATOM     22  C   UNL     1      -3.606   5.304   6.133  0.00  0.00    -0.059 C 
BRANCH  22  23
ATOM     23  N   UNL     1      -3.157   6.627   6.589  0.00  0.00    +0.383 N 
ATOM     24  C   UNL     1      -2.920   7.524   5.450  0.00  0.00    -0.097 C 
ATOM     25  C   UNL     1      -2.379   8.861   5.962  0.00  0.00    -0.098 C 
ATOM     26  N   UNL     1      -3.344   9.450   6.900  0.00  0.00    +0.376 N 
ATOM     27  C   UNL     1      -3.581   8.553   8.040  0.00  0.00    -0.090 C 
ATOM     28  C   UNL     1      -4.122   7.215   7.528  0.00  0.00    -0.055 C 
ATOM     29  C   UNL     1      -2.895  10.773   7.356  0.00  0.00    -0.096 C 
ATOM     30  H   UNL     1      -2.203   6.494   7.121  0.00  0.00    -0.081 HD
ATOM     31  H   UNL     1      -4.298   9.583   6.369  0.00  0.00    -0.082 HD
BRANCH  28  32
ATOM     32  C   UNL     1      -4.328   6.279   8.691  0.00  0.00    -0.063 A 
ATOM     33  C   UNL     1      -3.253   5.595   9.227  0.00  0.00    +0.002 A 
ATOM     34  C   UNL     1      -3.441   4.740  10.296  0.00  0.00    +0.000 A 
ATOM     35  C   UNL     1      -4.706   4.560  10.823  0.00  0.00    +0.000 A 
ATOM     36  C   UNL     1      -5.782   5.239  10.283  0.00  0.00    +0.000 A 
ATOM     37  C   UNL     1      -5.593   6.098   9.217  0.00  0.00    +0.002 A 
ENDBRANCH  28  32
ENDBRANCH  22  23
ENDBRANCH  21  22
ENDBRANCH   1  21
TORSDOF 9
