REMARK  Name = ZINC46654092
REMARK  7 active torsions:
REMARK  status: ('A' for Active; 'I' for Inactive)
REMARK    1  A    between atoms: C_1  and  C_2
REMARK    2  A    between atoms: C_5  and  S_23
REMARK    3  A    between atoms: C_7  and  C_8
REMARK    4  A    between atoms: N_10  and  C_11
REMARK    5  A    between atoms: C_18  and  C_20
REMARK    6  A    between atoms: S_23  and  N_26
REMARK    7  A    between atoms: N_26  and  C_27
REMARK                            x       y       z     vdW  Elec       q    Type
REMARK                         _______ _______ _______ _____ _____    ______ ____
ROOT
ATOM      1  C   UNL     1       0.615   1.391   0.657  0.00  0.00    +0.044 C 
ATOM      2  C   UNL     1       0.474  -0.088   0.405  0.00  0.00    -0.038 A 
ATOM      3  C   UNL     1       0.113  -0.545  -0.846  0.00  0.00    +0.006 A 
ATOM      4  C   UNL     1      -0.016  -1.903  -1.079  0.00  0.00    +0.029 A 
ATOM      5  C   UNL     1       0.215  -2.811  -0.061  0.00  0.00    +0.109 A 
ATOM      6  C   UNL     1       0.576  -2.367   1.194  0.00  0.00    +0.042 A 
ATOM      7  C   UNL     1       0.715  -0.999   1.435  0.00  0.00    +0.042 A 
ENDROOT
BRANCH   7   8
ATOM      8  C   UNL     1       1.107  -0.517   2.776  0.00  0.00    +0.249 C 
ATOM      9  O   UNL     1       1.159   0.677   3.001  0.00  0.00    -0.270 OA
ATOM     10  N   UNL     1       1.407  -1.400   3.749  0.00  0.00    -0.281 N 
ATOM     11  H   UNL     1       1.296  -2.351   3.591  0.00  0.00    +0.155 HD
BRANCH  10  12
ATOM     12  C   UNL     1       1.878  -0.945   4.986  0.00  0.00    +0.036 A 
ATOM     13  C   UNL     1       1.390   0.245   5.520  0.00  0.00    +0.027 A 
ATOM     14  C   UNL     1       1.846   0.703   6.737  0.00  0.00    +0.050 A 
ATOM     15  C   UNL     1       2.797  -0.023   7.438  0.00  0.00    +0.155 A 
ATOM     16  C   UNL     1       3.293  -1.224   6.907  0.00  0.00    +0.111 A 
ATOM     17  C   UNL     1       2.823  -1.683   5.676  0.00  0.00    +0.055 A 
ATOM     18  N   UNL     1       4.197  -1.700   7.806  0.00  0.00    -0.213 NA
ATOM     19  C   UNL     1       4.263  -0.878   8.809  0.00  0.00    +0.200 A 
ATOM     20  O   UNL     1       3.426   0.155   8.621  0.00  0.00    -0.439 OA
BRANCH  19  21
ATOM     21  C   UNL     1       5.153  -1.056  10.012  0.00  0.00    +0.075 C 
ATOM     22  C   UNL     1       4.955  -0.097  11.187  0.00  0.00    +0.013 C 
ATOM     23  C   UNL     1       6.189   0.034  10.293  0.00  0.00    +0.013 C 
ENDBRANCH  19  21
ENDBRANCH  10  12
ENDBRANCH   7   8
BRANCH   5  24
ATOM     24  S   UNL     1       0.048  -4.538  -0.368  0.00  0.00    +0.072 S 
ATOM     25  O   UNL     1      -0.334  -5.135   0.864  0.00  0.00    -0.150 OA
ATOM     26  O   UNL     1      -0.731  -4.666  -1.550  0.00  0.00    -0.150 OA
BRANCH  24  27
ATOM     27  N   UNL     1       1.555  -5.120  -0.729  0.00  0.00    -0.216 N 
ATOM     28  H   UNL     1       1.963  -5.795  -0.164  0.00  0.00    +0.174 HD
BRANCH  27  29
ATOM     29  C   UNL     1       2.241  -4.638  -1.848  0.00  0.00    +0.048 A 
ATOM     30  C   UNL     1       1.584  -4.513  -3.065  0.00  0.00    +0.027 A 
ATOM     31  C   UNL     1       2.263  -4.036  -4.170  0.00  0.00    +0.040 A 
ATOM     32  C   UNL     1       3.598  -3.684  -4.064  0.00  0.00    +0.124 A 
ATOM     33  C   UNL     1       4.255  -3.809  -2.852  0.00  0.00    +0.040 A 
ATOM     34  C   UNL     1       3.579  -4.279  -1.743  0.00  0.00    +0.027 A 
ATOM     35  F   UNL     1       4.261  -3.219  -5.146  0.00  0.00    -0.205 F 
ENDBRANCH  27  29
ENDBRANCH  24  27
ENDBRANCH   5  24
TORSDOF 6
