REMARK  Name = ZINC09031870
REMARK  9 active torsions:
REMARK  status: ('A' for Active; 'I' for Inactive)
REMARK    1  A    between atoms: C_1  and  C_2
REMARK    2  A    between atoms: C_2  and  C_3
REMARK    3  A    between atoms: C_3  and  O_4
REMARK    4  A    between atoms: O_4  and  C_5
REMARK    5  A    between atoms: C_8  and  N_11
REMARK    6  A    between atoms: C_15  and  S_19
REMARK    7  A    between atoms: S_19  and  C_20
REMARK    8  A    between atoms: C_23  and  C_34
REMARK    9  A    between atoms: C_26  and  C_28
REMARK                            x       y       z     vdW  Elec       q    Type
REMARK                         _______ _______ _______ _____ _____    ______ ____
ROOT
ATOM      1  C   UNL     1       5.197  -8.450  -6.020  0.00  0.00    +0.149 C 
ATOM      2  N   UNL     1       3.937  -8.771  -5.907  0.00  0.00    -0.380 N 
ATOM      3  N   UNL     1       6.172  -9.355  -5.666  0.00  0.00    -0.195 N 
ATOM      4  C   UNL     1       5.934 -10.714  -5.155  0.00  0.00    +0.136 C 
ATOM      5  C   UNL     1       7.354 -11.269  -4.928  0.00  0.00    +0.087 C 
ATOM      6  C   UNL     1       8.260 -10.133  -5.347  0.00  0.00    +0.069 C 
ATOM      7  N   UNL     1       7.546  -9.135  -5.739  0.00  0.00    -0.182 NA
ATOM      8  H   UNL     1       3.688  -9.647  -5.574  0.00  0.00    +0.158 HD
ATOM      9  H   UNL     1       3.250  -8.133  -6.156  0.00  0.00    +0.158 HD
ENDROOT
BRANCH   6  10
ATOM     10  C   UNL     1       9.735 -10.165  -5.317  0.00  0.00    -0.002 A 
ATOM     11  C   UNL     1      10.403 -11.312  -4.882  0.00  0.00    +0.010 A 
ATOM     12  C   UNL     1      11.782 -11.335  -4.858  0.00  0.00    +0.001 A 
ATOM     13  C   UNL     1      12.503 -10.225  -5.263  0.00  0.00    +0.000 A 
ATOM     14  C   UNL     1      11.848  -9.086  -5.695  0.00  0.00    +0.001 A 
ATOM     15  C   UNL     1      10.469  -9.051  -5.730  0.00  0.00    +0.010 A 
ENDBRANCH   6  10
BRANCH   4  16
ATOM     16  C   UNL     1       5.167 -10.666  -3.858  0.00  0.00    -0.025 A 
ATOM     17  C   UNL     1       5.436  -9.675  -2.932  0.00  0.00    +0.005 A 
ATOM     18  C   UNL     1       4.732  -9.632  -1.743  0.00  0.00    +0.000 A 
ATOM     19  C   UNL     1       3.759 -10.578  -1.481  0.00  0.00    +0.000 A 
ATOM     20  C   UNL     1       3.490 -11.568  -2.407  0.00  0.00    +0.000 A 
ATOM     21  C   UNL     1       4.190 -11.609  -3.598  0.00  0.00    +0.005 A 
ENDBRANCH   4  16
BRANCH   1  22
ATOM     22  S   UNL     1       5.649  -6.858  -6.625  0.00  0.00    -0.078 S 
BRANCH  22  27
ATOM     23  N   UNL     1       3.196  -4.381  -5.569  0.00  0.00    -0.209 N 
ATOM     24  C   UNL     1       3.678  -3.697  -6.614  0.00  0.00    +0.228 C 
ATOM     25  O   UNL     1       3.639  -2.493  -6.744  0.00  0.00    -0.275 OA
ATOM     26  C   UNL     1       4.281  -4.667  -7.608  0.00  0.00    +0.120 C 
ATOM     27  C   UNL     1       4.061  -6.043  -6.949  0.00  0.00    +0.149 C 
ATOM     28  C   UNL     1       3.362  -5.707  -5.649  0.00  0.00    +0.240 C 
ATOM     29  O   UNL     1       3.006  -6.511  -4.815  0.00  0.00    -0.274 OA
BRANCH  23  33
ATOM     30  C   UNL     1       1.343  -2.529  -2.322  0.00  0.00    +0.121 A 
ATOM     31  C   UNL     1       2.567  -3.159  -2.155  0.00  0.00    +0.047 A 
ATOM     32  C   UNL     1       3.181  -3.772  -3.230  0.00  0.00    +0.027 A 
ATOM     33  C   UNL     1       2.572  -3.758  -4.477  0.00  0.00    +0.044 A 
ATOM     34  C   UNL     1       1.347  -3.127  -4.644  0.00  0.00    +0.027 A 
ATOM     35  C   UNL     1       0.732  -2.519  -3.568  0.00  0.00    +0.047 A 
BRANCH  30  36
ATOM     36  O   UNL     1       0.739  -1.926  -1.264  0.00  0.00    -0.492 OA
BRANCH  36  37
ATOM     37  C   UNL     1       1.425  -1.974  -0.012  0.00  0.00    +0.229 C 
BRANCH  37  39
ATOM     38  C   UNL     1       1.332  -1.300   2.392  0.00  0.00    +0.007 C 
ATOM     39  C   UNL     1       0.598  -1.248   1.051  0.00  0.00    +0.038 C 
ENDBRANCH  37  39
ENDBRANCH  36  37
ENDBRANCH  30  36
ENDBRANCH  23  33
ENDBRANCH  22  27
ENDBRANCH   1  22
TORSDOF 8
