REMARK  Name = ZINC13682394
REMARK  9 active torsions:
REMARK  status: ('A' for Active; 'I' for Inactive)
REMARK    1  A    between atoms: C_1  and  C_2
REMARK    2  A    between atoms: C_4  and  C_18
REMARK    3  A    between atoms: C_7  and  N_8
REMARK    4  A    between atoms: N_8  and  S_9
REMARK    5  A    between atoms: S_9  and  C_12
REMARK    6  A    between atoms: N_20  and  C_21
REMARK    7  A    between atoms: C_22  and  C_34
REMARK    8  A    between atoms: N_23  and  C_33
REMARK    9  A    between atoms: N_24  and  C_27
REMARK                            x       y       z     vdW  Elec       q    Type
REMARK                         _______ _______ _______ _____ _____    ______ ____
ROOT
ATOM      1  C   UNL     1       4.349  -1.484  -4.220  0.00  0.00    +0.046 C 
ATOM      2  C   UNL     1       4.803  -0.145  -3.697  0.00  0.00    -0.027 A 
ATOM      3  C   UNL     1       4.897   0.930  -4.551  0.00  0.00    +0.018 A 
ATOM      4  C   UNL     1       5.324   2.170  -4.066  0.00  0.00    +0.037 A 
ATOM      5  C   UNL     1       5.649   2.315  -2.714  0.00  0.00    +0.015 A 
ATOM      6  C   UNL     1       5.548   1.237  -1.865  0.00  0.00    +0.025 A 
ATOM      7  C   UNL     1       5.122   0.003  -2.350  0.00  0.00    +0.051 A 
ENDROOT
BRANCH   4   8
ATOM      8  C   UNL     1       5.430   3.324  -4.979  0.00  0.00    +0.248 C 
ATOM      9  O   UNL     1       5.147   3.196  -6.155  0.00  0.00    -0.270 OA
ATOM     10  N   UNL     1       5.842   4.518  -4.511  0.00  0.00    -0.276 N 
ATOM     11  H   UNL     1       6.137   4.603  -3.591  0.00  0.00    +0.155 HD
BRANCH  10  12
ATOM     12  C   UNL     1       5.843   5.644  -5.357  0.00  0.00    +0.121 A 
ATOM     13  C   UNL     1       5.207   6.816  -5.133  0.00  0.00    +0.059 A 
ATOM     14  N   UNL     1       5.453   7.655  -6.188  0.00  0.00    -0.282 N 
ATOM     15  N   UNL     1       6.271   7.000  -7.115  0.00  0.00    -0.216 N 
ATOM     16  C   UNL     1       6.537   5.766  -6.639  0.00  0.00    +0.293 A 
ATOM     17  O   UNL     1       7.223   4.915  -7.176  0.00  0.00    -0.264 OA
ATOM     18  C   UNL     1       4.940   9.021  -6.324  0.00  0.00    +0.171 C 
ATOM     19  C   UNL     1       4.369   7.145  -3.925  0.00  0.00    +0.067 C 
BRANCH  15  20
ATOM     20  C   UNL     1       6.735   7.533  -8.321  0.00  0.00    +0.067 A 
ATOM     21  C   UNL     1       5.854   8.165  -9.189  0.00  0.00    +0.028 A 
ATOM     22  C   UNL     1       6.317   8.695 -10.377  0.00  0.00    +0.002 A 
ATOM     23  C   UNL     1       7.655   8.588 -10.709  0.00  0.00    +0.000 A 
ATOM     24  C   UNL     1       8.535   7.954  -9.850  0.00  0.00    +0.002 A 
ATOM     25  C   UNL     1       8.079   7.427  -8.657  0.00  0.00    +0.028 A 
ENDBRANCH  15  20
ENDBRANCH  10  12
ENDBRANCH   4   8
BRANCH   7  26
ATOM     26  N   UNL     1       5.021  -1.084  -1.489  0.00  0.00    -0.216 N 
ATOM     27  H   UNL     1       5.237  -1.975  -1.806  0.00  0.00    +0.174 HD
BRANCH  26  28
ATOM     28  S   UNL     1       4.533  -0.858   0.077  0.00  0.00    +0.072 S 
ATOM     29  O   UNL     1       5.386   0.137   0.628  0.00  0.00    -0.150 OA
ATOM     30  O   UNL     1       4.400  -2.150   0.652  0.00  0.00    -0.150 OA
BRANCH  28  31
ATOM     31  C   UNL     1       2.916  -0.161   0.023  0.00  0.00    +0.108 A 
ATOM     32  C   UNL     1       1.807  -0.987   0.013  0.00  0.00    +0.029 A 
ATOM     33  C   UNL     1       0.538  -0.440  -0.029  0.00  0.00    +0.002 A 
ATOM     34  C   UNL     1       0.378   0.932  -0.062  0.00  0.00    +0.000 A 
ATOM     35  C   UNL     1       1.486   1.758  -0.051  0.00  0.00    +0.002 A 
ATOM     36  C   UNL     1       2.755   1.212  -0.009  0.00  0.00    +0.029 A 
ENDBRANCH  28  31
ENDBRANCH  26  28
ENDBRANCH   7  26
TORSDOF 6
