REMARK  Name = ZINC39912512
REMARK  11 active torsions:
REMARK  status: ('A' for Active; 'I' for Inactive)
REMARK    1  A    between atoms: C_1  and  C_2
REMARK    2  A    between atoms: C_2  and  C_3
REMARK    3  A    between atoms: C_3  and  O_4
REMARK    4  A    between atoms: O_4  and  C_5
REMARK    5  A    between atoms: C_9  and  C_11
REMARK    6  A    between atoms: C_14  and  C_30
REMARK    7  A    between atoms: N_21  and  C_22
REMARK    8  A    between atoms: C_22  and  C_23
REMARK    9  A    between atoms: C_32  and  C_38
REMARK   10  A    between atoms: C_34  and  C_37
REMARK   11  A    between atoms: C_35  and  O_36
REMARK                            x       y       z     vdW  Elec       q    Type
REMARK                         _______ _______ _______ _____ _____    ______ ____
ROOT
ATOM      1  C   UNL     1       2.152  -6.033   3.463  0.00  0.00    +0.142 C 
ATOM      2  C   UNL     1       1.197  -6.572   4.493  0.00  0.00    +0.035 A 
ATOM      3  C   UNL     1      -0.128  -6.690   4.925  0.00  0.00    +0.102 A 
ATOM      4  N   UNL     1      -0.118  -7.395   6.039  0.00  0.00    -0.173 NA
ATOM      5  N   UNL     1       1.081  -7.735   6.352  0.00  0.00    -0.272 N 
ATOM      6  H   UNL     1       1.326  -8.257   7.132  0.00  0.00    +0.189 HD
ATOM      7  C   UNL     1       1.959  -7.251   5.424  0.00  0.00    +0.126 A 
ATOM      8  C   UNL     1       3.368  -7.166   5.026  0.00  0.00    +0.266 C 
ATOM      9  O   UNL     1       4.294  -7.662   5.639  0.00  0.00    -0.268 OA
ATOM     10  N   UNL     1       3.492  -6.460   3.886  0.00  0.00    -0.281 N 
ENDROOT
BRANCH   3  11
ATOM     11  C   UNL     1      -1.325  -6.124   4.254  0.00  0.00    +0.044 A 
ATOM     12  C   UNL     1      -1.203  -5.504   3.013  0.00  0.00    +0.017 A 
ATOM     13  C   UNL     1      -2.319  -4.979   2.393  0.00  0.00    -0.049 A 
ATOM     14  C   UNL     1      -3.559  -5.066   3.000  0.00  0.00    +0.010 A 
ATOM     15  C   UNL     1      -3.691  -5.678   4.232  0.00  0.00    -0.008 A 
ATOM     16  C   UNL     1      -2.580  -6.215   4.863  0.00  0.00    +0.129 A 
ATOM     17  C   UNL     1      -5.045  -5.768   4.887  0.00  0.00    +0.047 C 
ATOM     18  C   UNL     1      -2.186  -4.309   1.050  0.00  0.00    +0.044 C 
BRANCH  16  19
ATOM     19  O   UNL     1      -2.709  -6.823   6.071  0.00  0.00    -0.506 OA
ATOM     20  H   UNL     1      -2.607  -6.225   6.825  0.00  0.00    +0.292 HD
ENDBRANCH  16  19
ENDBRANCH   3  11
BRANCH   1  25
ATOM     21  C   UNL     1       1.557  -2.507   2.243  0.00  0.00    +0.121 A 
ATOM     22  C   UNL     1       1.938  -1.765   3.352  0.00  0.00    +0.045 A 
ATOM     23  C   UNL     1       2.385  -2.407   4.490  0.00  0.00    +0.004 A 
ATOM     24  C   UNL     1       2.454  -3.788   4.525  0.00  0.00    +0.006 A 
ATOM     25  C   UNL     1       2.075  -4.529   3.421  0.00  0.00    -0.019 A 
ATOM     26  C   UNL     1       1.622  -3.892   2.282  0.00  0.00    +0.051 A 
BRANCH  21  27
ATOM     27  O   UNL     1       1.116  -1.878   1.122  0.00  0.00    -0.492 OA
BRANCH  27  28
ATOM     28  C   UNL     1       1.076  -0.450   1.153  0.00  0.00    +0.229 C 
BRANCH  28  30
ATOM     29  C   UNL     1       0.514   1.604  -0.154  0.00  0.00    +0.007 C 
ATOM     30  C   UNL     1       0.557   0.075  -0.188  0.00  0.00    +0.038 C 
ENDBRANCH  28  30
ENDBRANCH  27  28
ENDBRANCH  21  27
ENDBRANCH   1  25
BRANCH  10  31
ATOM     31  C   UNL     1       4.746  -6.167   3.187  0.00  0.00    +0.144 C 
BRANCH  31  32
ATOM     32  C   UNL     1       5.318  -4.872   3.703  0.00  0.00    -0.030 A 
ATOM     33  C   UNL     1       4.968  -3.676   3.105  0.00  0.00    +0.008 A 
ATOM     34  C   UNL     1       5.492  -2.487   3.578  0.00  0.00    +0.038 A 
ATOM     35  C   UNL     1       6.367  -2.495   4.651  0.00  0.00    +0.123 A 
ATOM     36  C   UNL     1       6.716  -3.694   5.249  0.00  0.00    +0.038 A 
ATOM     37  C   UNL     1       6.187  -4.880   4.778  0.00  0.00    +0.008 A 
ATOM     38  F   UNL     1       6.879  -1.334   5.113  0.00  0.00    -0.205 F 
ENDBRANCH  31  32
ENDBRANCH  10  31
TORSDOF 8
