REMARK  Name = ZINC09452826
REMARK  11 active torsions:
REMARK  status: ('A' for Active; 'I' for Inactive)
REMARK    1  A    between atoms: C_1  and  C_2
REMARK    2  A    between atoms: C_2  and  C_3
REMARK    3  A    between atoms: C_3  and  C_4
REMARK    4  A    between atoms: C_4  and  N_5
REMARK    5  A    between atoms: C_9  and  N_35
REMARK    6  A    between atoms: C_14  and  C_16
REMARK    7  A    between atoms: C_16  and  C_17
REMARK    8  A    between atoms: C_17  and  C_18
REMARK    9  A    between atoms: N_23  and  C_26
REMARK   10  A    between atoms: C_29  and  C_33
REMARK   11  A    between atoms: C_31  and  C_32
REMARK                            x       y       z     vdW  Elec       q    Type
REMARK                         _______ _______ _______ _____ _____    ______ ____
ROOT
ATOM      1  N   UNL     1      -2.787  -2.571   0.015  0.00  0.00    -0.325 N 
ATOM      2  C   UNL     1      -3.444  -2.817   1.225  0.00  0.00    +0.033 A 
ATOM      3  C   UNL     1      -2.706  -2.843   2.404  0.00  0.00    +0.025 A 
ATOM      4  C   UNL     1      -3.337  -3.081   3.608  0.00  0.00    +0.034 A 
ATOM      5  C   UNL     1      -4.703  -3.294   3.642  0.00  0.00    +0.127 A 
ATOM      6  C   UNL     1      -5.438  -3.271   2.472  0.00  0.00    +0.038 A 
ATOM      7  C   UNL     1      -4.813  -3.034   1.259  0.00  0.00    -0.023 A 
ATOM      8  C   UNL     1      -5.642  -3.021   0.002  0.00  0.00    +0.064 C 
ATOM      9  C   UNL     1      -4.916  -2.258  -1.107  0.00  0.00    +0.148 C 
ATOM     10  C   UNL     1      -3.499  -2.822  -1.245  0.00  0.00    +0.098 C 
ATOM     11  C   UNL     1      -4.834  -0.802  -0.745  0.00  0.00    +0.257 C 
ATOM     12  O   UNL     1      -4.206  -0.453   0.389  0.00  0.00    -0.272 OA
ATOM     13  N   UNL     1      -5.348   0.130  -1.488  0.00  0.00    -0.126 NA
ATOM     14  C   UNL     1      -5.990  -0.134  -2.635  0.00  0.00    +0.339 C 
ATOM     15  N   UNL     1      -6.139  -1.390  -3.086  0.00  0.00    -0.191 N 
ATOM     16  C   UNL     1      -5.652  -2.439  -2.406  0.00  0.00    +0.245 C 
ATOM     17  O   UNL     1      -5.807  -3.557  -2.849  0.00  0.00    -0.274 OA
ATOM     18  O   UNL     1      -6.449   0.787  -3.284  0.00  0.00    -0.250 OA
ENDROOT
BRANCH  15  19
ATOM     19  C   UNL     1      -6.819  -1.610  -4.292  0.00  0.00    +0.048 A 
ATOM     20  C   UNL     1      -6.119  -1.632  -5.491  0.00  0.00    +0.024 A 
ATOM     21  C   UNL     1      -6.792  -1.850  -6.677  0.00  0.00    +0.005 A 
ATOM     22  C   UNL     1      -8.161  -2.045  -6.672  0.00  0.00    -0.050 A 
ATOM     23  C   UNL     1      -8.861  -2.023  -5.480  0.00  0.00    +0.008 A 
ATOM     24  C   UNL     1      -8.193  -1.811  -4.289  0.00  0.00    -0.028 A 
ATOM     25  C   UNL     1      -8.955  -1.793  -2.989  0.00  0.00    +0.046 C 
ATOM     26  C   UNL     1      -8.892  -2.282  -7.968  0.00  0.00    +0.044 C 
ENDBRANCH  15  19
BRANCH   5  27
ATOM     27  N   UNL     1      -5.379  -3.547   4.934  0.00  0.00    +0.056 N 
ATOM     28  O   UNL     1      -4.738  -3.568   5.958  0.00  0.00    -0.126 OA
ATOM     29  O   UNL     1      -6.573  -3.734   4.964  0.00  0.00    -0.126 OA
ENDBRANCH   5  27
BRANCH   1  30
ATOM     30  C   UNL     1      -1.413  -2.063   0.004  0.00  0.00    +0.105 C 
BRANCH  30  31
ATOM     31  C   UNL     1      -1.433  -0.534   0.013  0.00  0.00    +0.019 C 
BRANCH  31  33
ATOM     32  C   UNL     1      -0.019   1.526   0.010  0.00  0.00    +0.004 C 
ATOM     33  C   UNL     1       0.002  -0.004   0.002  0.00  0.00    -0.002 C 
ENDBRANCH  31  33
ENDBRANCH  30  31
ENDBRANCH   1  30
BRANCH  10  34
ATOM     34  C   UNL     1      -3.568  -4.327  -1.510  0.00  0.00    +0.024 C 
BRANCH  34  35
ATOM     35  C   UNL     1      -2.156  -4.872  -1.732  0.00  0.00    -0.002 C 
ATOM     36  C   UNL     1      -2.225  -6.377  -1.997  0.00  0.00    +0.004 C 
ENDBRANCH  34  35
ENDBRANCH  10  34
TORSDOF 7
