REMARK  Name = ZINC09060183
REMARK  2 active torsions:
REMARK  status: ('A' for Active; 'I' for Inactive)
REMARK    1  A    between atoms: C_6  and  N_7
REMARK    2  A    between atoms: C_8  and  C_10
REMARK                            x       y       z     vdW  Elec       q    Type
REMARK                         _______ _______ _______ _____ _____    ______ ____
ROOT
ATOM      1  C   UNL     1       1.418   5.454   1.307  0.00  0.00    +0.093 C 
ATOM      2  C   UNL     1       2.186   6.075   0.136  0.00  0.00    +0.016 C 
ATOM      3  C   UNL     1       1.676   5.471  -1.175  0.00  0.00    +0.020 C 
ATOM      4  C   UNL     1       1.846   3.951  -1.132  0.00  0.00    +0.106 C 
ATOM      5  N   UNL     1       1.093   3.405   0.004  0.00  0.00    -0.313 N 
ATOM      6  C   UNL     1       1.596   3.934   1.278  0.00  0.00    +0.119 C 
ATOM      7  C   UNL     1       1.118   2.022  -0.002  0.00  0.00    +0.152 A 
ATOM      8  C   UNL     1       2.339   1.325  -0.009  0.00  0.00    +0.147 A 
ATOM      9  C   UNL     1       2.301  -0.080  -0.016  0.00  0.00    +0.163 A 
ATOM     10  N   UNL     1       3.609  -0.494  -0.021  0.00  0.00    -0.329 N 
ATOM     11  H   UNL     1       3.929  -1.441  -0.027  0.00  0.00    +0.168 HD
ATOM     12  C   UNL     1       4.391   0.623  -0.017  0.00  0.00    +0.198 A 
ATOM     13  N   UNL     1       3.644   1.689  -0.010  0.00  0.00    -0.231 NA
ATOM     14  N   UNL     1       1.122  -0.694  -0.016  0.00  0.00    -0.216 NA
ATOM     15  C   UNL     1       0.004   0.000  -0.010  0.00  0.00    +0.225 A 
ATOM     16  N   UNL     1      -0.011   1.321  -0.003  0.00  0.00    -0.218 NA
ENDROOT
BRANCH   1  18
ATOM     17  N   UNL     1       1.907   7.324   2.851  0.00  0.00    -0.285 N 
ATOM     18  C   UNL     1       1.954   5.999   2.605  0.00  0.00    +0.222 C 
ATOM     19  O   UNL     1       2.428   5.246   3.430  0.00  0.00    -0.275 OA
ATOM     20  H   UNL     1       1.590   7.933   2.166  0.00  0.00    +0.155 HD
BRANCH  17  26
ATOM     21  C   UNL     1       1.671   8.917   4.651  0.00  0.00    +0.025 A 
ATOM     22  C   UNL     1       2.072   9.402   5.881  0.00  0.00    +0.022 A 
ATOM     23  C   UNL     1       3.123   8.801   6.553  0.00  0.00    +0.041 A 
ATOM     24  C   UNL     1       3.769   7.711   5.998  0.00  0.00    +0.022 A 
ATOM     25  C   UNL     1       3.368   7.219   4.771  0.00  0.00    +0.025 A 
ATOM     26  C   UNL     1       2.315   7.820   4.095  0.00  0.00    +0.033 A 
ATOM     27 CL   UNL     1       3.629   9.417   8.095  0.00  0.00    -0.084 Cl
ENDBRANCH  17  26
ENDBRANCH   1  18
TORSDOF 2
