REMARK  Name = ZINC39657105
REMARK  5 active torsions:
REMARK  status: ('A' for Active; 'I' for Inactive)
REMARK    1  A    between atoms: C_1  and  C_2
REMARK    2  A    between atoms: C_2  and  C_4
REMARK    3  A    between atoms: C_2  and  N_11
REMARK    4  A    between atoms: C_12  and  C_14
REMARK    5  A    between atoms: C_25  and  C_27
REMARK                            x       y       z     vdW  Elec       q    Type
REMARK                         _______ _______ _______ _____ _____    ______ ____
ROOT
ATOM      1  C   UNL     1       2.783  -1.099   2.395  0.00  0.00    +0.100 C 
ATOM      2  C   UNL     1       2.274  -2.504   2.788  0.00  0.00    +0.121 C 
ATOM      3  N   UNL     1       3.225  -3.441   2.144  0.00  0.00    -0.297 N 
ATOM      4  C   UNL     1       4.548  -2.793   2.309  0.00  0.00    +0.115 C 
ATOM      5  C   UNL     1       4.277  -1.293   2.085  0.00  0.00    -0.004 C 
ATOM      6  C   UNL     1       4.569  -0.916   0.635  0.00  0.00    -0.010 C 
ATOM      7  C   UNL     1       6.069  -1.062   0.367  0.00  0.00    -0.082 C 
ATOM      8  N   UNL     1       6.818  -0.191   1.281  0.00  0.00    +0.379 N 
ATOM      9  C   UNL     1       6.605  -0.619   2.669  0.00  0.00    -0.082 C 
ATOM     10  C   UNL     1       5.127  -0.454   3.034  0.00  0.00    -0.010 C 
ATOM     11  C   UNL     1       2.949  -4.615   1.544  0.00  0.00    +0.260 C 
ATOM     12  O   UNL     1       3.845  -5.274   1.060  0.00  0.00    -0.271 OA
ATOM     13  H   UNL     1       7.802  -0.243   1.062  0.00  0.00    -0.086 HD
ATOM     14  H   UNL     1       6.502   0.760   1.171  0.00  0.00    -0.086 HD
ENDROOT
BRANCH  11  15
ATOM     15  C   UNL     1       1.527  -5.111   1.475  0.00  0.00    +0.296 C 
ATOM     16  C   UNL     1       1.016  -5.416   2.889  0.00  0.00    +0.283 C 
ATOM     17  O   UNL     1      -0.329  -5.896   2.786  0.00  0.00    -0.484 OA
ATOM     18  C   UNL     1      -0.569  -6.841   1.836  0.00  0.00    +0.162 A 
ATOM     19  C   UNL     1      -1.726  -7.603   1.912  0.00  0.00    +0.049 A 
ATOM     20  C   UNL     1      -1.986  -8.564   0.953  0.00  0.00    +0.004 A 
ATOM     21  C   UNL     1      -1.094  -8.768  -0.084  0.00  0.00    +0.004 A 
ATOM     22  C   UNL     1       0.061  -8.013  -0.164  0.00  0.00    +0.049 A 
ATOM     23  C   UNL     1       0.328  -7.048   0.795  0.00  0.00    +0.163 A 
ATOM     24  O   UNL     1       1.473  -6.317   0.707  0.00  0.00    -0.473 OA
ENDBRANCH  11  15
BRANCH   1  26
ATOM     25  N   UNL     1       1.886   0.724   0.983  0.00  0.00    -0.308 N 
ATOM     26  C   UNL     1       2.054  -0.600   1.174  0.00  0.00    +0.219 C 
ATOM     27  O   UNL     1       1.618  -1.389   0.362  0.00  0.00    -0.275 OA
ATOM     28  H   UNL     1       2.234   1.355   1.632  0.00  0.00    +0.149 HD
BRANCH  25  30
ATOM     29  C   UNL     1       2.156   1.314  -1.375  0.00  0.00    +0.033 C 
ATOM     30  C   UNL     1       1.177   1.209  -0.204  0.00  0.00    +0.100 C 
BRANCH  30  31
ATOM     31  C   UNL     1       0.590   2.567   0.083  0.00  0.00    -0.027 A 
ATOM     32  C   UNL     1       1.314   3.494   0.808  0.00  0.00    +0.006 A 
ATOM     33  C   UNL     1       0.775   4.740   1.070  0.00  0.00    +0.015 A 
ATOM     34  C   UNL     1      -0.488   5.059   0.607  0.00  0.00    +0.018 A 
ATOM     35  C   UNL     1      -1.212   4.130  -0.120  0.00  0.00    +0.015 A 
ATOM     36  C   UNL     1      -0.671   2.887  -0.386  0.00  0.00    +0.006 A 
ATOM     37 BR   UNL     1      -1.226   6.763   0.966  0.00  0.00    -0.050 Br
ENDBRANCH  30  31
ENDBRANCH  25  30
ENDBRANCH   1  26
TORSDOF 4
