REMARK  Name = ZINC03670313
REMARK  10 active torsions:
REMARK  status: ('A' for Active; 'I' for Inactive)
REMARK    1  A    between atoms: C_1  and  N_61
REMARK    2  A    between atoms: C_2  and  C_3
REMARK    3  A    between atoms: C_2  and  N_61
REMARK    4  A    between atoms: C_3  and  C_4
REMARK    5  A    between atoms: C_4  and  N_5
REMARK    6  A    between atoms: C_6  and  C_8
REMARK    7  A    between atoms: C_8  and  O_25
REMARK    8  A    between atoms: N_18  and  C_19
REMARK    9  A    between atoms: C_26  and  C_27
REMARK   10  A    between atoms: C_26  and  N_61
REMARK                            x       y       z     vdW  Elec       q    Type
REMARK                         _______ _______ _______ _____ _____    ______ ____
ROOT
ATOM      1  C   UNL     1      -1.345   5.971  -0.072  0.00  0.00    +0.247 C 
ATOM      2  C   UNL     1      -1.273   7.480  -0.053  0.00  0.00    +0.033 A 
ATOM      3  C   UNL     1      -2.409   8.251  -0.138  0.00  0.00    +0.010 A 
ATOM      4  C   UNL     1      -2.304   9.632  -0.124  0.00  0.00    +0.001 A 
ATOM      5  C   UNL     1      -1.062  10.231  -0.024  0.00  0.00    +0.002 A 
ATOM      6  C   UNL     1       0.080   9.459   0.063  0.00  0.00    +0.024 A 
ATOM      7  C   UNL     1      -0.020   8.074   0.048  0.00  0.00    +0.043 A 
ATOM      8  N   UNL     1       1.122   7.276   0.133  0.00  0.00    -0.269 N 
ATOM      9  C   UNL     1       1.078   5.938   0.122  0.00  0.00    +0.314 C 
ATOM     10  O   UNL     1       2.124   5.323   0.201  0.00  0.00    -0.252 OA
ATOM     11  N   UNL     1      -0.069   5.242   0.029  0.00  0.00    -0.214 N 
ATOM     12  H   UNL     1       1.986   7.711   0.203  0.00  0.00    +0.156 HD
ENDROOT
BRANCH  11  13
ATOM     13  C   UNL     1      -0.050   3.842   0.022  0.00  0.00    +0.041 A 
ATOM     14  C   UNL     1      -0.062   3.152  -1.183  0.00  0.00    +0.024 A 
ATOM     15  C   UNL     1      -0.043   1.771  -1.186  0.00  0.00    +0.002 A 
ATOM     16  C   UNL     1      -0.013   1.076   0.009  0.00  0.00    +0.000 A 
ATOM     17  C   UNL     1      -0.007   1.760   1.210  0.00  0.00    +0.002 A 
ATOM     18  C   UNL     1      -0.020   3.141   1.220  0.00  0.00    +0.024 A 
ENDBRANCH  11  13
BRANCH   1  20
ATOM     19  N   UNL     1      -1.812   5.726   2.345  0.00  0.00    -0.311 N 
ATOM     20  C   UNL     1      -2.221   5.536   1.075  0.00  0.00    +0.269 C 
ATOM     21  O   UNL     1      -3.294   5.015   0.855  0.00  0.00    -0.270 OA
ATOM     22  H   UNL     1      -0.954   6.143   2.521  0.00  0.00    +0.149 HD
BRANCH  19  23
ATOM     23  C   UNL     1      -2.663   5.304   3.459  0.00  0.00    +0.102 C 
BRANCH  23  24
ATOM     24  C   UNL     1      -1.970   5.633   4.783  0.00  0.00    +0.000 C 
BRANCH  24  25
ATOM     25  C   UNL     1      -2.859   5.192   5.948  0.00  0.00    -0.077 C 
BRANCH  25  27
ATOM     26  C   UNL     1      -0.974   4.706   7.388  0.00  0.00    -0.096 C 
ATOM     27  N   UNL     1      -2.186   5.535   7.218  0.00  0.00    +0.381 N 
ATOM     28  H   UNL     1      -1.913   6.524   7.194  0.00  0.00    -0.082 HD
BRANCH  27  29
ATOM     29  C   UNL     1      -3.109   5.319   8.353  0.00  0.00    -0.043 C 
BRANCH  29  30
ATOM     30  C   UNL     1      -2.481   5.880   9.603  0.00  0.00    -0.064 A 
ATOM     31  C   UNL     1      -1.698   5.072  10.406  0.00  0.00    +0.002 A 
ATOM     32  C   UNL     1      -1.119   5.588  11.550  0.00  0.00    +0.000 A 
ATOM     33  C   UNL     1      -1.331   6.909  11.896  0.00  0.00    +0.000 A 
ATOM     34  C   UNL     1      -2.118   7.715  11.096  0.00  0.00    +0.000 A 
ATOM     35  C   UNL     1      -2.693   7.201   9.950  0.00  0.00    +0.002 A 
ENDBRANCH  29  30
ENDBRANCH  27  29
ENDBRANCH  25  27
ENDBRANCH  24  25
ENDBRANCH  23  24
ENDBRANCH  19  23
ENDBRANCH   1  20
BRANCH   1  36
ATOM     36  O   UNL     1      -1.986   5.571  -1.286  0.00  0.00    -0.360 OA
ATOM     37  H   UNL     1      -2.838   6.001  -1.440  0.00  0.00    +0.213 HD
ENDBRANCH   1  36
TORSDOF 9
