REMARK  Name = ZINC63296271
REMARK  11 active torsions:
REMARK  status: ('A' for Active; 'I' for Inactive)
REMARK    1  A    between atoms: C_1  and  C_2
REMARK    2  A    between atoms: C_2  and  C_3
REMARK    3  A    between atoms: C_2  and  C_4
REMARK    4  A    between atoms: C_4  and  C_5
REMARK    5  A    between atoms: C_5  and  C_6
REMARK    6  A    between atoms: C_5  and  N_19
REMARK    7  A    between atoms: N_8  and  C_9
REMARK    8  A    between atoms: C_12  and  O_16
REMARK    9  A    between atoms: O_16  and  C_17
REMARK   10  A    between atoms: C_20  and  O_22
REMARK   11  A    between atoms: O_22  and  C_23
REMARK                            x       y       z     vdW  Elec       q    Type
REMARK                         _______ _______ _______ _____ _____    ______ ____
ROOT
ATOM      1  C   UNL     1      -2.900  -1.617  -1.190  0.00  0.00    +0.238 C 
ATOM      2  O   UNL     1      -3.520  -2.574  -0.776  0.00  0.00    -0.273 OA
ATOM      3  N   UNL     1      -3.478  -0.765  -2.060  0.00  0.00    -0.284 N 
ATOM      4  H   UNL     1      -2.964  -0.033  -2.435  0.00  0.00    +0.155 HD
ENDROOT
BRANCH   3   5
ATOM      5  C   UNL     1      -4.820  -0.937  -2.422  0.00  0.00    +0.039 A 
ATOM      6  C   UNL     1      -5.623   0.170  -2.657  0.00  0.00    +0.065 A 
ATOM      7  C   UNL     1      -6.948   0.000  -3.016  0.00  0.00    +0.169 A 
ATOM      8  C   UNL     1      -7.475  -1.278  -3.139  0.00  0.00    +0.190 A 
ATOM      9  C   UNL     1      -6.672  -2.386  -2.904  0.00  0.00    +0.169 A 
ATOM     10  C   UNL     1      -5.346  -2.216  -2.552  0.00  0.00    +0.065 A 
ATOM     11  F   UNL     1      -7.185  -3.630  -3.025  0.00  0.00    -0.201 F 
ATOM     12  F   UNL     1      -7.730   1.078  -3.244  0.00  0.00    -0.201 F 
BRANCH   8  13
ATOM     13  O   UNL     1      -8.779  -1.446  -3.491  0.00  0.00    -0.490 OA
ATOM     14  C   UNL     1      -9.067  -1.544  -4.887  0.00  0.00    +0.277 C 
ENDBRANCH   8  13
ENDBRANCH   3   5
BRANCH   1  15
ATOM     15  C   UNL     1      -1.484  -1.381  -0.732  0.00  0.00    +0.163 C 
BRANCH  15  16
ATOM     16  N   UNL     1      -1.085  -2.446   0.192  0.00  0.00    -0.270 N 
ATOM     17  C   UNL     1       0.218  -2.753   0.344  0.00  0.00    +0.401 C 
ATOM     18  O   UNL     1       1.068  -2.090  -0.216  0.00  0.00    -0.226 OA
ATOM     19  H   UNL     1      -1.760  -2.929   0.694  0.00  0.00    +0.153 HD
BRANCH  17  20
ATOM     20  O   UNL     1       0.578  -3.796   1.116  0.00  0.00    -0.454 OA
ATOM     21  C   UNL     1       1.977  -4.064   1.233  0.00  0.00    +0.282 C 
ENDBRANCH  17  20
ENDBRANCH  15  16
BRANCH  15  22
ATOM     22  C   UNL     1      -1.396  -0.029  -0.021  0.00  0.00    +0.035 C 
BRANCH  22  24
ATOM     23  C   UNL     1      -1.967   1.189   2.084  0.00  0.00    +0.007 C 
ATOM     24  C   UNL     1      -2.233  -0.071   1.259  0.00  0.00    -0.015 C 
ATOM     25  C   UNL     1      -3.718  -0.138   0.895  0.00  0.00    +0.007 C 
ENDBRANCH  22  24
ENDBRANCH  15  22
ENDBRANCH   1  15
TORSDOF 7
