REMARK  Name = ZINC38971033
REMARK  6 active torsions:
REMARK  status: ('A' for Active; 'I' for Inactive)
REMARK    1  A    between atoms: C_1  and  O_2
REMARK    2  A    between atoms: O_2  and  C_3
REMARK    3  A    between atoms: C_6  and  S_9
REMARK    4  A    between atoms: S_9  and  N_12
REMARK    5  A    between atoms: C_14  and  N_24
REMARK    6  A    between atoms: N_24  and  C_25
REMARK                            x       y       z     vdW  Elec       q    Type
REMARK                         _______ _______ _______ _____ _____    ______ ____
ROOT
ATOM      1  N   UNL     1      -5.231  -3.111  -1.579  0.00  0.00    -0.110 NA
ATOM      2  C   UNL     1      -6.450  -3.518  -1.773  0.00  0.00    +0.192 C 
ATOM      3  C   UNL     1      -7.003  -3.645  -3.174  0.00  0.00    +0.237 C 
ATOM      4  N   UNL     1      -8.390  -4.112  -3.326  0.00  0.00    -0.359 N 
ATOM      5  C   UNL     1      -9.073  -4.394  -2.251  0.00  0.00    +0.063 A 
ATOM      6  C   UNL     1     -10.462  -4.865  -2.349  0.00  0.00    +0.027 A 
ATOM      7  C   UNL     1     -11.137  -5.147  -1.213  0.00  0.00    +0.002 A 
ATOM      8  C   UNL     1     -10.546  -5.002   0.053  0.00  0.00    +0.002 A 
ATOM      9  C   UNL     1      -9.276  -4.575   0.222  0.00  0.00    +0.030 A 
ATOM     10  C   UNL     1      -8.474  -4.250  -0.901  0.00  0.00    +0.089 A 
ATOM     11  N   UNL     1      -7.235  -3.839  -0.732  0.00  0.00    -0.226 NA
ATOM     12  H   UNL     1      -8.787  -4.208  -4.205  0.00  0.00    +0.162 HD
ENDROOT
BRANCH   1  13
ATOM     13  S   UNL     1      -4.635  -2.983  -0.039  0.00  0.00    +0.100 S 
ATOM     14  O   UNL     1      -4.568  -4.304   0.481  0.00  0.00    -0.146 OA
ATOM     15  O   UNL     1      -5.374  -1.950   0.598  0.00  0.00    -0.146 OA
BRANCH  13  19
ATOM     16  C   UNL     1      -0.367  -1.505  -0.372  0.00  0.00    +0.120 A 
ATOM     17  C   UNL     1      -1.411  -0.597  -0.265  0.00  0.00    +0.047 A 
ATOM     18  C   UNL     1      -2.712  -1.051  -0.164  0.00  0.00    +0.032 A 
ATOM     19  C   UNL     1      -2.974  -2.408  -0.169  0.00  0.00    +0.113 A 
ATOM     20  C   UNL     1      -1.936  -3.315  -0.276  0.00  0.00    +0.032 A 
ATOM     21  C   UNL     1      -0.634  -2.867  -0.383  0.00  0.00    +0.047 A 
BRANCH  16  23
ATOM     22  C   UNL     1       1.113   0.353  -0.454  0.00  0.00    +0.277 C 
ATOM     23  O   UNL     1       0.913  -1.062  -0.472  0.00  0.00    -0.495 OA
ENDBRANCH  16  23
ENDBRANCH  13  19
ENDBRANCH   1  13
BRANCH   3  24
ATOM     24  N   UNL     1      -6.138  -4.566  -3.915  0.00  0.00    -0.317 N 
ATOM     25  H   UNL     1      -5.832  -5.386  -3.497  0.00  0.00    +0.148 HD
BRANCH  24  26
ATOM     26  C   UNL     1      -5.754  -4.264  -5.224  0.00  0.00    +0.043 A 
ATOM     27  C   UNL     1      -6.292  -3.159  -5.870  0.00  0.00    +0.024 A 
ATOM     28  C   UNL     1      -5.910  -2.862  -7.164  0.00  0.00    +0.002 A 
ATOM     29  C   UNL     1      -4.992  -3.665  -7.816  0.00  0.00    +0.001 A 
ATOM     30  C   UNL     1      -4.454  -4.766  -7.177  0.00  0.00    +0.017 A 
ATOM     31  C   UNL     1      -4.828  -5.065  -5.881  0.00  0.00    +0.039 A 
ATOM     32 BR   UNL     1      -4.086  -6.568  -5.004  0.00  0.00    -0.048 Br
ENDBRANCH  24  26
ENDBRANCH   3  24
TORSDOF 5
