REMARK  Name = ZINC06198467
REMARK  13 active torsions:
REMARK  status: ('A' for Active; 'I' for Inactive)
REMARK    1  A    between atoms: C_1  and  N_63
REMARK    2  A    between atoms: C_2  and  N_63
REMARK    3  A    between atoms: C_3  and  C_4
REMARK    4  A    between atoms: C_3  and  N_63
REMARK    5  A    between atoms: C_4  and  C_5
REMARK    6  A    between atoms: C_5  and  N_6
REMARK    7  A    between atoms: N_6  and  C_7
REMARK    8  A    between atoms: N_6  and  C_23
REMARK    9  A    between atoms: C_7  and  C_8
REMARK   10  A    between atoms: C_23  and  N_25
REMARK   11  A    between atoms: N_25  and  C_26
REMARK   12  A    between atoms: C_26  and  C_27
REMARK   13  A    between atoms: C_27  and  C_28
REMARK                            x       y       z     vdW  Elec       q    Type
REMARK                         _______ _______ _______ _____ _____    ______ ____
ROOT
ATOM      1  N   UNL     1       0.002  -0.004   0.002  0.00  0.00    -0.308 N 
ENDROOT
BRANCH   1   2
ATOM      2  C   UNL     1       1.028  -0.667   0.572  0.00  0.00    +0.133 C 
ATOM      3  S   UNL     1       1.051  -2.379   0.563  0.00  0.00    -0.019 S 
BRANCH   2   4
ATOM      4  N   UNL     1       2.035   0.017   1.150  0.00  0.00    -0.326 N 
ATOM      5  H   UNL     1       2.021   0.987   1.155  0.00  0.00    +0.148 HD
BRANCH   4   6
ATOM      6  C   UNL     1       3.149  -0.704   1.770  0.00  0.00    +0.108 C 
BRANCH   6   7
ATOM      7  C   UNL     1       4.148   0.301   2.347  0.00  0.00    +0.054 C 
BRANCH   7   8
ATOM      8  C   UNL     1       5.295  -0.441   2.985  0.00  0.00    -0.046 A 
ATOM      9  C   UNL     1       5.234  -0.789   4.321  0.00  0.00    +0.004 A 
ATOM     10  C   UNL     1       6.284  -1.474   4.905  0.00  0.00    +0.000 A 
ATOM     11  C   UNL     1       7.398  -1.801   4.155  0.00  0.00    +0.000 A 
ATOM     12  C   UNL     1       7.461  -1.447   2.820  0.00  0.00    +0.000 A 
ATOM     13  C   UNL     1       6.409  -0.767   2.235  0.00  0.00    +0.004 A 
ENDBRANCH   7   8
ENDBRANCH   6   7
ENDBRANCH   4   6
ENDBRANCH   2   4
ENDBRANCH   1   2
BRANCH   1  14
ATOM     14  C   UNL     1      -0.018   1.461   0.010  0.00  0.00    +0.105 C 
BRANCH  14  15
ATOM     15  C   UNL     1      -0.734   1.954   1.269  0.00  0.00    +0.000 C 
BRANCH  15  16
ATOM     16  C   UNL     1      -0.755   3.484   1.277  0.00  0.00    -0.078 C 
BRANCH  16  19
ATOM     17  C   UNL     1      -1.277   5.408   2.651  0.00  0.00    -0.097 C 
ATOM     18  C   UNL     1      -2.864   3.589   2.461  0.00  0.00    -0.097 C 
ATOM     19  N   UNL     1      -1.430   3.945   2.509  0.00  0.00    +0.376 N 
ATOM     20  H   UNL     1      -0.999   3.484   3.318  0.00  0.00    -0.083 HD
ENDBRANCH  16  19
ENDBRANCH  15  16
ENDBRANCH  14  15
ENDBRANCH   1  14
BRANCH   1  21
ATOM     21  C   UNL     1      -1.093  -0.748  -0.626  0.00  0.00    +0.147 C 
BRANCH  21  22
ATOM     22  C   UNL     1      -0.769  -0.987  -2.078  0.00  0.00    +0.035 A 
ATOM     23  C   UNL     1      -0.189  -2.154  -2.459  0.00  0.00    +0.020 A 
ATOM     24  C   UNL     1       0.111  -2.356  -3.876  0.00  0.00    +0.003 A 
ATOM     25  C   UNL     1       0.707  -3.541  -4.326  0.00  0.00    +0.059 A 
ATOM     26  C   UNL     1       0.978  -3.702  -5.667  0.00  0.00    +0.167 A 
ATOM     27  C   UNL     1       0.659  -2.688  -6.578  0.00  0.00    +0.168 A 
ATOM     28  C   UNL     1       0.070  -1.515  -6.143  0.00  0.00    +0.075 A 
ATOM     29  C   UNL     1      -0.210  -1.337  -4.794  0.00  0.00    +0.053 A 
ATOM     30  N   UNL     1      -0.799  -0.173  -4.341  0.00  0.00    -0.322 N 
ATOM     31  H   UNL     1      -1.022   0.551  -4.993  0.00  0.00    +0.169 HD
ATOM     32  C   UNL     1      -1.076  -0.000  -3.037  0.00  0.00    +0.254 A 
ATOM     33  O   UNL     1      -1.601   1.038  -2.674  0.00  0.00    -0.268 OA
ATOM     34  O   UNL     1       1.026  -3.098  -7.827  0.00  0.00    -0.453 OA
ATOM     35  C   UNL     1       1.191  -4.524  -7.732  0.00  0.00    +0.466 C 
ATOM     36  O   UNL     1       1.542  -4.740  -6.353  0.00  0.00    -0.453 OA
ENDBRANCH  21  22
ENDBRANCH   1  21
TORSDOF 11
