REMARK  Name = ZINC47694637
REMARK  3 active torsions:
REMARK  status: ('A' for Active; 'I' for Inactive)
REMARK    1  A    between atoms: C_1  and  C_2
REMARK    2  A    between atoms: C_2  and  C_7
REMARK    3  A    between atoms: C_13  and  C_16
REMARK                            x       y       z     vdW  Elec       q    Type
REMARK                         _______ _______ _______ _____ _____    ______ ____
ROOT
ATOM      1  C   UNL     1       0.110  -0.750  -1.303  0.00  0.00    +0.224 C 
ATOM      2  O   UNL     1       0.685  -1.817  -1.346  0.00  0.00    -0.275 OA
ATOM      3  N   UNL     1      -0.430  -0.230  -2.423  0.00  0.00    -0.300 N 
ATOM      4  C   UNL     1      -1.025   1.114  -2.413  0.00  0.00    +0.108 C 
ATOM      5  C   UNL     1      -0.384   1.945  -3.529  0.00  0.00    +0.020 C 
ATOM      6  C   UNL     1      -0.530   1.203  -4.860  0.00  0.00    +0.016 C 
ATOM      7  C   UNL     1       0.199  -0.141  -4.779  0.00  0.00    +0.093 C 
ATOM      8  C   UNL     1      -0.430  -0.993  -3.679  0.00  0.00    +0.120 C 
ENDROOT
BRANCH   7   9
ATOM      9  C   UNL     1       0.083  -0.856  -6.101  0.00  0.00    +0.223 C 
ATOM     10  O   UNL     1      -0.451  -1.943  -6.157  0.00  0.00    -0.275 OA
ATOM     11  N   UNL     1       0.573  -0.287  -7.220  0.00  0.00    -0.263 N 
ATOM     12  C   UNL     1       0.466  -0.947  -8.439  0.00  0.00    +0.187 A 
ATOM     13  N   UNL     1      -0.078  -2.118  -8.706  0.00  0.00    -0.126 NA
ATOM     14  N   UNL     1      -0.100  -2.593  -9.877  0.00  0.00    -0.148 NA
ATOM     15  C   UNL     1       0.436  -1.899 -10.861  0.00  0.00    +0.183 A 
ATOM     16  S   UNL     1       0.992  -0.456  -9.964  0.00  0.00    -0.039 S 
ATOM     17  H   UNL     1       1.000   0.583  -7.175  0.00  0.00    +0.157 HD
ENDBRANCH   7   9
BRANCH   1  19
ATOM     18  C   UNL     1      -1.420   0.157   0.551  0.00  0.00    +0.024 C 
ATOM     19  C   UNL     1      -0.001  -0.006   0.003  0.00  0.00    +0.080 C 
ATOM     20  C   UNL     1       1.132  -0.183   1.015  0.00  0.00    +0.058 C 
ATOM     21  C   UNL     1       0.987   1.135   0.252  0.00  0.00    +0.133 C 
ATOM     22 CL   UNL     1       2.196   1.486  -1.039  0.00  0.00    -0.100 Cl
ATOM     23 CL   UNL     1       0.391   2.568   1.169  0.00  0.00    -0.100 Cl
ENDBRANCH   1  19
TORSDOF 2
