REMARK  Name = ZINC08386461
REMARK  18 active torsions:
REMARK  status: ('A' for Active; 'I' for Inactive)
REMARK    1  A    between atoms: C_1  and  C_2
REMARK    2  A    between atoms: C_2  and  O_4
REMARK    3  A    between atoms: O_4  and  C_5
REMARK    4  A    between atoms: C_5  and  C_6
REMARK    5  A    between atoms: C_8  and  O_35
REMARK    6  A    between atoms: C_10  and  O_31
REMARK    7  A    between atoms: C_12  and  O_27
REMARK    8  A    between atoms: C_14  and  N_17
REMARK    9  A    between atoms: N_17  and  C_18
REMARK   10  A    between atoms: C_18  and  N_20
REMARK   11  A    between atoms: N_20  and  N_21
REMARK   12  A    between atoms: C_26  and  N_66
REMARK   13  A    between atoms: O_27  and  C_28
REMARK   14  A    between atoms: C_28  and  C_30
REMARK   15  A    between atoms: O_31  and  C_32
REMARK   16  A    between atoms: C_32  and  C_34
REMARK   17  A    between atoms: O_35  and  C_36
REMARK   18  A    between atoms: C_36  and  C_38
REMARK                            x       y       z     vdW  Elec       q    Type
REMARK                         _______ _______ _______ _____ _____    ______ ____
ROOT
ATOM      1  C   UNL     1       2.108  -0.057   1.149  0.00  0.00    +0.202 C 
ATOM      2  C   UNL     1       2.171   1.471   1.203  0.00  0.00    +0.253 C 
ATOM      3  C   UNL     1       1.421   2.049  -0.001  0.00  0.00    +0.264 C 
ATOM      4  C   UNL     1      -0.019   1.527   0.010  0.00  0.00    +0.267 C 
ATOM      5  C   UNL     1       0.002  -0.004   0.002  0.00  0.00    +0.250 C 
ATOM      6  O   UNL     1       0.741  -0.475   1.131  0.00  0.00    -0.345 OA
ENDROOT
BRANCH   5   7
ATOM      7  N   UNL     1      -1.371  -0.512   0.070  0.00  0.00    -0.298 N 
ATOM      8  H   UNL     1      -2.038  -0.036   0.590  0.00  0.00    +0.150 HD
BRANCH   7   9
ATOM      9  C   UNL     1      -1.706  -1.639  -0.588  0.00  0.00    +0.146 C 
ATOM     10  S   UNL     1      -0.528  -2.477  -1.504  0.00  0.00    -0.018 S 
BRANCH   9  11
ATOM     11  N   UNL     1      -2.968  -2.106  -0.525  0.00  0.00    -0.260 N 
ATOM     12  H   UNL     1      -3.210  -2.917  -0.999  0.00  0.00    +0.168 HD
BRANCH  11  13
ATOM     13  N   UNL     1      -3.908  -1.437   0.206  0.00  0.00    -0.231 NA
ATOM     14  C   UNL     1      -4.389  -2.260   1.325  0.00  0.00    +0.087 C 
ATOM     15  C   UNL     1      -5.379  -1.447   2.163  0.00  0.00    -0.062 C 
ATOM     16  C   UNL     1      -6.016  -0.191   0.195  0.00  0.00    -0.062 C 
ATOM     17  C   UNL     1      -5.026  -1.003  -0.644  0.00  0.00    +0.087 C 
ATOM     18  C   UNL     1      -7.508  -0.294   2.100  0.00  0.00    -0.096 C 
ATOM     19  N   UNL     1      -6.508  -1.037   1.303  0.00  0.00    +0.380 N 
ATOM     20  H   UNL     1      -6.951  -1.876   0.910  0.00  0.00    -0.082 HD
ENDBRANCH  11  13
ENDBRANCH   9  11
ENDBRANCH   7   9
ENDBRANCH   5   7
BRANCH   1  21
ATOM     21  C   UNL     1       2.803  -0.641   2.380  0.00  0.00    +0.267 C 
BRANCH  21  22
ATOM     22  O   UNL     1       2.846  -2.088   2.271  0.00  0.00    -0.462 OA
BRANCH  22  24
ATOM     23  C   UNL     1       3.510  -4.263   3.234  0.00  0.00    +0.136 C 
ATOM     24  C   UNL     1       3.428  -2.759   3.278  0.00  0.00    +0.304 C 
ATOM     25  O   UNL     1       3.887  -2.156   4.219  0.00  0.00    -0.251 OA
ENDBRANCH  22  24
ENDBRANCH  21  22
ENDBRANCH   1  21
BRANCH   4  26
ATOM     26  O   UNL     1      -0.696   1.996   1.206  0.00  0.00    -0.453 OA
BRANCH  26  27
ATOM     27  C   UNL     1      -2.023   2.182   1.121  0.00  0.00    +0.304 C 
ATOM     28  O   UNL     1      -2.599   1.960   0.082  0.00  0.00    -0.251 OA
ATOM     29  C   UNL     1      -2.794   2.668   2.321  0.00  0.00    +0.136 C 
ENDBRANCH  26  27
ENDBRANCH   4  26
BRANCH   3  30
ATOM     30  O   UNL     1       1.413   3.499   0.083  0.00  0.00    -0.454 OA
BRANCH  30  31
ATOM     31  C   UNL     1       1.375   4.175  -1.076  0.00  0.00    +0.304 C 
ATOM     32  O   UNL     1       1.350   3.576  -2.125  0.00  0.00    -0.251 OA
ATOM     33  C   UNL     1       1.364   5.682  -1.069  0.00  0.00    +0.136 C 
ENDBRANCH  30  31
ENDBRANCH   3  30
BRANCH   2  34
ATOM     34  O   UNL     1       1.553   1.939   2.431  0.00  0.00    -0.455 OA
BRANCH  34  35
ATOM     35  C   UNL     1       2.350   2.072   3.503  0.00  0.00    +0.304 C 
ATOM     36  O   UNL     1       3.525   1.806   3.418  0.00  0.00    -0.251 OA
ATOM     37  C   UNL     1       1.778   2.553   4.812  0.00  0.00    +0.136 C 
ENDBRANCH  34  35
ENDBRANCH   2  34
TORSDOF 13
