REMARK  Name = ZINC59452630
REMARK  7 active torsions:
REMARK  status: ('A' for Active; 'I' for Inactive)
REMARK    1  A    between atoms: C_3  and  C_6
REMARK    2  A    between atoms: C_9  and  C_29
REMARK    3  A    between atoms: C_14  and  C_16
REMARK    4  A    between atoms: N_18  and  C_19
REMARK    5  A    between atoms: C_19  and  C_20
REMARK    6  A    between atoms: C_20  and  C_21
REMARK    7  A    between atoms: C_21  and  N_22
REMARK                            x       y       z     vdW  Elec       q    Type
REMARK                         _______ _______ _______ _____ _____    ______ ____
ROOT
ATOM      1  C   UNL     1       3.761   1.845  -0.024  0.00  0.00    +0.111 C 
ATOM      2  C   UNL     1       4.347   1.768   1.390  0.00  0.00    +0.063 C 
ATOM      3  C   UNL     1       4.261   0.329   1.912  0.00  0.00    +0.215 C 
ATOM      4  N   UNL     1       4.812  -0.577   0.900  0.00  0.00    -0.237 N 
ATOM      5  C   UNL     1       4.957  -0.243  -0.417  0.00  0.00    +0.137 A 
ATOM      6  C   UNL     1       5.494  -1.300  -1.061  0.00  0.00    +0.112 A 
ATOM      7  C   UNL     1       5.686  -2.327  -0.109  0.00  0.00    +0.167 A 
ATOM      8  N   UNL     1       5.274  -1.882   1.065  0.00  0.00    -0.163 NA
ATOM      9 CL   UNL     1       5.877  -1.383  -2.752  0.00  0.00    -0.078 Cl
ATOM     10  N   UNL     1       4.581   1.010  -0.923  0.00  0.00    -0.321 N 
ATOM     11  H   UNL     1       4.843   1.311  -1.807  0.00  0.00    +0.148 HD
ENDROOT
BRANCH   1  14
ATOM     12  C   UNL     1      -0.016   1.351   0.009  0.00  0.00    +0.008 A 
ATOM     13  C   UNL     1       1.183   2.038   0.002  0.00  0.00    +0.013 A 
ATOM     14  C   UNL     1       2.343   1.336  -0.013  0.00  0.00    +0.010 A 
ATOM     15  S   UNL     1       1.754  -0.349  -0.017  0.00  0.00    -0.100 S 
ATOM     16  C   UNL     1       0.002  -0.004   0.002  0.00  0.00    +0.045 A 
ENDBRANCH   1  14
BRANCH   7  17
ATOM     17  C   UNL     1       6.251  -3.664  -0.380  0.00  0.00    +0.266 C 
ATOM     18  O   UNL     1       6.597  -3.961  -1.507  0.00  0.00    -0.268 OA
ATOM     19  N   UNL     1       6.382  -4.556   0.622  0.00  0.00    -0.310 N 
ATOM     20  H   UNL     1       6.105  -4.319   1.521  0.00  0.00    +0.149 HD
BRANCH  19  21
ATOM     21  C   UNL     1       6.941  -5.883   0.354  0.00  0.00    +0.106 C 
BRANCH  21  22
ATOM     22  C   UNL     1       6.980  -6.692   1.651  0.00  0.00    +0.040 C 
BRANCH  22  23
ATOM     23  C   UNL     1       7.564  -8.078   1.371  0.00  0.00    +0.124 C 
BRANCH  23  24
ATOM     24  N   UNL     1       7.601  -8.854   2.613  0.00  0.00    -0.338 N 
ATOM     25  C   UNL     1       8.630  -8.895   3.515  0.00  0.00    +0.104 A 
ATOM     26  C   UNL     1       8.249  -9.725   4.504  0.00  0.00    +0.101 A 
ATOM     27  N   UNL     1       7.020 -10.178   4.215  0.00  0.00    -0.352 N 
ATOM     28  C   UNL     1       6.624  -9.656   3.086  0.00  0.00    +0.173 A 
ATOM     29  H   UNL     1       6.506 -10.793   4.761  0.00  0.00    +0.166 HD
ENDBRANCH  23  24
ENDBRANCH  22  23
ENDBRANCH  21  22
ENDBRANCH  19  21
ENDBRANCH   7  17
BRANCH   3  30
ATOM     30  C   UNL     1       5.067   0.205   3.207  0.00  0.00    +0.412 C 
ATOM     31  F   UNL     1       4.545   1.080   4.166  0.00  0.00    -0.168 F 
ATOM     32  F   UNL     1       4.987  -1.108   3.682  0.00  0.00    -0.168 F 
ATOM     33  F   UNL     1       6.404   0.531   2.957  0.00  0.00    -0.168 F 
ENDBRANCH   3  30
TORSDOF 7
