REMARK  Name = ZINC00919499
REMARK  6 active torsions:
REMARK  status: ('A' for Active; 'I' for Inactive)
REMARK    1  A    between atoms: C_1  and  C_2
REMARK    2  A    between atoms: C_5  and  O_31
REMARK    3  A    between atoms: C_6  and  N_8
REMARK    4  A    between atoms: C_9  and  C_11
REMARK    5  A    between atoms: C_16  and  C_27
REMARK    6  A    between atoms: C_19  and  C_22
REMARK                            x       y       z     vdW  Elec       q    Type
REMARK                         _______ _______ _______ _____ _____    ______ ____
ROOT
ATOM      1  C   UNL     1       0.277  -2.878   4.834  0.00  0.00    +0.149 A 
ATOM      2  C   UNL     1       0.382  -2.312   6.125  0.00  0.00    +0.078 A 
ATOM      3  C   UNL     1       0.481  -3.326   7.007  0.00  0.00    +0.119 A 
ATOM      4  N   UNL     1       0.439  -4.501   6.311  0.00  0.00    -0.238 N 
ATOM      5  N   UNL     1       0.307  -4.194   4.958  0.00  0.00    -0.164 NA
ATOM      6  C   UNL     1       0.515  -5.822   6.941  0.00  0.00    +0.215 C 
ATOM      7  C   UNL     1       0.162  -5.685   8.427  0.00  0.00    +0.066 C 
ATOM      8  C   UNL     1       0.981  -4.552   9.055  0.00  0.00    +0.140 C 
ATOM      9  N   UNL     1       0.608  -3.283   8.398  0.00  0.00    -0.319 N 
ATOM     10  H   UNL     1       0.460  -2.468   8.902  0.00  0.00    +0.148 HD
ENDROOT
BRANCH   8  11
ATOM     11  C   UNL     1       2.450  -4.817   8.854  0.00  0.00    +0.125 A 
ATOM     12  C   UNL     1       3.288  -5.338   9.769  0.00  0.00    +0.046 A 
ATOM     13  C   UNL     1       4.562  -5.413   9.162  0.00  0.00    +0.041 A 
ATOM     14  C   UNL     1       4.427  -4.934   7.912  0.00  0.00    +0.195 A 
ATOM     15  O   UNL     1       3.145  -4.580   7.729  0.00  0.00    -0.466 OA
ENDBRANCH   8  11
BRANCH   1  17
ATOM     16  N   UNL     1       0.052  -2.794   2.399  0.00  0.00    -0.277 N 
ATOM     17  C   UNL     1       0.150  -2.130   3.567  0.00  0.00    +0.268 C 
ATOM     18  O   UNL     1       0.134  -0.914   3.578  0.00  0.00    -0.268 OA
ATOM     19  H   UNL     1      -0.001  -3.763   2.394  0.00  0.00    +0.155 HD
BRANCH  16  25
ATOM     20  C   UNL     1      -1.307   1.189  -0.143  0.00  0.00    +0.044 C 
ATOM     21  C   UNL     1      -0.626  -0.154  -0.071  0.00  0.00    -0.048 A 
ATOM     22  C   UNL     1      -0.029  -0.685  -1.199  0.00  0.00    +0.007 A 
ATOM     23  C   UNL     1       0.598  -1.917  -1.138  0.00  0.00    +0.047 A 
ATOM     24  C   UNL     1       0.627  -2.621   0.054  0.00  0.00    +0.138 A 
ATOM     25  C   UNL     1       0.025  -2.086   1.190  0.00  0.00    +0.076 A 
ATOM     26  C   UNL     1      -0.597  -0.848   1.124  0.00  0.00    +0.030 A 
BRANCH  24  27
ATOM     27  O   UNL     1       1.242  -3.833   0.115  0.00  0.00    -0.505 OA
ATOM     28  H   UNL     1       2.179  -3.787   0.348  0.00  0.00    +0.292 HD
ENDBRANCH  24  27
ENDBRANCH  16  25
ENDBRANCH   1  17
BRANCH   6  29
ATOM     29  C   UNL     1      -0.474  -6.772   6.263  0.00  0.00    +0.412 C 
ATOM     30  F   UNL     1      -0.156  -6.885   4.905  0.00  0.00    -0.168 F 
ATOM     31  F   UNL     1      -0.400  -8.032   6.866  0.00  0.00    -0.168 F 
ATOM     32  F   UNL     1      -1.772  -6.267   6.397  0.00  0.00    -0.168 F 
ENDBRANCH   6  29
TORSDOF 5
