REMARK  Name = ZINC49028989
REMARK  7 active torsions:
REMARK  status: ('A' for Active; 'I' for Inactive)
REMARK    1  A    between atoms: C_9  and  C_11
REMARK    2  A    between atoms: C_11  and  C_12
REMARK    3  A    between atoms: C_12  and  C_13
REMARK    4  A    between atoms: C_16  and  S_18
REMARK    5  A    between atoms: S_18  and  C_19
REMARK    6  A    between atoms: C_19  and  C_20
REMARK    7  A    between atoms: N_22  and  C_23
REMARK                            x       y       z     vdW  Elec       q    Type
REMARK                         _______ _______ _______ _____ _____    ______ ____
ROOT
ATOM      1  C   UNL     1       5.524  -4.569  -1.240  0.00  0.00    +0.219 A 
ATOM      2  N   UNL     1       5.213  -5.677  -1.844  0.00  0.00    -0.112 NA
ATOM      3  N   UNL     1       6.140  -6.548  -1.650  0.00  0.00    -0.101 NA
ATOM      4  C   UNL     1       7.083  -6.020  -0.907  0.00  0.00    +0.278 A 
ATOM      5  O   UNL     1       6.715  -4.753  -0.636  0.00  0.00    -0.416 OA
ENDROOT
BRANCH   1   6
ATOM      6  C   UNL     1       4.704  -3.304  -1.222  0.00  0.00    +0.105 C 
BRANCH   6   7
ATOM      7  C   UNL     1       3.752  -3.330  -0.024  0.00  0.00    +0.083 C 
BRANCH   7  16
ATOM      8  C   UNL     1      -0.029   1.359   0.055  0.00  0.00    +0.002 A 
ATOM      9  C   UNL     1       1.156   2.081   0.038  0.00  0.00    +0.002 A 
ATOM     10  C   UNL     1       2.362   1.440   0.016  0.00  0.00    +0.030 A 
ATOM     11  C   UNL     1       2.408   0.043   0.010  0.00  0.00    +0.089 A 
ATOM     12  C   UNL     1       1.208  -0.688   0.028  0.00  0.00    +0.066 A 
ATOM     13  C   UNL     1      -0.008  -0.019   0.050  0.00  0.00    +0.028 A 
ATOM     14  N   UNL     1       1.573  -2.019   0.017  0.00  0.00    -0.342 N 
ATOM     15  H   UNL     1       0.971  -2.780   0.024  0.00  0.00    +0.167 HD
ATOM     16  C   UNL     1       2.932  -2.066  -0.006  0.00  0.00    +0.109 A 
ATOM     17  N   UNL     1       3.421  -0.861  -0.010  0.00  0.00    -0.232 NA
ENDBRANCH   7  16
ENDBRANCH   6   7
ENDBRANCH   1   6
BRANCH   4  18
ATOM     18  S   UNL     1       8.559  -6.817  -0.369  0.00  0.00    -0.056 S 
BRANCH  18  19
ATOM     19  C   UNL     1       8.443  -8.482  -1.078  0.00  0.00    +0.175 C 
BRANCH  19  20
ATOM     20  C   UNL     1       9.660  -9.280  -0.689  0.00  0.00    +0.228 C 
ATOM     21  O   UNL     1      10.522  -8.775  -0.001  0.00  0.00    -0.275 OA
ATOM     22  N   UNL     1       9.791 -10.556  -1.106  0.00  0.00    -0.285 N 
ATOM     23  H   UNL     1       9.073 -10.981  -1.599  0.00  0.00    +0.155 HD
BRANCH  22  24
ATOM     24  C   UNL     1      10.965 -11.266  -0.827  0.00  0.00    +0.035 A 
ATOM     25  C   UNL     1      11.462 -12.178  -1.748  0.00  0.00    +0.026 A 
ATOM     26  C   UNL     1      12.620 -12.878  -1.472  0.00  0.00    +0.041 A 
ATOM     27  C   UNL     1      13.287 -12.671  -0.276  0.00  0.00    +0.142 A 
ATOM     28  C   UNL     1      12.794 -11.761   0.645  0.00  0.00    +0.078 A 
ATOM     29  C   UNL     1      11.638 -11.055   0.369  0.00  0.00    +0.046 A 
ATOM     30 CL   UNL     1      13.632 -11.502   2.144  0.00  0.00    -0.081 Cl
ATOM     31  F   UNL     1      14.419 -13.357  -0.007  0.00  0.00    -0.204 F 
ENDBRANCH  22  24
ENDBRANCH  19  20
ENDBRANCH  18  19
ENDBRANCH   4  18
TORSDOF 7
