REMARK  Name = ZINC05263339
REMARK  6 active torsions:
REMARK  status: ('A' for Active; 'I' for Inactive)
REMARK    1  A    between atoms: C_3  and  S_23
REMARK    2  A    between atoms: C_6  and  C_7
REMARK    3  A    between atoms: C_10  and  C_12
REMARK    4  A    between atoms: C_13  and  C_14
REMARK    5  A    between atoms: C_14  and  C_16
REMARK    6  A    between atoms: S_23  and  N_26
REMARK                            x       y       z     vdW  Elec       q    Type
REMARK                         _______ _______ _______ _____ _____    ______ ____
ROOT
ATOM      1  C   UNL     1      -3.118   3.065   4.884  0.00  0.00    +0.136 A 
ATOM      2  C   UNL     1      -3.007   4.272   5.537  0.00  0.00    +0.050 A 
ATOM      3  C   UNL     1      -3.900   4.240   6.610  0.00  0.00    +0.050 A 
ATOM      4  C   UNL     1      -4.527   3.006   6.572  0.00  0.00    +0.129 A 
ATOM      5  O   UNL     1      -4.040   2.318   5.518  0.00  0.00    -0.455 OA
ENDROOT
BRANCH   1  11
ATOM      6  C   UNL     1      -2.562   1.401   3.117  0.00  0.00    +0.013 A 
ATOM      7  C   UNL     1      -1.846   1.029   1.998  0.00  0.00    +0.029 A 
ATOM      8  C   UNL     1      -0.927   1.900   1.439  0.00  0.00    +0.105 A 
ATOM      9  C   UNL     1      -0.714   3.147   2.002  0.00  0.00    +0.029 A 
ATOM     10  C   UNL     1      -1.426   3.534   3.118  0.00  0.00    +0.013 A 
ATOM     11  C   UNL     1      -2.356   2.660   3.687  0.00  0.00    +0.017 A 
BRANCH   8  12
ATOM     12  S   UNL     1      -0.017   1.417   0.010  0.00  0.00    +0.056 S 
ATOM     13  O   UNL     1       0.002  -0.004   0.002  0.00  0.00    -0.153 OA
ATOM     14  O   UNL     1       1.172   2.195   0.003  0.00  0.00    -0.153 OA
BRANCH  12  15
ATOM     15  N   UNL     1      -0.897   1.885  -1.312  0.00  0.00    -0.204 NA
ATOM     16  H   UNL     1      -1.747   2.338  -1.194  0.00  0.00    +0.144 HD
ATOM     17  H   UNL     1      -0.563   1.708  -2.205  0.00  0.00    +0.144 HD
ENDBRANCH  12  15
ENDBRANCH   8  12
ENDBRANCH   1  11
BRANCH   4  18
ATOM     18  C   UNL     1      -5.509   2.549   7.476  0.00  0.00    +0.050 C 
ATOM     19  C   UNL     1      -6.048   1.308   7.325  0.00  0.00    +0.055 C 
BRANCH  19  20
ATOM     20  C   UNL     1      -7.030   0.850   8.229  0.00  0.00    +0.186 C 
ATOM     21  O   UNL     1      -7.396   1.566   9.145  0.00  0.00    -0.287 OA
BRANCH  20  22
ATOM     22  C   UNL     1      -7.615  -0.498   8.065  0.00  0.00    +0.022 A 
ATOM     23  C   UNL     1      -7.202  -1.319   7.014  0.00  0.00    +0.013 A 
ATOM     24  C   UNL     1      -7.747  -2.576   6.869  0.00  0.00    +0.021 A 
ATOM     25  C   UNL     1      -8.712  -3.023   7.758  0.00  0.00    +0.041 A 
ATOM     26  C   UNL     1      -9.130  -2.211   8.800  0.00  0.00    +0.021 A 
ATOM     27  C   UNL     1      -8.587  -0.953   8.958  0.00  0.00    +0.013 A 
ATOM     28 CL   UNL     1      -9.398  -4.606   7.566  0.00  0.00    -0.084 Cl
ENDBRANCH  20  22
ENDBRANCH  19  20
ENDBRANCH   4  18
TORSDOF 6
