REMARK  Name = ZINC66837195
REMARK  10 active torsions:
REMARK  status: ('A' for Active; 'I' for Inactive)
REMARK    1  A    between atoms: C_1  and  C_2
REMARK    2  A    between atoms: C_2  and  C_4
REMARK    3  A    between atoms: C_2  and  N_22
REMARK    4  A    between atoms: N_6  and  C_7
REMARK    5  A    between atoms: N_11  and  C_12
REMARK    6  A    between atoms: C_12  and  C_13
REMARK    7  A    between atoms: C_16  and  N_19
REMARK    8  A    between atoms: N_19  and  C_20
REMARK    9  A    between atoms: N_19  and  C_21
REMARK   10  A    between atoms: C_23  and  C_25
REMARK                            x       y       z     vdW  Elec       q    Type
REMARK                         _______ _______ _______ _____ _____    ______ ____
ROOT
ATOM      1  C   UNL     1      -1.441  -0.570   0.031  0.00  0.00    +0.238 C 
ATOM      2  O   UNL     1      -1.832  -1.278   0.935  0.00  0.00    -0.273 OA
ATOM      3  N   UNL     1      -2.275  -0.238  -0.974  0.00  0.00    -0.269 N 
ATOM      4  H   UNL     1      -1.962   0.329  -1.697  0.00  0.00    +0.156 HD
ENDROOT
BRANCH   3   5
ATOM      5  C   UNL     1      -3.588  -0.709  -0.975  0.00  0.00    +0.124 A 
ATOM      6  C   UNL     1      -4.158  -1.502  -0.028  0.00  0.00    +0.065 A 
ATOM      7  C   UNL     1      -5.481  -1.740  -0.409  0.00  0.00    +0.136 A 
ATOM      8  N   UNL     1      -5.702  -1.118  -1.539  0.00  0.00    -0.178 NA
ATOM      9  N   UNL     1      -4.527  -0.456  -1.915  0.00  0.00    -0.246 N 
BRANCH   9  10
ATOM     10  C   UNL     1      -4.345   0.363  -3.116  0.00  0.00    +0.180 C 
BRANCH  10  11
ATOM     11  C   UNL     1      -3.870  -0.508  -4.251  0.00  0.00    -0.026 A 
ATOM     12  C   UNL     1      -2.516  -0.701  -4.452  0.00  0.00    +0.007 A 
ATOM     13  C   UNL     1      -2.077  -1.498  -5.490  0.00  0.00    +0.023 A 
ATOM     14  C   UNL     1      -2.997  -2.106  -6.334  0.00  0.00    +0.029 A 
ATOM     15  C   UNL     1      -4.357  -1.911  -6.129  0.00  0.00    +0.023 A 
ATOM     16  C   UNL     1      -4.790  -1.117  -5.085  0.00  0.00    +0.007 A 
BRANCH  14  17
ATOM     17  N   UNL     1      -2.557  -2.913  -7.386  0.00  0.00    -0.336 N 
ATOM     18  C   UNL     1      -1.125  -3.018  -7.678  0.00  0.00    +0.129 C 
ATOM     19  C   UNL     1      -3.526  -3.654  -8.197  0.00  0.00    +0.129 C 
ENDBRANCH  14  17
ENDBRANCH  10  11
ENDBRANCH   9  10
ENDBRANCH   3   5
BRANCH   1  21
ATOM     20  C   UNL     1      -0.029   1.469   0.048  0.00  0.00    +0.038 C 
ATOM     21  C   UNL     1      -0.022  -0.061   0.032  0.00  0.00    +0.156 C 
BRANCH  21  22
ATOM     22  N   UNL     1       0.674  -0.558   1.222  0.00  0.00    -0.304 N 
ATOM     23  C   UNL     1       2.016  -0.680   1.215  0.00  0.00    +0.217 C 
ATOM     24  O   UNL     1       2.648  -0.379   0.224  0.00  0.00    -0.275 OA
ATOM     25  H   UNL     1       0.169  -0.799   2.014  0.00  0.00    +0.149 HD
BRANCH  23  26
ATOM     26  C   UNL     1       2.732  -1.191   2.438  0.00  0.00    +0.079 C 
ATOM     27  C   UNL     1       2.462  -0.254   3.620  0.00  0.00    +0.041 C 
ATOM     28  C   UNL     1       3.255  -0.737   4.836  0.00  0.00    +0.160 C 
ATOM     29  O   UNL     1       4.646  -0.782   4.509  0.00  0.00    -0.380 OA
ATOM     30  C   UNL     1       4.965  -1.679   3.442  0.00  0.00    +0.160 C 
ATOM     31  C   UNL     1       4.240  -1.234   2.170  0.00  0.00    +0.041 C 
ENDBRANCH  23  26
ENDBRANCH  21  22
ENDBRANCH   1  21
TORSDOF 7
