REMARK  Name = ZINC21876869
REMARK  10 active torsions:
REMARK  status: ('A' for Active; 'I' for Inactive)
REMARK    1  A    between atoms: C_1  and  C_2
REMARK    2  A    between atoms: C_2  and  C_3
REMARK    3  A    between atoms: C_6  and  C_9
REMARK    4  A    between atoms: C_9  and  N_10
REMARK    5  A    between atoms: C_11  and  C_13
REMARK    6  A    between atoms: C_19  and  C_24
REMARK    7  A    between atoms: C_19  and  C_25
REMARK    8  A    between atoms: N_20  and  C_23
REMARK    9  A    between atoms: N_27  and  C_28
REMARK   10  A    between atoms: C_28  and  C_29
REMARK                            x       y       z     vdW  Elec       q    Type
REMARK                         _______ _______ _______ _____ _____    ______ ____
ROOT
ATOM      1  C   UNL     1      -1.747   2.287   8.377  0.00  0.00    +0.148 A 
ATOM      2  C   UNL     1      -2.104   2.534   9.722  0.00  0.00    +0.067 A 
ATOM      3  C   UNL     1      -1.169   1.893  10.459  0.00  0.00    +0.124 A 
ATOM      4  N   UNL     1      -0.292   1.290   9.582  0.00  0.00    -0.256 N 
ATOM      5  N   UNL     1      -0.660   1.533   8.384  0.00  0.00    -0.166 NA
ATOM      6  C   UNL     1       0.849   0.508  10.071  0.00  0.00    +0.179 C 
ATOM      7  C   UNL     1       1.310   1.075  11.413  0.00  0.00    +0.130 C 
ATOM      8  N   UNL     1       0.206   1.299  12.338  0.00  0.00    -0.284 N 
ATOM      9  C   UNL     1      -0.993   1.772  11.917  0.00  0.00    +0.265 C 
ATOM     10  O   UNL     1      -1.872   2.080  12.698  0.00  0.00    -0.268 OA
ATOM     11  C   UNL     1       0.397   1.005  13.761  0.00  0.00    +0.133 C 
ATOM     12  C   UNL     1       2.298   0.096  12.050  0.00  0.00    +0.044 C 
ENDROOT
BRANCH   1  14
ATOM     13  N   UNL     1      -2.009   2.464   5.949  0.00  0.00    -0.306 N 
ATOM     14  C   UNL     1      -2.462   2.777   7.180  0.00  0.00    +0.264 C 
ATOM     15  O   UNL     1      -3.459   3.462   7.304  0.00  0.00    -0.268 OA
ATOM     16  H   UNL     1      -1.107   1.844   5.837  0.00  0.00    +0.149 HD
BRANCH  13  17
ATOM     17  C   UNL     1      -2.717   2.949   4.763  0.00  0.00    +0.140 C 
BRANCH  17  21
ATOM     18  C   UNL     1      -0.718   1.572   1.248  0.00  0.00    -0.048 A 
ATOM     19  C   UNL     1      -0.360   2.779   1.819  0.00  0.00    +0.004 A 
ATOM     20  C   UNL     1      -1.010   3.227   2.953  0.00  0.00    +0.005 A 
ATOM     21  C   UNL     1      -2.012   2.463   3.523  0.00  0.00    -0.030 A 
ATOM     22  C   UNL     1      -2.366   1.254   2.955  0.00  0.00    +0.005 A 
ATOM     23  C   UNL     1      -1.719   0.808   1.818  0.00  0.00    +0.004 A 
BRANCH  18  25
ATOM     24  C   UNL     1      -0.753   1.593  -1.232  0.00  0.00    +0.009 C 
ATOM     25  C   UNL     1      -0.013   1.086   0.008  0.00  0.00    +0.032 C 
ENDBRANCH  18  25
ENDBRANCH  17  21
ENDBRANCH  13  17
ENDBRANCH   1  14
BRANCH   7  26
ATOM     26  C   UNL     1       2.015   2.385  11.171  0.00  0.00    +0.239 C 
ATOM     27  O   UNL     1       2.534   2.605  10.097  0.00  0.00    -0.273 OA
ATOM     28  N   UNL     1       2.070   3.311  12.148  0.00  0.00    -0.309 N 
ATOM     29  H   UNL     1       1.600   3.112  13.122  0.00  0.00    +0.149 HD
BRANCH  28  30
ATOM     30  C   UNL     1       2.755   4.585  11.913  0.00  0.00    +0.139 C 
BRANCH  30  31
ATOM     31  C   UNL     1       2.673   5.436  13.153  0.00  0.00    -0.030 A 
ATOM     32  C   UNL     1       1.614   6.309  13.323  0.00  0.00    +0.008 A 
ATOM     33  C   UNL     1       1.535   7.086  14.463  0.00  0.00    +0.038 A 
ATOM     34  C   UNL     1       2.522   6.999  15.430  0.00  0.00    +0.123 A 
ATOM     35  C   UNL     1       3.585   6.128  15.256  0.00  0.00    +0.038 A 
ATOM     36  C   UNL     1       3.659   5.348  14.118  0.00  0.00    +0.008 A 
ATOM     37  F   UNL     1       2.448   7.762  16.542  0.00  0.00    -0.205 F 
ENDBRANCH  30  31
ENDBRANCH  28  30
ENDBRANCH   7  26
TORSDOF 7
