REMARK  Name = ZINC16571458
REMARK  6 active torsions:
REMARK  status: ('A' for Active; 'I' for Inactive)
REMARK    1  A    between atoms: C_4  and  C_7
REMARK    2  A    between atoms: C_7  and  C_8
REMARK    3  A    between atoms: C_8  and  C_10
REMARK    4  A    between atoms: C_8  and  N_25
REMARK    5  A    between atoms: C_16  and  C_18
REMARK    6  A    between atoms: C_26  and  C_28
REMARK                            x       y       z     vdW  Elec       q    Type
REMARK                         _______ _______ _______ _____ _____    ______ ____
ROOT
ATOM      1  C   UNL     1      -0.013   1.086   0.008  0.00  0.00    +0.163 C 
ENDROOT
BRANCH   1   2
ATOM      2  C   UNL     1      -0.718   1.572   1.248  0.00  0.00    +0.239 C 
ATOM      3  O   UNL     1      -0.131   2.273   2.044  0.00  0.00    -0.273 OA
ATOM      4  N   UNL     1      -2.002   1.228   1.472  0.00  0.00    -0.262 N 
ATOM      5  C   UNL     1      -2.652   1.676   2.615  0.00  0.00    +0.188 A 
ATOM      6  N   UNL     1      -2.206   2.435   3.607  0.00  0.00    -0.125 NA
ATOM      7  N   UNL     1      -2.939   2.756   4.582  0.00  0.00    -0.140 NA
ATOM      8  C   UNL     1      -4.197   2.345   4.679  0.00  0.00    +0.134 A 
ATOM      9  S   UNL     1      -4.329   1.387   3.172  0.00  0.00    -0.030 S 
ATOM     10  H   UNL     1      -2.472   0.667   0.835  0.00  0.00    +0.157 HD
BRANCH   8  11
ATOM     11  C   UNL     1      -5.203   2.604   5.731  0.00  0.00    +0.009 A 
ATOM     12  C   UNL     1      -6.486   2.066   5.622  0.00  0.00    +0.012 A 
ATOM     13  C   UNL     1      -7.419   2.307   6.609  0.00  0.00    +0.016 A 
ATOM     14  C   UNL     1      -7.087   3.091   7.701  0.00  0.00    +0.018 A 
ATOM     15  C   UNL     1      -5.818   3.631   7.813  0.00  0.00    +0.016 A 
ATOM     16  C   UNL     1      -4.875   3.393   6.835  0.00  0.00    +0.012 A 
ATOM     17 BR   UNL     1      -8.375   3.424   9.046  0.00  0.00    -0.050 Br
ENDBRANCH   8  11
ENDBRANCH   1   2
BRANCH   1  18
ATOM     18  N   UNL     1       1.362   1.593  -0.002  0.00  0.00    -0.303 N 
ATOM     19  C   UNL     1       2.318   0.933  -0.685  0.00  0.00    +0.217 C 
ATOM     20  O   UNL     1       2.042  -0.081  -1.290  0.00  0.00    -0.275 OA
ATOM     21  H   UNL     1       1.583   2.404   0.482  0.00  0.00    +0.149 HD
BRANCH  19  22
ATOM     22  C   UNL     1       3.732   1.454  -0.695  0.00  0.00    +0.075 C 
ATOM     23  C   UNL     1       3.752   2.861  -1.298  0.00  0.00    +0.013 C 
ATOM     24  C   UNL     1       5.188   3.390  -1.308  0.00  0.00    +0.001 C 
ATOM     25  C   UNL     1       6.067   2.463  -2.149  0.00  0.00    +0.000 C 
ATOM     26  C   UNL     1       6.047   1.056  -1.547  0.00  0.00    +0.001 C 
ATOM     27  C   UNL     1       4.612   0.527  -1.536  0.00  0.00    +0.013 C 
ENDBRANCH  19  22
ENDBRANCH   1  18
BRANCH   1  28
ATOM     28  C   UNL     1      -0.753   1.593  -1.232  0.00  0.00    +0.067 C 
BRANCH  28  32
ATOM     29  C   UNL     1       1.037  -0.067  -4.737  0.00  0.00    +0.000 A 
ATOM     30  C   UNL     1       0.003  -0.734  -4.107  0.00  0.00    +0.000 A 
ATOM     31  C   UNL     1      -0.576  -0.197  -2.973  0.00  0.00    +0.004 A 
ATOM     32  C   UNL     1      -0.121   1.007  -2.468  0.00  0.00    -0.045 A 
ATOM     33  C   UNL     1       0.910   1.676  -3.101  0.00  0.00    +0.004 A 
ATOM     34  C   UNL     1       1.492   1.137  -4.232  0.00  0.00    +0.000 A 
ENDBRANCH  28  32
ENDBRANCH   1  28
TORSDOF 6
