REMARK  Name = ZINC13280382
REMARK  14 active torsions:
REMARK  status: ('A' for Active; 'I' for Inactive)
REMARK    1  A    between atoms: C_1  and  C_2
REMARK    2  A    between atoms: C_5  and  N_9
REMARK    3  A    between atoms: C_7  and  C_8
REMARK    4  A    between atoms: N_9  and  C_10
REMARK    5  A    between atoms: C_10  and  C_11
REMARK    6  A    between atoms: C_11  and  C_12
REMARK    7  A    between atoms: C_14  and  C_16
REMARK    8  A    between atoms: C_16  and  S_17
REMARK    9  A    between atoms: S_17  and  C_18
REMARK   10  A    between atoms: C_22  and  C_33
REMARK   11  A    between atoms: N_28  and  C_29
REMARK   12  A    between atoms: C_29  and  C_30
REMARK   13  A    between atoms: C_30  and  C_31
REMARK   14  A    between atoms: C_30  and  C_32
REMARK                            x       y       z     vdW  Elec       q    Type
REMARK                         _______ _______ _______ _____ _____    ______ ____
ROOT
ATOM      1  C   UNL     1       1.347  -2.704  -0.235  0.00  0.00    +0.173 A 
ATOM      2  N   UNL     1       1.445  -3.983  -0.498  0.00  0.00    -0.223 NA
ATOM      3  C   UNL     1       0.470  -4.647  -1.163  0.00  0.00    +0.080 A 
ATOM      4  C   UNL     1       0.579  -6.011  -1.447  0.00  0.00    +0.043 A 
ATOM      5  C   UNL     1      -0.447  -6.650  -2.132  0.00  0.00    +0.065 A 
ATOM      6  C   UNL     1      -1.584  -5.938  -2.535  0.00  0.00    +0.016 A 
ATOM      7  C   UNL     1      -1.701  -4.605  -2.264  0.00  0.00    +0.016 A 
ATOM      8  C   UNL     1      -0.683  -3.943  -1.578  0.00  0.00    +0.065 A 
ATOM      9  C   UNL     1      -0.769  -2.508  -1.264  0.00  0.00    +0.262 A 
ATOM     10  O   UNL     1      -1.736  -1.847  -1.595  0.00  0.00    -0.267 OA
ATOM     11  N   UNL     1       0.266  -1.950  -0.595  0.00  0.00    -0.287 N 
ENDROOT
BRANCH   5  12
ATOM     12  C   UNL     1      -0.339  -8.094  -2.436  0.00  0.00    +0.387 C 
ATOM     13  O   UNL     1       0.644  -8.716  -2.088  0.00  0.00    -0.241 OA
ATOM     14  O   UNL     1      -1.331  -8.719  -3.099  0.00  0.00    -0.241 OA
ENDBRANCH   5  12
BRANCH   1  15
ATOM     15  S   UNL     1       2.667  -1.920   0.628  0.00  0.00    -0.078 S 
BRANCH  15  16
ATOM     16  C   UNL     1       3.783  -3.329   0.843  0.00  0.00    +0.173 C 
BRANCH  16  18
ATOM     17  N   UNL     1       5.997  -3.770   1.854  0.00  0.00    -0.270 N 
ATOM     18  C   UNL     1       5.019  -2.884   1.580  0.00  0.00    +0.230 C 
ATOM     19  O   UNL     1       5.135  -1.727   1.926  0.00  0.00    -0.274 OA
BRANCH  17  24
ATOM     20  C   UNL     1      10.825  -2.015   4.261  0.00  0.00    +0.044 C 
ATOM     21  C   UNL     1       9.542  -2.481   3.621  0.00  0.00    -0.047 A 
ATOM     22  C   UNL     1       9.235  -2.095   2.329  0.00  0.00    +0.005 A 
ATOM     23  C   UNL     1       8.064  -2.526   1.738  0.00  0.00    +0.024 A 
ATOM     24  C   UNL     1       7.188  -3.337   2.447  0.00  0.00    +0.037 A 
ATOM     25  C   UNL     1       7.499  -3.723   3.744  0.00  0.00    +0.027 A 
ATOM     26  C   UNL     1       8.675  -3.295   4.327  0.00  0.00    -0.046 A 
ATOM     27  C   UNL     1       9.014  -3.713   5.735  0.00  0.00    +0.044 C 
ENDBRANCH  17  24
BRANCH  17  28
ATOM     28  C   UNL     1       5.812  -5.187   1.530  0.00  0.00    +0.128 C 
BRANCH  28  29
ATOM     29  C   UNL     1       6.318  -5.456   0.112  0.00  0.00    +0.138 C 
BRANCH  29  30
ATOM     30  C   UNL     1       6.132  -6.880  -0.213  0.00  0.00    +0.064 C 
ATOM     31  N   UNL     1       5.989  -7.979  -0.464  0.00  0.00    -0.197 NA
ENDBRANCH  29  30
ENDBRANCH  28  29
ENDBRANCH  17  28
ENDBRANCH  16  18
ENDBRANCH  15  16
ENDBRANCH   1  15
BRANCH  11  32
ATOM     32  C   UNL     1       0.230  -0.525  -0.258  0.00  0.00    +0.130 C 
BRANCH  32  33
ATOM     33  C   UNL     1      -0.425  -0.341   1.112  0.00  0.00    +0.003 C 
ATOM     34  C   UNL     1      -0.576   1.153   1.409  0.00  0.00    +0.009 C 
ATOM     35  C   UNL     1       0.451  -0.988   2.187  0.00  0.00    +0.009 C 
ENDBRANCH  32  33
ENDBRANCH  11  32
TORSDOF 10
