REMARK  Name = ZINC05586052
REMARK  8 active torsions:
REMARK  status: ('A' for Active; 'I' for Inactive)
REMARK    1  A    between atoms: C_1  and  C_2
REMARK    2  A    between atoms: C_2  and  C_4
REMARK    3  A    between atoms: C_2  and  O_16
REMARK    4  A    between atoms: N_9  and  C_10
REMARK    5  A    between atoms: O_16  and  C_17
REMARK    6  A    between atoms: C_17  and  C_19
REMARK    7  A    between atoms: C_22  and  S_25
REMARK    8  A    between atoms: S_25  and  C_28
REMARK                            x       y       z     vdW  Elec       q    Type
REMARK                         _______ _______ _______ _____ _____    ______ ____
ROOT
ATOM      1  C   UNL     1       6.032   2.591   2.019  0.00  0.00    +0.062 C 
ATOM      2  C   UNL     1       5.979   1.246   1.291  0.00  0.00    +0.259 C 
ENDROOT
BRANCH   2   3
ATOM      3  C   UNL     1       4.565   0.725   1.301  0.00  0.00    +0.261 C 
ATOM      4  O   UNL     1       4.300  -0.295   1.901  0.00  0.00    -0.271 OA
ATOM      5  N   UNL     1       3.596   1.392   0.645  0.00  0.00    -0.237 N 
ATOM      6  C   UNL     1       2.331   0.926   0.654  0.00  0.00    +0.306 C 
ATOM      7  O   UNL     1       2.065  -0.097   1.255  0.00  0.00    -0.252 OA
ATOM      8  N   UNL     1       1.362   1.593  -0.002  0.00  0.00    -0.296 N 
ATOM      9  H   UNL     1       3.808   2.208   0.165  0.00  0.00    +0.159 HD
ATOM     10  H   UNL     1       1.574   2.409  -0.482  0.00  0.00    +0.151 HD
BRANCH   8  11
ATOM     11  C   UNL     1      -0.013   1.086   0.008  0.00  0.00    +0.074 C 
ATOM     12  C   UNL     1      -0.729   1.579   1.267  0.00  0.00    +0.022 C 
ATOM     13  C   UNL     1      -2.164   1.050   1.278  0.00  0.00    +0.002 C 
ATOM     14  C   UNL     1      -2.904   1.556   0.038  0.00  0.00    +0.000 C 
ATOM     15  C   UNL     1      -2.188   1.063  -1.221  0.00  0.00    +0.002 C 
ATOM     16  C   UNL     1      -0.753   1.593  -1.232  0.00  0.00    +0.022 C 
ENDBRANCH   8  11
ENDBRANCH   2   3
BRANCH   2  17
ATOM     17  O   UNL     1       6.850   0.298   1.962  0.00  0.00    -0.449 OA
BRANCH  17  18
ATOM     18  C   UNL     1       8.129   0.241   1.545  0.00  0.00    +0.340 C 
ATOM     19  O   UNL     1       8.507   0.965   0.645  0.00  0.00    -0.245 OA
BRANCH  18  20
ATOM     20  C   UNL     1       9.073  -0.700   2.181  0.00  0.00    +0.059 A 
ATOM     21  C   UNL     1       8.643  -1.529   3.220  0.00  0.00    +0.017 A 
ATOM     22  C   UNL     1       9.528  -2.409   3.806  0.00  0.00    +0.028 A 
ATOM     23  C   UNL     1      10.842  -2.465   3.375  0.00  0.00    +0.088 A 
ATOM     24  C   UNL     1      11.276  -1.642   2.351  0.00  0.00    +0.028 A 
ATOM     25  C   UNL     1      10.400  -0.761   1.751  0.00  0.00    +0.017 A 
BRANCH  23  26
ATOM     26  S   UNL     1      11.967  -3.588   4.135  0.00  0.00    -0.006 S 
ATOM     27  O   UNL     1      11.150  -4.636   4.637  0.00  0.00    -0.170 OA
ATOM     28  O   UNL     1      12.948  -3.848   3.139  0.00  0.00    -0.170 OA
ATOM     29  C   UNL     1      12.702  -2.656   5.507  0.00  0.00    +0.200 C 
ENDBRANCH  23  26
ENDBRANCH  18  20
ENDBRANCH  17  18
ENDBRANCH   2  17
TORSDOF 6
