REMARK  Name = ZINC11340992
REMARK  11 active torsions:
REMARK  status: ('A' for Active; 'I' for Inactive)
REMARK    1  A    between atoms: C_1  and  C_2
REMARK    2  A    between atoms: C_2  and  C_4
REMARK    3  A    between atoms: C_2  and  O_20
REMARK    4  A    between atoms: N_6  and  C_7
REMARK    5  A    between atoms: C_10  and  S_13
REMARK    6  A    between atoms: S_13  and  N_16
REMARK    7  A    between atoms: N_16  and  C_17
REMARK    8  A    between atoms: C_17  and  C_18
REMARK    9  A    between atoms: C_17  and  C_19
REMARK   10  A    between atoms: O_20  and  C_21
REMARK   11  A    between atoms: C_21  and  C_23
REMARK                            x       y       z     vdW  Elec       q    Type
REMARK                         _______ _______ _______ _____ _____    ______ ____
ROOT
ATOM      1  C   UNL     1       1.018  -0.570   1.286  0.00  0.00    +0.258 C 
ATOM      2  O   UNL     1       2.059  -1.168   1.111  0.00  0.00    -0.271 OA
ATOM      3  N   UNL     1       0.548  -0.387   2.536  0.00  0.00    -0.282 N 
ATOM      4  H   UNL     1      -0.249   0.146   2.681  0.00  0.00    +0.155 HD
ENDROOT
BRANCH   3   5
ATOM      5  C   UNL     1       1.211  -0.967   3.624  0.00  0.00    +0.034 A 
ATOM      6  C   UNL     1       0.484  -1.437   4.710  0.00  0.00    +0.025 A 
ATOM      7  C   UNL     1       1.141  -2.009   5.783  0.00  0.00    +0.030 A 
ATOM      8  C   UNL     1       2.520  -2.112   5.776  0.00  0.00    +0.105 A 
ATOM      9  C   UNL     1       3.246  -1.644   4.696  0.00  0.00    +0.030 A 
ATOM     10  C   UNL     1       2.595  -1.077   3.618  0.00  0.00    +0.025 A 
BRANCH   8  11
ATOM     11  S   UNL     1       3.354  -2.841   7.146  0.00  0.00    +0.059 S 
ATOM     12  O   UNL     1       4.678  -2.326   7.137  0.00  0.00    -0.153 OA
ATOM     13  O   UNL     1       2.490  -2.705   8.266  0.00  0.00    -0.153 OA
BRANCH  11  14
ATOM     14  N   UNL     1       3.476  -4.464   6.837  0.00  0.00    -0.187 NA
ATOM     15  H   UNL     1       3.010  -5.101   7.402  0.00  0.00    +0.148 HD
BRANCH  14  16
ATOM     16  C   UNL     1       4.286  -4.937   5.712  0.00  0.00    +0.070 C 
ATOM     17  C   UNL     1       4.952  -6.263   6.086  0.00  0.00    +0.025 C 
ATOM     18  C   UNL     1       3.390  -5.143   4.490  0.00  0.00    +0.025 C 
ENDBRANCH  14  16
ENDBRANCH  11  14
ENDBRANCH   8  11
ENDBRANCH   3   5
BRANCH   1  20
ATOM     19  C   UNL     1       0.226   1.497   0.168  0.00  0.00    +0.062 C 
ATOM     20  C   UNL     1       0.250  -0.032   0.106  0.00  0.00    +0.259 C 
BRANCH  20  21
ATOM     21  O   UNL     1       0.883  -0.450  -1.105  0.00  0.00    -0.449 OA
BRANCH  21  22
ATOM     22  C   UNL     1       0.091  -0.623  -2.181  0.00  0.00    +0.340 C 
ATOM     23  O   UNL     1      -1.105  -0.425  -2.094  0.00  0.00    -0.245 OA
BRANCH  22  24
ATOM     24  C   UNL     1       0.674  -1.053  -3.464  0.00  0.00    +0.067 A 
ATOM     25  C   UNL     1       2.019  -1.391  -3.554  0.00  0.00    +0.015 A 
ATOM     26  C   UNL     1       2.566  -1.796  -4.763  0.00  0.00    +0.001 A 
ATOM     27  C   UNL     1       1.818  -1.878  -5.898  0.00  0.00    +0.008 A 
ATOM     28  C   UNL     1       0.452  -1.552  -5.881  0.00  0.00    -0.017 A 
ATOM     29  C   UNL     1      -0.151  -1.140  -4.667  0.00  0.00    -0.004 A 
ATOM     30  C   UNL     1      -1.513  -0.819  -4.644  0.00  0.00    +0.009 A 
ATOM     31  C   UNL     1      -2.246  -0.913  -5.790  0.00  0.00    +0.001 A 
ATOM     32  C   UNL     1      -1.658  -1.324  -6.984  0.00  0.00    +0.001 A 
ATOM     33  C   UNL     1      -0.333  -1.632  -7.044  0.00  0.00    +0.008 A 
ENDBRANCH  22  24
ENDBRANCH  21  22
ENDBRANCH  20  21
ENDBRANCH   1  20
TORSDOF 8
