REMARK  Name = ZINC13141731
REMARK  9 active torsions:
REMARK  status: ('A' for Active; 'I' for Inactive)
REMARK    1  A    between atoms: C_1  and  C_2
REMARK    2  A    between atoms: C_2  and  O_3
REMARK    3  A    between atoms: O_3  and  C_4
REMARK    4  A    between atoms: C_4  and  C_6
REMARK    5  A    between atoms: C_10  and  N_11
REMARK    6  A    between atoms: C_12  and  C_14
REMARK    7  A    between atoms: C_14  and  S_15
REMARK    8  A    between atoms: S_15  and  C_16
REMARK    9  A    between atoms: C_28  and  C_32
REMARK                            x       y       z     vdW  Elec       q    Type
REMARK                         _______ _______ _______ _____ _____    ______ ____
ROOT
ATOM      1  N   UNL     1       1.798   8.678   0.031  0.00  0.00    -0.279 N 
ATOM      2  C   UNL     1       2.686   7.664   0.016  0.00  0.00    +0.228 C 
ATOM      3  O   UNL     1       3.875   7.900   0.006  0.00  0.00    -0.275 OA
ATOM      4  H   UNL     1       0.846   8.489   0.039  0.00  0.00    +0.155 HD
ENDROOT
BRANCH   1   9
ATOM      5  C   UNL     1       1.491  11.157   0.041  0.00  0.00    +0.091 A 
ATOM      6  C   UNL     1       2.212  12.420   0.046  0.00  0.00    -0.021 A 
ATOM      7  C   UNL     1       3.558  12.314   0.032  0.00  0.00    -0.004 A 
ATOM      8  S   UNL     1       3.875  10.572   0.019  0.00  0.00    -0.077 S 
ATOM      9  C   UNL     1       2.244   9.990   0.033  0.00  0.00    +0.086 A 
ATOM     10  C   UNL     1       4.552  13.434   0.025  0.00  0.00    +0.046 C 
ATOM     11  C   UNL     1       3.816  14.732  -0.338  0.00  0.00    -0.009 C 
ATOM     12  C   UNL     1       2.547  14.835   0.513  0.00  0.00    +0.008 C 
ATOM     13  C   UNL     1       1.531  13.783   0.062  0.00  0.00    +0.037 C 
ATOM     14  C   UNL     1       4.722  15.932  -0.055  0.00  0.00    +0.008 C 
BRANCH   5  15
ATOM     15  C   UNL     1       0.028  11.117   0.048  0.00  0.00    +0.342 C 
ATOM     16  O   UNL     1      -0.575  11.098   1.105  0.00  0.00    -0.245 OA
BRANCH  15  17
ATOM     17  O   UNL     1      -0.652  11.103  -1.117  0.00  0.00    -0.461 OA
BRANCH  17  19
ATOM     18  C   UNL     1      -2.693  11.052  -2.445  0.00  0.00    +0.048 C 
ATOM     19  C   UNL     1      -2.101  11.064  -1.034  0.00  0.00    +0.229 C 
ENDBRANCH  17  19
ENDBRANCH  15  17
ENDBRANCH   5  15
ENDBRANCH   1   9
BRANCH   2  20
ATOM     20  C   UNL     1       2.201   6.237   0.014  0.00  0.00    +0.173 C 
BRANCH  20  21
ATOM     21  S   UNL     1       3.622   5.117  -0.006  0.00  0.00    -0.079 S 
BRANCH  21  22
ATOM     22  C   UNL     1       2.788   3.565  -0.006  0.00  0.00    +0.168 A 
ATOM     23  N   UNL     1       3.401   2.344  -0.019  0.00  0.00    -0.333 N 
ATOM     24  H   UNL     1       4.387   2.175  -0.030  0.00  0.00    +0.168 HD
ATOM     25  C   UNL     1       2.404   1.383  -0.013  0.00  0.00    +0.068 A 
ATOM     26  C   UNL     1       2.405  -0.004  -0.021  0.00  0.00    +0.047 A 
ATOM     27  C   UNL     1       1.208  -0.692  -0.013  0.00  0.00    +0.043 A 
ATOM     28  C   UNL     1       0.002  -0.004   0.002  0.00  0.00    +0.022 A 
ATOM     29  C   UNL     1      -0.017   1.373   0.010  0.00  0.00    +0.031 A 
ATOM     30  C   UNL     1       1.186   2.083   0.002  0.00  0.00    +0.090 A 
ATOM     31  N   UNL     1       1.487   3.409   0.006  0.00  0.00    -0.222 NA
ATOM     32 CL   UNL     1       1.210  -2.428  -0.022  0.00  0.00    -0.083 Cl
ENDBRANCH  21  22
ENDBRANCH  20  21
ENDBRANCH   2  20
TORSDOF 7
