REMARK  Name = ZINC41006489
REMARK  12 active torsions:
REMARK  status: ('A' for Active; 'I' for Inactive)
REMARK    1  A    between atoms: C_1  and  C_2
REMARK    2  A    between atoms: C_7  and  N_8
REMARK    3  A    between atoms: C_9  and  C_11
REMARK    4  A    between atoms: C_13  and  C_33
REMARK    5  A    between atoms: C_15  and  C_23
REMARK    6  A    between atoms: C_17  and  C_21
REMARK    7  A    between atoms: C_17  and  O_22
REMARK    8  A    between atoms: N_25  and  C_26
REMARK    9  A    between atoms: C_31  and  C_32
REMARK   10  A    between atoms: C_36  and  N_39
REMARK   11  A    between atoms: N_39  and  C_40
REMARK   12  A    between atoms: N_39  and  C_41
REMARK                            x       y       z     vdW  Elec       q    Type
REMARK                         _______ _______ _______ _____ _____    ______ ____
ROOT
ATOM      1  C   UNL     1      -0.007   0.267   5.064  0.00  0.00    +0.149 C 
ATOM      2  C   UNL     1      -0.540  -0.940   5.844  0.00  0.00    +0.053 C 
ATOM      3  C   UNL     1      -0.498  -0.635   7.342  0.00  0.00    +0.115 C 
ATOM      4  C   UNL     1       0.951  -0.438   7.791  0.00  0.00    +0.082 C 
ATOM      5  C   UNL     1       1.540   0.787   7.084  0.00  0.00    +0.110 C 
ATOM      6  C   UNL     1       1.368   0.615   5.591  0.00  0.00    +0.148 C 
ATOM      7  O   UNL     1       2.304   0.748   4.839  0.00  0.00    -0.296 OA
ATOM      8  C   UNL     1       0.991  -0.223   9.305  0.00  0.00    +0.042 C 
ENDROOT
BRANCH   2   9
ATOM      9  C   UNL     1      -1.961  -1.219   5.427  0.00  0.00    -0.042 A 
ATOM     10  C   UNL     1      -2.888  -0.193   5.404  0.00  0.00    +0.006 A 
ATOM     11  C   UNL     1      -4.191  -0.446   5.023  0.00  0.00    +0.023 A 
ATOM     12  C   UNL     1      -4.570  -1.733   4.662  0.00  0.00    +0.029 A 
ATOM     13  C   UNL     1      -3.636  -2.761   4.686  0.00  0.00    +0.023 A 
ATOM     14  C   UNL     1      -2.334  -2.500   5.063  0.00  0.00    +0.006 A 
BRANCH  12  15
ATOM     15  N   UNL     1      -5.887  -1.992   4.276  0.00  0.00    -0.336 N 
ATOM     16  C   UNL     1      -6.838  -0.887   4.130  0.00  0.00    +0.129 C 
ATOM     17  C   UNL     1      -6.317  -3.368   4.017  0.00  0.00    +0.129 C 
ENDBRANCH  12  15
ENDBRANCH   2   9
BRANCH   1  19
ATOM     18  N   UNL     1       0.539   0.837   2.720  0.00  0.00    -0.285 N 
ATOM     19  C   UNL     1       0.085  -0.077   3.600  0.00  0.00    +0.228 C 
ATOM     20  O   UNL     1      -0.250  -1.177   3.213  0.00  0.00    -0.275 OA
ATOM     21  H   UNL     1       0.867   1.693   3.036  0.00  0.00    +0.155 HD
BRANCH  18  28
ATOM     22  C   UNL     1       0.062   2.973   0.902  0.00  0.00    +0.045 C 
ATOM     23  C   UNL     1       0.308   1.564   0.428  0.00  0.00    -0.029 A 
ATOM     24  C   UNL     1       0.312   1.279  -0.923  0.00  0.00    +0.005 A 
ATOM     25  C   UNL     1       0.538  -0.013  -1.359  0.00  0.00    +0.000 A 
ATOM     26  C   UNL     1       0.761  -1.026  -0.443  0.00  0.00    +0.002 A 
ATOM     27  C   UNL     1       0.759  -0.748   0.910  0.00  0.00    +0.023 A 
ATOM     28  C   UNL     1       0.537   0.551   1.350  0.00  0.00    +0.036 A 
ENDBRANCH  18  28
ENDBRANCH   1  19
BRANCH   3  29
ATOM     29  C   UNL     1      -1.282   0.621   7.620  0.00  0.00    +0.224 C 
ATOM     30  O   UNL     1      -0.928   1.676   7.139  0.00  0.00    -0.275 OA
ATOM     31  N   UNL     1      -2.378   0.572   8.404  0.00  0.00    -0.285 N 
ATOM     32  H   UNL     1      -2.623  -0.257   8.844  0.00  0.00    +0.155 HD
BRANCH  31  33
ATOM     33  C   UNL     1      -3.162   1.717   8.582  0.00  0.00    +0.036 A 
ATOM     34  C   UNL     1      -3.071   2.771   7.682  0.00  0.00    +0.023 A 
ATOM     35  C   UNL     1      -3.846   3.900   7.861  0.00  0.00    +0.002 A 
ATOM     36  C   UNL     1      -4.712   3.982   8.936  0.00  0.00    +0.000 A 
ATOM     37  C   UNL     1      -4.804   2.935   9.835  0.00  0.00    +0.005 A 
ATOM     38  C   UNL     1      -4.037   1.801   9.658  0.00  0.00    -0.029 A 
ATOM     39  C   UNL     1      -4.144   0.657  10.633  0.00  0.00    +0.045 C 
ENDBRANCH  31  33
ENDBRANCH   3  29
BRANCH   4  40
ATOM     40  O   UNL     1       1.716  -1.597   7.454  0.00  0.00    -0.388 OA
ATOM     41  H   UNL     1       2.647  -1.542   7.710  0.00  0.00    +0.210 HD
ENDBRANCH   4  40
TORSDOF 7
