REMARK  Name = ZINC16677968
REMARK  7 active torsions:
REMARK  status: ('A' for Active; 'I' for Inactive)
REMARK    1  A    between atoms: C_1  and  C_2
REMARK    2  A    between atoms: C_2  and  C_3
REMARK    3  A    between atoms: C_3  and  C_4
REMARK    4  A    between atoms: C_4  and  O_5
REMARK    5  A    between atoms: O_5  and  C_6
REMARK    6  A    between atoms: C_11  and  N_12
REMARK    7  A    between atoms: C_18  and  C_21
REMARK                            x       y       z     vdW  Elec       q    Type
REMARK                         _______ _______ _______ _____ _____    ______ ____
ROOT
ATOM      1  N   UNL     1       1.145   0.301  -4.755  0.00  0.00    -0.281 N 
ATOM      2  C   UNL     1       2.013   0.312  -5.813  0.00  0.00    +0.220 A 
ATOM      3  N   UNL     1       3.083  -0.532  -5.817  0.00  0.00    -0.292 N 
ATOM      4  H   UNL     1       3.236  -1.141  -5.077  0.00  0.00    +0.172 HD
ATOM      5  C   UNL     1       3.925  -0.508  -6.876  0.00  0.00    +0.279 A 
ATOM      6  O   UNL     1       4.892  -1.247  -6.925  0.00  0.00    -0.265 OA
ATOM      7  C   UNL     1       3.650   0.411  -7.927  0.00  0.00    +0.157 A 
ATOM      8  N   UNL     1       2.592   1.196  -7.836  0.00  0.00    -0.141 NA
ATOM      9  N   UNL     1       1.808   1.145  -6.819  0.00  0.00    -0.114 NA
ATOM     10  H   UNL     1       1.337  -0.244  -3.975  0.00  0.00    +0.155 HD
ENDROOT
BRANCH   1  16
ATOM     11  C   UNL     1      -0.630   1.487  -3.614  0.00  0.00    +0.142 A 
ATOM     12  C   UNL     1      -1.780   2.258  -3.663  0.00  0.00    +0.047 A 
ATOM     13  C   UNL     1      -2.324   2.612  -4.884  0.00  0.00    +0.004 A 
ATOM     14  C   UNL     1      -1.724   2.200  -6.059  0.00  0.00    +0.002 A 
ATOM     15  C   UNL     1      -0.576   1.430  -6.019  0.00  0.00    +0.027 A 
ATOM     16  C   UNL     1      -0.021   1.075  -4.798  0.00  0.00    +0.076 A 
BRANCH  11  17
ATOM     17  O   UNL     1      -0.094   1.138  -2.414  0.00  0.00    -0.490 OA
BRANCH  17  18
ATOM     18  C   UNL     1      -0.769   1.601  -1.243  0.00  0.00    +0.229 C 
BRANCH  18  19
ATOM     19  C   UNL     1      -0.024   1.112   0.001  0.00  0.00    +0.041 C 
BRANCH  19  21
ATOM     20  C   UNL     1      -0.002   1.119   2.499  0.00  0.00    +0.004 C 
ATOM     21  C   UNL     1      -0.746   1.608   1.256  0.00  0.00    -0.000 C 
ENDBRANCH  19  21
ENDBRANCH  18  19
ENDBRANCH  17  18
ENDBRANCH  11  17
ENDBRANCH   1  16
BRANCH   7  22
ATOM     22  C   UNL     1       4.540   0.487  -9.107  0.00  0.00    +0.007 A 
ATOM     23  C   UNL     1       4.046   0.945 -10.329  0.00  0.00    +0.010 A 
ATOM     24  C   UNL     1       4.883   1.019 -11.424  0.00  0.00    +0.001 A 
ATOM     25  C   UNL     1       6.205   0.629 -11.315  0.00  0.00    +0.000 A 
ATOM     26  C   UNL     1       6.700   0.168 -10.108  0.00  0.00    +0.001 A 
ATOM     27  C   UNL     1       5.875   0.095  -9.004  0.00  0.00    +0.010 A 
ENDBRANCH   7  22
TORSDOF 6
