REMARK  Name = ZINC47367150
REMARK  5 active torsions:
REMARK  status: ('A' for Active; 'I' for Inactive)
REMARK    1  A    between atoms: C_1  and  C_2
REMARK    2  A    between atoms: C_2  and  C_4
REMARK    3  A    between atoms: C_2  and  N_12
REMARK    4  A    between atoms: N_12  and  C_13
REMARK    5  A    between atoms: N_16  and  C_17
REMARK                            x       y       z     vdW  Elec       q    Type
REMARK                         _______ _______ _______ _____ _____    ______ ____
ROOT
ATOM      1  N   UNL     1       0.745  -0.567   1.091  0.00  0.00    -0.282 N 
ATOM      2  C   UNL     1       0.240  -0.417   2.458  0.00  0.00    +0.134 C 
ATOM      3  C   UNL     1       1.901  -1.224   0.868  0.00  0.00    +0.307 C 
ATOM      4  O   UNL     1       2.320  -1.348  -0.267  0.00  0.00    -0.252 OA
ATOM      5  N   UNL     1       2.591  -1.744   1.902  0.00  0.00    -0.269 N 
ATOM      6  H   UNL     1       2.293  -1.588   2.812  0.00  0.00    +0.156 HD
ENDROOT
BRANCH   5   7
ATOM      7  C   UNL     1       3.740  -2.509   1.663  0.00  0.00    +0.038 A 
ATOM      8  C   UNL     1       4.585  -2.183   0.611  0.00  0.00    +0.027 A 
ATOM      9  C   UNL     1       5.720  -2.935   0.373  0.00  0.00    +0.051 A 
ATOM     10  C   UNL     1       6.013  -4.017   1.187  0.00  0.00    +0.162 A 
ATOM     11  C   UNL     1       5.170  -4.346   2.239  0.00  0.00    +0.164 A 
ATOM     12  C   UNL     1       4.036  -3.591   2.483  0.00  0.00    +0.072 A 
ATOM     13  O   UNL     1       5.471  -5.413   3.035  0.00  0.00    -0.488 OA
ATOM     14  C   UNL     1       5.374  -6.699   2.418  0.00  0.00    +0.232 C 
ATOM     15  C   UNL     1       6.656  -7.037   1.673  0.00  0.00    +0.082 C 
ATOM     16  C   UNL     1       6.909  -6.101   0.502  0.00  0.00    +0.232 C 
ATOM     17  O   UNL     1       7.132  -4.765   0.960  0.00  0.00    -0.488 OA
ENDBRANCH   5   7
BRANCH   1  19
ATOM     18  C   UNL     1      -0.024   1.523   0.081  0.00  0.00    +0.033 C 
ATOM     19  C   UNL     1      -0.005  -0.002  -0.033  0.00  0.00    +0.107 C 
BRANCH  19  20
ATOM     20  C   UNL     1      -1.418  -0.525  -0.007  0.00  0.00    +0.011 A 
ATOM     21  C   UNL     1      -2.447   0.286   0.433  0.00  0.00    +0.046 A 
ATOM     22  C   UNL     1      -3.745  -0.195   0.457  0.00  0.00    +0.124 A 
ATOM     23  C   UNL     1      -4.013  -1.487   0.039  0.00  0.00    +0.041 A 
ATOM     24  C   UNL     1      -2.984  -2.298  -0.402  0.00  0.00    +0.041 A 
ATOM     25  C   UNL     1      -1.687  -1.816  -0.430  0.00  0.00    +0.128 A 
ATOM     26  F   UNL     1      -0.682  -2.607  -0.866  0.00  0.00    -0.205 F 
ATOM     27  F   UNL     1      -4.751   0.598   0.888  0.00  0.00    -0.205 F 
ENDBRANCH  19  20
ENDBRANCH   1  19
TORSDOF 3
