REMARK  Name = ZINC13977000
REMARK  9 active torsions:
REMARK  status: ('A' for Active; 'I' for Inactive)
REMARK    1  A    between atoms: C_10  and  C_11
REMARK    2  A    between atoms: C_11  and  C_12
REMARK    3  A    between atoms: N_14  and  C_15
REMARK    4  A    between atoms: C_15  and  N_17
REMARK    5  A    between atoms: N_17  and  N_18
REMARK    6  A    between atoms: C_19  and  C_21
REMARK    7  A    between atoms: C_21  and  O_22
REMARK    8  A    between atoms: O_22  and  C_23
REMARK    9  A    between atoms: C_26  and  N_29
REMARK                            x       y       z     vdW  Elec       q    Type
REMARK                         _______ _______ _______ _____ _____    ______ ____
ROOT
ATOM      1  C   UNL     1       6.810   1.538   2.869  0.00  0.00    +0.153 C 
ATOM      2  S   UNL     1       5.811   1.056   4.173  0.00  0.00    -0.017 S 
ENDROOT
BRANCH   1   5
ATOM      3  C   UNL     1       5.341   0.519   1.367  0.00  0.00    +0.223 C 
ATOM      4  O   UNL     1       4.634   0.178   2.291  0.00  0.00    -0.275 OA
ATOM      5  N   UNL     1       6.469   1.218   1.605  0.00  0.00    -0.266 N 
ATOM      6  H   UNL     1       7.035   1.490   0.866  0.00  0.00    +0.157 HD
BRANCH   3   7
ATOM      7  C   UNL     1       4.960   0.161  -0.046  0.00  0.00    +0.131 C 
BRANCH   7  17
ATOM      8  C   UNL     1      -0.016   1.357   0.009  0.00  0.00    +0.001 A 
ATOM      9  C   UNL     1       1.169   2.091   0.002  0.00  0.00    +0.001 A 
ATOM     10  C   UNL     1       2.378   1.468  -0.013  0.00  0.00    +0.009 A 
ATOM     11  C   UNL     1       2.438   0.064  -0.021  0.00  0.00    -0.014 A 
ATOM     12  C   UNL     1       1.233  -0.683  -0.013  0.00  0.00    -0.018 A 
ATOM     13  C   UNL     1       0.002  -0.004   0.002  0.00  0.00    +0.008 A 
ATOM     14  C   UNL     1       1.292  -2.087  -0.021  0.00  0.00    +0.008 A 
ATOM     15  C   UNL     1       2.502  -2.709  -0.036  0.00  0.00    +0.001 A 
ATOM     16  C   UNL     1       3.687  -1.976  -0.043  0.00  0.00    +0.005 A 
ATOM     17  C   UNL     1       3.668  -0.615  -0.037  0.00  0.00    -0.031 A 
ENDBRANCH   7  17
ENDBRANCH   3   7
ENDBRANCH   1   5
BRANCH   1  18
ATOM     18  N   UNL     1       7.938   2.236   3.106  0.00  0.00    -0.245 N 
ATOM     19  H   UNL     1       8.183   2.467   4.016  0.00  0.00    +0.172 HD
BRANCH  18  20
ATOM     20  N   UNL     1       8.755   2.630   2.039  0.00  0.00    -0.232 N 
ATOM     21  C   UNL     1       9.883   3.329   2.277  0.00  0.00    +0.267 C 
ATOM     22  O   UNL     1      10.190   3.617   3.414  0.00  0.00    -0.271 OA
ATOM     23  H   UNL     1       8.510   2.400   1.129  0.00  0.00    +0.173 HD
BRANCH  21  24
ATOM     24  C   UNL     1      10.763   3.753   1.129  0.00  0.00    +0.326 C 
BRANCH  24  25
ATOM     25  O   UNL     1      11.889   4.475   1.633  0.00  0.00    -0.483 OA
BRANCH  25  26
ATOM     26  C   UNL     1      12.787   4.931   0.721  0.00  0.00    +0.121 A 
ATOM     27  C   UNL     1      12.586   4.694  -0.631  0.00  0.00    +0.048 A 
ATOM     28  C   UNL     1      13.501   5.159  -1.556  0.00  0.00    +0.036 A 
ATOM     29  C   UNL     1      14.616   5.861  -1.135  0.00  0.00    +0.126 A 
ATOM     30  C   UNL     1      14.818   6.098   0.212  0.00  0.00    +0.036 A 
ATOM     31  C   UNL     1      13.903   5.640   1.140  0.00  0.00    +0.048 A 
BRANCH  29  32
ATOM     32  N   UNL     1      15.594   6.358  -2.128  0.00  0.00    +0.056 N 
ATOM     33  O   UNL     1      15.418   6.151  -3.306  0.00  0.00    -0.126 OA
ATOM     34  O   UNL     1      16.569   6.972  -1.761  0.00  0.00    -0.126 OA
ENDBRANCH  29  32
ENDBRANCH  25  26
ENDBRANCH  24  25
ENDBRANCH  21  24
ENDBRANCH  18  20
ENDBRANCH   1  18
TORSDOF 9
