REMARK  Name = ZINC02682852
REMARK  10 active torsions:
REMARK  status: ('A' for Active; 'I' for Inactive)
REMARK    1  A    between atoms: C_1  and  C_2
REMARK    2  A    between atoms: N_4  and  C_5
REMARK    3  A    between atoms: C_8  and  N_11
REMARK    4  A    between atoms: N_11  and  C_12
REMARK    5  A    between atoms: C_12  and  N_14
REMARK    6  A    between atoms: N_14  and  C_15
REMARK    7  A    between atoms: C_15  and  C_17
REMARK    8  A    between atoms: C_15  and  N_21
REMARK    9  A    between atoms: C_22  and  C_24
REMARK   10  A    between atoms: C_29  and  N_30
REMARK                            x       y       z     vdW  Elec       q    Type
REMARK                         _______ _______ _______ _____ _____    ______ ____
ROOT
ATOM      1  C   UNL     1       1.755  10.444  -0.828  0.00  0.00    +0.211 C 
ENDROOT
BRANCH   1   2
ATOM      2  C   UNL     1       2.119  11.644   0.049  0.00  0.00    +0.225 C 
ATOM      3 CL   UNL     1       2.011  11.172   1.786  0.00  0.00    -0.080 Cl
ATOM      4 CL   UNL     1       3.802  12.173  -0.326  0.00  0.00    -0.080 Cl
ATOM      5 CL   UNL     1       0.976  12.998  -0.279  0.00  0.00    -0.080 Cl
ENDBRANCH   1   2
BRANCH   1   6
ATOM      6  N   UNL     1       1.843  10.827  -2.240  0.00  0.00    -0.289 N 
ATOM      7  C   UNL     1       2.450  10.010  -3.123  0.00  0.00    +0.248 C 
ATOM      8  O   UNL     1       2.924   8.955  -2.749  0.00  0.00    -0.270 OA
ATOM      9  H   UNL     1       1.465  11.669  -2.538  0.00  0.00    +0.151 HD
BRANCH   7  10
ATOM     10  C   UNL     1       2.539  10.396  -4.547  0.00  0.00    +0.067 A 
ATOM     11  C   UNL     1       3.082  11.631  -4.906  0.00  0.00    +0.015 A 
ATOM     12  C   UNL     1       3.166  11.984  -6.237  0.00  0.00    +0.001 A 
ATOM     13  C   UNL     1       2.705  11.120  -7.215  0.00  0.00    +0.002 A 
ATOM     14  C   UNL     1       2.161   9.897  -6.866  0.00  0.00    +0.033 A 
ATOM     15  C   UNL     1       2.075   9.530  -5.539  0.00  0.00    +0.138 A 
BRANCH  15  16
ATOM     16  N   UNL     1       1.493   8.221  -5.167  0.00  0.00    +0.057 N 
ATOM     17  O   UNL     1       1.206   7.414  -6.033  0.00  0.00    -0.126 OA
ATOM     18  O   UNL     1       1.301   7.951  -3.995  0.00  0.00    -0.126 OA
ENDBRANCH  15  16
ENDBRANCH   7  10
ENDBRANCH   1   6
BRANCH   1  19
ATOM     19  N   UNL     1       0.388  10.014  -0.524  0.00  0.00    -0.305 N 
ATOM     20  H   UNL     1      -0.319  10.672  -0.434  0.00  0.00    +0.150 HD
BRANCH  19  21
ATOM     21  C   UNL     1       0.113   8.704  -0.367  0.00  0.00    +0.136 C 
ATOM     22  S   UNL     1       1.361   7.543  -0.525  0.00  0.00    -0.019 S 
BRANCH  21  23
ATOM     23  N   UNL     1      -1.144   8.308  -0.087  0.00  0.00    -0.297 N 
ATOM     24  H   UNL     1      -1.839   8.968   0.063  0.00  0.00    +0.154 HD
BRANCH  23  28
ATOM     25  C   UNL     1      -2.050   4.244   0.136  0.00  0.00    +0.033 A 
ATOM     26  C   UNL     1      -2.875   5.101  -0.581  0.00  0.00    +0.025 A 
ATOM     27  C   UNL     1      -2.578   6.447  -0.650  0.00  0.00    +0.025 A 
ATOM     28  C   UNL     1      -1.448   6.943  -0.013  0.00  0.00    +0.033 A 
ATOM     29  C   UNL     1      -0.620   6.085   0.699  0.00  0.00    +0.025 A 
ATOM     30  C   UNL     1      -0.920   4.739   0.773  0.00  0.00    +0.025 A 
BRANCH  25  34
ATOM     31  C   UNL     1      -3.975   1.010   0.208  0.00  0.00    +0.109 C 
ATOM     32  C   UNL     1      -3.640   2.477   0.276  0.00  0.00    +0.214 C 
ATOM     33  O   UNL     1      -4.526   3.297   0.395  0.00  0.00    -0.276 OA
ATOM     34  N   UNL     1      -2.355   2.878   0.211  0.00  0.00    -0.286 N 
ATOM     35  H   UNL     1      -1.641   2.222   0.217  0.00  0.00    +0.155 HD
ENDBRANCH  25  34
ENDBRANCH  23  28
ENDBRANCH  21  23
ENDBRANCH  19  21
ENDBRANCH   1  19
TORSDOF 9
