REMARK  Name = ZINC19629674
REMARK  10 active torsions:
REMARK  status: ('A' for Active; 'I' for Inactive)
REMARK    1  A    between atoms: C_1  and  C_2
REMARK    2  A    between atoms: C_7  and  C_21
REMARK    3  A    between atoms: C_9  and  C_13
REMARK    4  A    between atoms: C_10  and  C_12
REMARK    5  A    between atoms: C_13  and  O_15
REMARK    6  A    between atoms: O_15  and  C_16
REMARK    7  A    between atoms: C_24  and  O_27
REMARK    8  A    between atoms: C_30  and  C_32
REMARK    9  A    between atoms: C_32  and  O_34
REMARK   10  A    between atoms: O_34  and  C_35
REMARK                            x       y       z     vdW  Elec       q    Type
REMARK                         _______ _______ _______ _____ _____    ______ ____
ROOT
ATOM      1  C   UNL     1      -5.864   1.768  -4.649  0.00  0.00    +0.009 C 
ATOM      2  C   UNL     1      -5.115   1.375  -3.374  0.00  0.00    +0.013 C 
ATOM      3  C   UNL     1      -5.131   2.545  -2.387  0.00  0.00    +0.055 C 
ATOM      4  C   UNL     1      -4.350   2.175  -1.151  0.00  0.00    +0.016 C 
ATOM      5  C   UNL     1      -3.301   1.328  -1.218  0.00  0.00    +0.025 C 
ATOM      6  C   UNL     1      -2.513   0.977   0.019  0.00  0.00    +0.092 C 
ATOM      7  C   UNL     1      -3.286   1.312   1.261  0.00  0.00    +0.065 C 
ATOM      8  C   UNL     1      -4.333   2.152   1.226  0.00  0.00    +0.016 C 
ATOM      9  N   UNL     1      -4.726   2.722   0.047  0.00  0.00    -0.321 N 
ATOM     10  C   UNL     1      -5.081   2.470   2.496  0.00  0.00    +0.061 C 
ATOM     11  C   UNL     1      -2.914   0.748  -2.439  0.00  0.00    +0.176 C 
ATOM     12  O   UNL     1      -1.961  -0.005  -2.466  0.00  0.00    -0.291 OA
ATOM     13  C   UNL     1      -3.658   1.044  -3.713  0.00  0.00    +0.171 C 
ATOM     14  H   UNL     1      -5.349   3.628   0.067  0.00  0.00    +0.152 HD
ENDROOT
BRANCH   6  15
ATOM     15  C   UNL     1      -1.220   1.750   0.017  0.00  0.00    -0.035 A 
ATOM     16  C   UNL     1      -0.013   1.076   0.008  0.00  0.00    +0.008 A 
ATOM     17  C   UNL     1       1.175   1.782   0.000  0.00  0.00    +0.046 A 
ATOM     18  C   UNL     1       1.155   3.169   0.008  0.00  0.00    +0.117 A 
ATOM     19  C   UNL     1      -0.057   3.844   0.023  0.00  0.00    +0.046 A 
ATOM     20  C   UNL     1      -1.242   3.133   0.031  0.00  0.00    +0.008 A 
BRANCH  18  21
ATOM     21  O   UNL     1       2.322   3.866   0.000  0.00  0.00    -0.507 OA
ATOM     22  H   UNL     1       2.305   4.966   0.006  0.00  0.00    +0.292 HD
ENDBRANCH  18  21
ENDBRANCH   6  15
BRANCH   7  23
ATOM     23  C   UNL     1      -2.905   0.731   2.493  0.00  0.00    +0.338 C 
ATOM     24  O   UNL     1      -3.523   0.994   3.507  0.00  0.00    -0.245 OA
BRANCH  23  25
ATOM     25  O   UNL     1      -1.855  -0.116   2.543  0.00  0.00    -0.458 OA
BRANCH  25  26
ATOM     26  C   UNL     1      -1.526  -0.666   3.821  0.00  0.00    +0.177 C 
ATOM     27  C   UNL     1      -0.477   0.220   4.523  0.00  0.00    +0.044 C 
ATOM     28  C   UNL     1       0.442  -0.790   5.256  0.00  0.00    +0.004 C 
ATOM     29  C   UNL     1       0.531  -1.965   4.250  0.00  0.00    +0.004 C 
ATOM     30  C   UNL     1      -0.887  -2.055   3.648  0.00  0.00    +0.044 C 
ENDBRANCH  25  26
ENDBRANCH  23  25
ENDBRANCH   7  23
BRANCH  13  31
ATOM     31  C   UNL     1      -3.612  -0.161  -4.617  0.00  0.00    +0.318 C 
ATOM     32  O   UNL     1      -4.639  -0.701  -4.957  0.00  0.00    -0.250 OA
BRANCH  31  33
ATOM     33  O   UNL     1      -2.432  -0.634  -5.045  0.00  0.00    -0.467 OA
ATOM     34  C   UNL     1      -2.463  -1.797  -5.914  0.00  0.00    +0.280 C 
ENDBRANCH  31  33
ENDBRANCH  13  31
TORSDOF 7
