REMARK  Name = ZINC64053596
REMARK  7 active torsions:
REMARK  status: ('A' for Active; 'I' for Inactive)
REMARK    1  A    between atoms: C_6  and  C_11
REMARK    2  A    between atoms: C_15  and  N_17
REMARK    3  A    between atoms: C_18  and  C_20
REMARK    4  A    between atoms: N_25  and  C_27
REMARK    5  A    between atoms: C_27  and  C_28
REMARK    6  A    between atoms: C_31  and  C_33
REMARK    7  A    between atoms: C_33  and  O_34
REMARK                            x       y       z     vdW  Elec       q    Type
REMARK                         _______ _______ _______ _____ _____    ______ ____
ROOT
ATOM      1  N   UNL     1       5.004  -6.009  -2.290  0.00  0.00    -0.285 N 
ATOM      2  C   UNL     1       5.345  -6.664  -3.417  0.00  0.00    +0.218 C 
ATOM      3  O   UNL     1       5.336  -6.083  -4.482  0.00  0.00    -0.275 OA
ATOM      4  H   UNL     1       5.084  -6.450  -1.430  0.00  0.00    +0.155 HD
ENDROOT
BRANCH   2   5
ATOM      5  C   UNL     1       5.737  -8.117  -3.355  0.00  0.00    +0.059 C 
ATOM      6  C   UNL     1       6.963  -8.278  -2.451  0.00  0.00    +0.009 C 
ATOM      7  C   UNL     1       7.400  -9.746  -2.457  0.00  0.00    -0.018 C 
ATOM      8  C   UNL     1       7.680 -10.183  -3.897  0.00  0.00    -0.078 C 
ATOM      9  N   UNL     1       6.463 -10.031  -4.703  0.00  0.00    +0.385 N 
ATOM     10  C   UNL     1       6.077  -8.616  -4.762  0.00  0.00    -0.066 C 
ATOM     11  H   UNL     1       5.715 -10.565  -4.286  0.00  0.00    -0.081 HD
BRANCH   9  12
ATOM     12  C   UNL     1       6.714 -10.525  -6.064  0.00  0.00    -0.003 C 
BRANCH  12  13
ATOM     13  C   UNL     1       6.980 -12.007  -6.019  0.00  0.00    +0.089 A 
ATOM     14  C   UNL     1       6.053 -12.976  -6.127  0.00  0.00    +0.043 A 
ATOM     15  C   UNL     1       6.737 -14.210  -6.031  0.00  0.00    +0.047 A 
ATOM     16  C   UNL     1       8.041 -13.921  -5.871  0.00  0.00    +0.130 A 
ATOM     17  O   UNL     1       8.183 -12.585  -5.870  0.00  0.00    -0.464 OA
BRANCH  16  18
ATOM     18  C   UNL     1       9.155 -14.925  -5.724  0.00  0.00    +0.230 C 
BRANCH  18  19
ATOM     19  O   UNL     1       9.674 -15.254  -7.014  0.00  0.00    -0.387 OA
ATOM     20  H   UNL     1      10.396 -15.898  -6.995  0.00  0.00    +0.210 HD
ENDBRANCH  18  19
ENDBRANCH  16  18
ENDBRANCH  12  13
ENDBRANCH   9  12
ENDBRANCH   2   5
BRANCH   1  25
ATOM     21  C   UNL     1       4.354  -2.498  -1.410  0.00  0.00    -0.020 A 
ATOM     22  C   UNL     1       3.605  -2.090  -2.499  0.00  0.00    +0.006 A 
ATOM     23  C   UNL     1       3.319  -2.980  -3.518  0.00  0.00    +0.002 A 
ATOM     24  C   UNL     1       3.782  -4.280  -3.452  0.00  0.00    +0.023 A 
ATOM     25  C   UNL     1       4.534  -4.693  -2.360  0.00  0.00    +0.034 A 
ATOM     26  C   UNL     1       4.824  -3.795  -1.341  0.00  0.00    +0.029 A 
BRANCH  21  32
ATOM     27  C   UNL     1       2.003   2.104   0.839  0.00  0.00    +0.001 A 
ATOM     28  C   UNL     1       2.923   2.724  -0.018  0.00  0.00    +0.002 A 
ATOM     29  C   UNL     1       3.927   2.052  -0.620  0.00  0.00    +0.026 A 
ATOM     30  C   UNL     1       4.090   0.656  -0.401  0.00  0.00    +0.043 A 
ATOM     31  N   UNL     1       4.967  -0.203  -0.860  0.00  0.00    -0.374 N 
ATOM     32  C   UNL     1       4.663  -1.525  -0.302  0.00  0.00    +0.133 C 
ATOM     33  C   UNL     1       3.450  -1.334   0.580  0.00  0.00    +0.012 C 
ATOM     34  C   UNL     1       3.131  -0.022   0.501  0.00  0.00    -0.004 A 
ATOM     35  C   UNL     1       2.069   0.782   1.115  0.00  0.00    +0.010 A 
ATOM     36  H   UNL     1       5.695   0.002  -1.468  0.00  0.00    +0.161 HD
ENDBRANCH  21  32
ENDBRANCH   1  25
TORSDOF 7
