REMARK  Name = ZINC12706509
REMARK  7 active torsions:
REMARK  status: ('A' for Active; 'I' for Inactive)
REMARK    1  A    between atoms: C_1  and  C_2
REMARK    2  A    between atoms: C_5  and  C_34
REMARK    3  A    between atoms: C_9  and  C_14
REMARK    4  A    between atoms: C_14  and  N_15
REMARK    5  A    between atoms: N_15  and  C_16
REMARK    6  A    between atoms: C_16  and  C_17
REMARK    7  A    between atoms: N_26  and  C_27
REMARK                            x       y       z     vdW  Elec       q    Type
REMARK                         _______ _______ _______ _____ _____    ______ ____
ROOT
ATOM      1  N   UNL     1       0.890   1.935   0.081  0.00  0.00    -0.277 N 
ATOM      2  C   UNL     1      -0.257   1.228   0.108  0.00  0.00    +0.307 C 
ATOM      3  O   UNL     1      -0.222   0.013   0.144  0.00  0.00    -0.252 OA
ATOM      4  N   UNL     1      -1.443   1.868   0.088  0.00  0.00    -0.268 N 
ATOM      5  H   UNL     1      -1.472   2.837   0.115  0.00  0.00    +0.156 HD
ENDROOT
BRANCH   4   6
ATOM      6  C   UNL     1      -2.633   1.133   0.027  0.00  0.00    +0.053 A 
ATOM      7  C   UNL     1      -2.723  -0.100   0.659  0.00  0.00    +0.025 A 
ATOM      8  C   UNL     1      -3.900  -0.820   0.602  0.00  0.00    +0.002 A 
ATOM      9  C   UNL     1      -4.986  -0.319  -0.093  0.00  0.00    +0.002 A 
ATOM     10  C   UNL     1      -4.899   0.906  -0.729  0.00  0.00    +0.022 A 
ATOM     11  C   UNL     1      -3.726   1.634  -0.671  0.00  0.00    +0.062 A 
ATOM     12 CL   UNL     1      -3.616   3.171  -1.470  0.00  0.00    -0.082 Cl
ENDBRANCH   4   6
BRANCH   1  13
ATOM     13  C   UNL     1       2.180   1.240   0.097  0.00  0.00    +0.150 C 
BRANCH  13  22
ATOM     14  C   UNL     1       5.381   3.869  -3.058  0.00  0.00    +0.044 C 
ATOM     15  C   UNL     1       4.883   2.671  -3.823  0.00  0.00    -0.041 A 
ATOM     16  C   UNL     1       5.294   2.458  -5.109  0.00  0.00    +0.004 A 
ATOM     17  C   UNL     1       4.841   1.358  -5.823  0.00  0.00    +0.005 A 
ATOM     18  C   UNL     1       3.966   0.459  -5.250  0.00  0.00    -0.026 A 
ATOM     19  C   UNL     1       3.533   0.655  -3.943  0.00  0.00    +0.052 A 
ATOM     20  C   UNL     1       3.996   1.773  -3.222  0.00  0.00    +0.002 A 
ATOM     21  C   UNL     1       3.534   1.970  -1.847  0.00  0.00    +0.020 A 
ATOM     22  C   UNL     1       2.674   1.066  -1.316  0.00  0.00    +0.035 A 
ATOM     23  C   UNL     1       2.245  -0.041  -2.080  0.00  0.00    +0.254 A 
ATOM     24  O   UNL     1       1.476  -0.844  -1.582  0.00  0.00    -0.268 OA
ATOM     25  N   UNL     1       2.660  -0.228  -3.345  0.00  0.00    -0.322 N 
ATOM     26  H   UNL     1       2.342  -0.997  -3.843  0.00  0.00    +0.169 HD
ATOM     27  C   UNL     1       3.482  -0.731  -6.037  0.00  0.00    +0.046 C 
ENDBRANCH  13  22
ENDBRANCH   1  13
BRANCH   1  28
ATOM     28  C   UNL     1       0.848   3.399   0.037  0.00  0.00    +0.146 C 
BRANCH  28  29
ATOM     29  C   UNL     1       0.821   3.943   1.442  0.00  0.00    -0.012 A 
ATOM     30  C   UNL     1      -0.387   4.249   2.042  0.00  0.00    +0.006 A 
ATOM     31  C   UNL     1      -0.412   4.744   3.332  0.00  0.00    +0.000 A 
ATOM     32  C   UNL     1       0.771   4.943   4.020  0.00  0.00    +0.001 A 
ATOM     33  C   UNL     1       1.979   4.643   3.419  0.00  0.00    +0.020 A 
ATOM     34  C   UNL     1       2.005   4.143   2.130  0.00  0.00    +0.046 A 
ATOM     35 CL   UNL     1       3.522   3.766   1.374  0.00  0.00    -0.083 Cl
ENDBRANCH  28  29
ENDBRANCH   1  28
TORSDOF 5
