REMARK  Name = ZINC15861356
REMARK  6 active torsions:
REMARK  status: ('A' for Active; 'I' for Inactive)
REMARK    1  A    between atoms: C_1  and  C_2
REMARK    2  A    between atoms: C_2  and  C_3
REMARK    3  A    between atoms: C_7  and  N_9
REMARK    4  A    between atoms: C_16  and  C_26
REMARK    5  A    between atoms: C_23  and  O_24
REMARK    6  A    between atoms: O_24  and  C_25
REMARK                            x       y       z     vdW  Elec       q    Type
REMARK                         _______ _______ _______ _____ _____    ______ ____
ROOT
ATOM      1  N   UNL     1       2.072   1.981  -1.249  0.00  0.00    -0.244 N 
ATOM      2  C   UNL     1       2.515   0.753  -1.558  0.00  0.00    +0.141 C 
ATOM      3  S   UNL     1       2.929   0.410  -3.183  0.00  0.00    -0.018 S 
ATOM      4  N   UNL     1       2.647  -0.217  -0.637  0.00  0.00    -0.319 N 
ATOM      5  C   UNL     1       2.226   0.032   0.751  0.00  0.00    +0.111 C 
ATOM      6  C   UNL     1       2.582   1.484   1.110  0.00  0.00    +0.096 C 
ATOM      7  C   UNL     1       1.781   2.377   0.126  0.00  0.00    +0.183 C 
ATOM      8  O   UNL     1       0.393   2.229   0.414  0.00  0.00    -0.464 OA
ATOM      9  C   UNL     1      -0.102   0.981   0.619  0.00  0.00    +0.170 A 
ATOM     10  C   UNL     1       0.722  -0.114   0.800  0.00  0.00    +0.018 A 
ATOM     11  C   UNL     1       0.177  -1.367   1.018  0.00  0.00    +0.009 A 
ATOM     12  C   UNL     1      -1.195  -1.534   1.050  0.00  0.00    +0.004 A 
ATOM     13  C   UNL     1      -2.027  -0.447   0.862  0.00  0.00    +0.049 A 
ATOM     14  C   UNL     1      -1.488   0.809   0.647  0.00  0.00    +0.162 A 
ATOM     15  C   UNL     1       2.188   3.838   0.325  0.00  0.00    +0.079 C 
ATOM     16  H   UNL     1       3.018  -1.077  -0.887  0.00  0.00    +0.148 HD
ENDROOT
BRANCH   1  21
ATOM     17  C   UNL     1       0.439   3.996  -3.856  0.00  0.00    -0.046 A 
ATOM     18  C   UNL     1       1.506   4.750  -4.310  0.00  0.00    +0.004 A 
ATOM     19  C   UNL     1       2.759   4.587  -3.750  0.00  0.00    +0.002 A 
ATOM     20  C   UNL     1       2.950   3.670  -2.735  0.00  0.00    +0.023 A 
ATOM     21  C   UNL     1       1.881   2.911  -2.277  0.00  0.00    +0.039 A 
ATOM     22  C   UNL     1       0.624   3.074  -2.845  0.00  0.00    +0.027 A 
BRANCH  17  24
ATOM     23  C   UNL     1      -1.084   3.220  -5.653  0.00  0.00    +0.009 C 
ATOM     24  C   UNL     1      -0.926   4.176  -4.469  0.00  0.00    +0.032 C 
ENDBRANCH  17  24
ENDBRANCH   1  21
BRANCH  14  25
ATOM     25  O   UNL     1      -2.308   1.879   0.463  0.00  0.00    -0.491 OA
ATOM     26  C   UNL     1      -3.715   1.631   0.503  0.00  0.00    +0.277 C 
ENDBRANCH  14  25
TORSDOF 3
