REMARK  Name = ZINC13623376
REMARK  7 active torsions:
REMARK  status: ('A' for Active; 'I' for Inactive)
REMARK    1  A    between atoms: C_4  and  C_7
REMARK    2  A    between atoms: C_7  and  N_8
REMARK    3  A    between atoms: C_10  and  C_15
REMARK    4  A    between atoms: N_17  and  N_18
REMARK    5  A    between atoms: N_18  and  C_19
REMARK    6  A    between atoms: C_19  and  N_21
REMARK    7  A    between atoms: C_22  and  C_24
REMARK                            x       y       z     vdW  Elec       q    Type
REMARK                         _______ _______ _______ _____ _____    ______ ____
ROOT
ATOM      1  N   UNL     1      -5.945   2.989   0.047  0.00  0.00    -0.246 N 
ATOM      2  H   UNL     1      -6.843   2.623   0.050  0.00  0.00    +0.172 HD
ENDROOT
BRANCH   1   5
ATOM      3  C   UNL     1      -6.818   5.204   0.063  0.00  0.00    +0.234 C 
ATOM      4  O   UNL     1      -7.941   4.746   0.066  0.00  0.00    -0.274 OA
ATOM      5  N   UNL     1      -5.754   4.377   0.053  0.00  0.00    -0.235 N 
ATOM      6  H   UNL     1      -4.855   4.743   0.051  0.00  0.00    +0.173 HD
BRANCH   3   9
ATOM      7  N   UNL     1      -7.765   8.631  -0.756  0.00  0.00    -0.296 N 
ATOM      8  C   UNL     1      -7.966   7.441   0.080  0.00  0.00    +0.121 C 
ATOM      9  C   UNL     1      -6.612   6.697   0.069  0.00  0.00    +0.102 C 
ATOM     10  C   UNL     1      -5.999   7.177  -1.267  0.00  0.00    +0.110 C 
ATOM     11  C   UNL     1      -6.671   8.507  -1.526  0.00  0.00    +0.217 C 
ATOM     12  O   UNL     1      -6.279   9.341  -2.315  0.00  0.00    -0.276 OA
BRANCH   7  13
ATOM     13  C   UNL     1      -8.645   9.802  -0.751  0.00  0.00    +0.142 C 
BRANCH  13  17
ATOM     14  C   UNL     1      -7.267  12.607   2.161  0.00  0.00    +0.000 A 
ATOM     15  C   UNL     1      -6.800  12.674   0.862  0.00  0.00    +0.000 A 
ATOM     16  C   UNL     1      -7.246  11.767  -0.081  0.00  0.00    +0.005 A 
ATOM     17  C   UNL     1      -8.159  10.792   0.276  0.00  0.00    -0.030 A 
ATOM     18  C   UNL     1      -8.630  10.728   1.574  0.00  0.00    +0.005 A 
ATOM     19  C   UNL     1      -8.181  11.633   2.518  0.00  0.00    +0.000 A 
ENDBRANCH  13  17
ENDBRANCH   7  13
ENDBRANCH   3   9
ENDBRANCH   1   5
BRANCH   1  20
ATOM     20  C   UNL     1      -4.880   2.163   0.038  0.00  0.00    +0.153 C 
ATOM     21  S   UNL     1      -5.114   0.467   0.030  0.00  0.00    -0.017 S 
BRANCH  20  22
ATOM     22  N   UNL     1      -3.632   2.671   0.034  0.00  0.00    -0.262 N 
ATOM     23  C   UNL     1      -2.568   1.844   0.025  0.00  0.00    +0.258 C 
ATOM     24  O   UNL     1      -2.734   0.639   0.019  0.00  0.00    -0.269 OA
ATOM     25  H   UNL     1      -3.500   3.632   0.038  0.00  0.00    +0.157 HD
BRANCH  23  26
ATOM     26  C   UNL     1      -1.209   2.398   0.021  0.00  0.00    +0.094 A 
ATOM     27  C   UNL     1      -0.021   1.732   0.012  0.00  0.00    +0.068 A 
ATOM     28  C   UNL     1       1.187   2.454   0.004  0.00  0.00    +0.008 A 
ATOM     29  C   UNL     1       2.512   1.947  -0.011  0.00  0.00    +0.010 A 
ATOM     30  C   UNL     1       3.577   2.789  -0.018  0.00  0.00    +0.001 A 
ATOM     31  C   UNL     1       3.416   4.169  -0.009  0.00  0.00    +0.001 A 
ATOM     32  C   UNL     1       2.144   4.704   0.006  0.00  0.00    +0.016 A 
ATOM     33  C   UNL     1       1.052   3.862   0.012  0.00  0.00    +0.021 A 
ATOM     34  S   UNL     1      -0.706   4.110   0.030  0.00  0.00    -0.082 S 
ATOM     35 CL   UNL     1       0.002  -0.004   0.002  0.00  0.00    -0.082 Cl
ENDBRANCH  23  26
ENDBRANCH  20  22
ENDBRANCH   1  20
TORSDOF 7
