REMARK  Name = ZINC63160827
REMARK  9 active torsions:
REMARK  status: ('A' for Active; 'I' for Inactive)
REMARK    1  A    between atoms: C_1  and  C_2
REMARK    2  A    between atoms: C_2  and  O_3
REMARK    3  A    between atoms: O_3  and  C_4
REMARK    4  A    between atoms: C_4  and  C_6
REMARK    5  A    between atoms: N_12  and  C_13
REMARK    6  A    between atoms: C_13  and  N_14
REMARK    7  A    between atoms: N_17  and  C_30
REMARK    8  A    between atoms: C_18  and  C_21
REMARK    9  A    between atoms: C_30  and  C_31
REMARK                            x       y       z     vdW  Elec       q    Type
REMARK                         _______ _______ _______ _____ _____    ______ ____
ROOT
ATOM      1  N   UNL     1       0.327  -5.916   1.633  0.00  0.00    -0.232 N 
ATOM      2  C   UNL     1       0.389  -6.324   0.359  0.00  0.00    +0.152 C 
ATOM      3  S   UNL     1       0.277  -5.279  -0.992  0.00  0.00    -0.017 S 
ATOM      4  N   UNL     1       0.553  -7.657   0.272  0.00  0.00    -0.288 N 
ATOM      5  C   UNL     1       0.601  -8.172   1.649  0.00  0.00    +0.189 C 
ATOM      6  N   UNL     1       0.452  -6.970   2.493  0.00  0.00    -0.213 NA
ATOM      7  H   UNL     1       1.249  -6.849   3.099  0.00  0.00    +0.147 HD
ENDROOT
BRANCH   5   8
ATOM      8  C   UNL     1      -0.529  -9.139   1.891  0.00  0.00    -0.006 C 
ATOM      9  C   UNL     1      -0.426 -10.438   2.251  0.00  0.00    +0.002 A 
ATOM     10  C   UNL     1       0.727 -11.308   2.514  0.00  0.00    +0.010 A 
ATOM     11  C   UNL     1       0.510 -12.597   2.863  0.00  0.00    +0.001 A 
ATOM     12  C   UNL     1      -0.784 -13.121   2.980  0.00  0.00    +0.002 A 
ATOM     13  C   UNL     1      -1.893 -12.384   2.754  0.00  0.00    +0.026 A 
ATOM     14  C   UNL     1      -1.782 -11.016   2.381  0.00  0.00    +0.043 A 
ATOM     15  N   UNL     1      -2.690 -10.109   2.113  0.00  0.00    -0.380 N 
ATOM     16  C   UNL     1      -2.010  -8.850   1.787  0.00  0.00    +0.148 C 
ATOM     17  H   UNL     1      -3.650 -10.246   2.130  0.00  0.00    +0.160 HD
ENDBRANCH   5   8
BRANCH   1  18
ATOM     18  C   UNL     1       0.153  -4.522   2.049  0.00  0.00    +0.213 C 
BRANCH  18  24
ATOM     19  C   UNL     1       1.452  -3.897   3.990  0.00  0.00    +0.177 C 
ATOM     20  C   UNL     1       2.565  -2.942   4.436  0.00  0.00    +0.099 C 
ATOM     21  S   UNL     1       4.159  -3.619   3.877  0.00  0.00    -0.157 S 
ATOM     22  C   UNL     1       3.853  -3.963   2.116  0.00  0.00    +0.084 C 
ATOM     23  C   UNL     1       2.557  -4.773   2.001  0.00  0.00    +0.097 C 
ATOM     24  N   UNL     1       1.436  -3.991   2.529  0.00  0.00    -0.272 NA
BRANCH  19  25
ATOM     25  C   UNL     1       0.123  -3.378   4.474  0.00  0.00    +0.325 C 
ATOM     26  O   UNL     1      -0.498  -2.589   3.802  0.00  0.00    -0.249 OA
BRANCH  25  27
ATOM     27  O   UNL     1      -0.371  -3.792   5.651  0.00  0.00    -0.464 OA
BRANCH  27  29
ATOM     28  C   UNL     1      -2.033  -3.842   7.405  0.00  0.00    +0.048 C 
ATOM     29  C   UNL     1      -1.636  -3.259   6.048  0.00  0.00    +0.229 C 
ENDBRANCH  27  29
ENDBRANCH  25  27
ENDBRANCH  19  25
ENDBRANCH  18  24
ENDBRANCH   1  18
BRANCH   4  30
ATOM     30  C   UNL     1       0.661  -8.445  -0.959  0.00  0.00    +0.140 C 
BRANCH  30  31
ATOM     31  C   UNL     1       2.130  -8.545  -1.373  0.00  0.00    +0.136 C 
ATOM     32  C   UNL     1       2.244  -9.269  -2.731  0.00  0.00    +0.035 C 
ATOM     33  C   UNL     1       3.509 -10.147  -2.533  0.00  0.00    +0.031 C 
ATOM     34  C   UNL     1       3.390 -10.498  -1.028  0.00  0.00    +0.160 C 
ATOM     35  O   UNL     1       2.856  -9.316  -0.407  0.00  0.00    -0.375 OA
ENDBRANCH  30  31
ENDBRANCH   4  30
TORSDOF 8
