REMARK  Name = ZINC11811772
REMARK  4 active torsions:
REMARK  status: ('A' for Active; 'I' for Inactive)
REMARK    1  A    between atoms: C_6  and  C_7
REMARK    2  A    between atoms: C_13  and  C_15
REMARK    3  A    between atoms: C_18  and  N_20
REMARK    4  A    between atoms: C_21  and  C_23
REMARK                            x       y       z     vdW  Elec       q    Type
REMARK                         _______ _______ _______ _____ _____    ______ ____
ROOT
ATOM      1  C   UNL     1       0.002  -0.004   0.002  0.00  0.00    +0.080 A 
ATOM      2  C   UNL     1      -1.169  -0.710   0.009  0.00  0.00    +0.076 A 
ATOM      3  S   UNL     1      -0.545  -2.386  -0.006  0.00  0.00    -0.060 S 
ATOM      4  C   UNL     1       1.195  -1.977  -0.021  0.00  0.00    +0.165 A 
ATOM      5  N   UNL     1       1.155  -0.657  -0.018  0.00  0.00    -0.225 NA
ATOM      6  N   UNL     1       2.296  -2.822  -0.036  0.00  0.00    -0.260 N 
ATOM      7  C   UNL     1       2.119  -4.158  -0.042  0.00  0.00    +0.256 C 
ATOM      8  O   UNL     1       0.994  -4.624  -0.033  0.00  0.00    -0.269 OA
ATOM      9  H   UNL     1       3.192  -2.451  -0.043  0.00  0.00    +0.157 HD
ENDROOT
BRANCH   1  15
ATOM     10  C   UNL     1      -1.233   2.162   0.020  0.00  0.00    +0.011 A 
ATOM     11  C   UNL     1      -1.246   3.542   0.033  0.00  0.00    +0.020 A 
ATOM     12  C   UNL     1      -0.056   4.248   0.025  0.00  0.00    +0.041 A 
ATOM     13  C   UNL     1       1.154   3.574   0.010  0.00  0.00    +0.020 A 
ATOM     14  C   UNL     1       1.178   2.195   0.003  0.00  0.00    +0.011 A 
ATOM     15  C   UNL     1      -0.018   1.479   0.010  0.00  0.00    +0.001 A 
ATOM     16 CL   UNL     1      -0.079   5.984   0.035  0.00  0.00    -0.084 Cl
ENDBRANCH   1  15
BRANCH   7  17
ATOM     17  C   UNL     1       3.244  -5.022  -0.058  0.00  0.00    +0.076 A 
ATOM     18  C   UNL     1       3.279  -6.409  -0.066  0.00  0.00    +0.022 A 
ATOM     19  C   UNL     1       4.511  -7.006  -0.081  0.00  0.00    +0.032 A 
ATOM     20  C   UNL     1       5.635  -6.208  -0.088  0.00  0.00    +0.072 A 
ATOM     21  S   UNL     1       4.978  -4.604  -0.081  0.00  0.00    -0.069 S 
BRANCH  20  22
ATOM     22  N   UNL     1       6.969  -6.596  -0.104  0.00  0.00    -0.280 N 
ATOM     23  C   UNL     1       7.942  -5.663  -0.108  0.00  0.00    +0.221 C 
ATOM     24  O   UNL     1       7.652  -4.485  -0.099  0.00  0.00    -0.275 OA
ATOM     25  H   UNL     1       7.200  -7.538  -0.111  0.00  0.00    +0.155 HD
BRANCH  23  26
ATOM     26  C   UNL     1       9.389  -6.083  -0.125  0.00  0.00    +0.075 C 
ATOM     27  C   UNL     1      10.218  -5.812   1.132  0.00  0.00    +0.013 C 
ATOM     28  C   UNL     1      10.446  -4.977  -0.130  0.00  0.00    +0.013 C 
ENDBRANCH  23  26
ENDBRANCH  20  22
ENDBRANCH   7  17
TORSDOF 4
