REMARK  Name = ZINC05881691
REMARK  11 active torsions:
REMARK  status: ('A' for Active; 'I' for Inactive)
REMARK    1  A    between atoms: C_1  and  C_2
REMARK    2  A    between atoms: C_3  and  N_9
REMARK    3  A    between atoms: C_10  and  C_12
REMARK    4  A    between atoms: C_12  and  C_13
REMARK    5  A    between atoms: C_13  and  C_14
REMARK    6  A    between atoms: N_16  and  N_17
REMARK    7  A    between atoms: C_18  and  C_20
REMARK    8  A    between atoms: C_23  and  C_26
REMARK    9  A    between atoms: C_26  and  C_27
REMARK   10  A    between atoms: C_26  and  C_28
REMARK   11  A    between atoms: C_26  and  C_29
REMARK                            x       y       z     vdW  Elec       q    Type
REMARK                         _______ _______ _______ _____ _____    ______ ____
ROOT
ATOM      1  C   UNL     1       3.636  -4.865  -0.030  0.00  0.00    +0.230 C 
ATOM      2  O   UNL     1       4.675  -4.239  -0.030  0.00  0.00    -0.274 OA
ATOM      3  N   UNL     1       2.456  -4.213  -0.012  0.00  0.00    -0.234 N 
ATOM      4  H   UNL     1       1.625  -4.713  -0.011  0.00  0.00    +0.173 HD
ENDROOT
BRANCH   3   5
ATOM      5  N   UNL     1       2.431  -2.812   0.007  0.00  0.00    -0.230 N 
ATOM      6  C   UNL     1       1.251  -2.160   0.025  0.00  0.00    +0.260 C 
ATOM      7  O   UNL     1       0.210  -2.787   0.025  0.00  0.00    -0.269 OA
ATOM      8  H   UNL     1       3.262  -2.312   0.006  0.00  0.00    +0.173 HD
BRANCH   6   9
ATOM      9  C   UNL     1       1.224  -0.682   0.044  0.00  0.00    +0.038 A 
ATOM     10  C   UNL     1       0.005  -0.003   0.063  0.00  0.00    +0.013 A 
ATOM     11  C   UNL     1      -0.014   1.376   0.081  0.00  0.00    +0.005 A 
ATOM     12  C   UNL     1       1.173   2.087   0.081  0.00  0.00    -0.042 A 
ATOM     13  C   UNL     1       2.386   1.420   0.063  0.00  0.00    +0.005 A 
ATOM     14  C   UNL     1       2.418   0.041   0.044  0.00  0.00    +0.013 A 
BRANCH  12  15
ATOM     15  C   UNL     1       1.146   3.593   0.101  0.00  0.00    -0.013 C 
ATOM     16  C   UNL     1       0.425   4.074   1.362  0.00  0.00    +0.015 C 
ATOM     17  C   UNL     1       2.579   4.130   0.097  0.00  0.00    +0.015 C 
ATOM     18  C   UNL     1       0.406   4.106  -1.136  0.00  0.00    +0.015 C 
ENDBRANCH  12  15
ENDBRANCH   6   9
ENDBRANCH   3   5
BRANCH   1  19
ATOM     19  C   UNL     1       3.663  -6.371  -0.049  0.00  0.00    +0.106 C 
BRANCH  19  20
ATOM     20  C   UNL     1       5.115  -6.855  -0.067  0.00  0.00    +0.105 C 
BRANCH  20  22
ATOM     21  N   UNL     1       6.322  -9.013  -0.105  0.00  0.00    -0.285 N 
ATOM     22  C   UNL     1       5.143  -8.361  -0.087  0.00  0.00    +0.218 C 
ATOM     23  O   UNL     1       4.104  -8.987  -0.087  0.00  0.00    -0.275 OA
ATOM     24  H   UNL     1       7.150  -8.515  -0.186  0.00  0.00    +0.155 HD
BRANCH  21  27
ATOM     25  C   UNL     1       8.559 -10.391  -1.198  0.00  0.00    +0.047 C 
ATOM     26  C   UNL     1       7.424 -11.120  -0.527  0.00  0.00    -0.011 A 
ATOM     27  C   UNL     1       6.351 -10.409  -0.007  0.00  0.00    +0.038 A 
ATOM     28  C   UNL     1       5.305 -11.085   0.606  0.00  0.00    +0.023 A 
ATOM     29  C   UNL     1       5.336 -12.463   0.701  0.00  0.00    +0.003 A 
ATOM     30  C   UNL     1       6.408 -13.169   0.188  0.00  0.00    +0.020 A 
ATOM     31  C   UNL     1       7.453 -12.498  -0.423  0.00  0.00    +0.046 A 
ATOM     32 CL   UNL     1       8.797 -13.389  -1.066  0.00  0.00    -0.083 Cl
ENDBRANCH  21  27
ENDBRANCH  20  22
ENDBRANCH  19  20
ENDBRANCH   1  19
TORSDOF 7
