REMARK  Name = ZINC63625877
REMARK  6 active torsions:
REMARK  status: ('A' for Active; 'I' for Inactive)
REMARK    1  A    between atoms: C_4  and  C_7
REMARK    2  A    between atoms: C_7  and  C_8
REMARK    3  A    between atoms: C_7  and  N_14
REMARK    4  A    between atoms: N_17  and  C_20
REMARK    5  A    between atoms: C_23  and  N_26
REMARK    6  A    between atoms: C_27  and  C_29
REMARK                            x       y       z     vdW  Elec       q    Type
REMARK                         _______ _______ _______ _____ _____    ______ ____
ROOT
ATOM      1  C   UNL     1       4.720  -4.033  -4.256  0.00  0.00    +0.030 A 
ATOM      2  C   UNL     1       5.899  -4.765  -4.205  0.00  0.00    +0.025 A 
ATOM      3  C   UNL     1       6.466  -5.243  -5.370  0.00  0.00    +0.025 A 
ATOM      4  C   UNL     1       5.856  -4.992  -6.592  0.00  0.00    +0.034 A 
ATOM      5  C   UNL     1       4.677  -4.260  -6.643  0.00  0.00    +0.025 A 
ATOM      6  C   UNL     1       4.107  -3.788  -5.478  0.00  0.00    +0.025 A 
ENDROOT
BRANCH   1  10
ATOM      7  N   UNL     1       3.663  -1.849  -0.921  0.00  0.00    -0.289 NA
ATOM      8  C   UNL     1       3.240  -1.435  -2.266  0.00  0.00    +0.104 C 
ATOM      9  C   UNL     1       2.959  -2.680  -3.115  0.00  0.00    +0.120 C 
ATOM     10  N   UNL     1       4.145  -3.549  -3.076  0.00  0.00    -0.327 N 
ATOM     11  C   UNL     1       4.711  -3.896  -1.763  0.00  0.00    +0.120 C 
ATOM     12  C   UNL     1       4.923  -2.603  -0.968  0.00  0.00    +0.104 C 
BRANCH   7  13
ATOM     13  C   UNL     1       3.776  -0.690  -0.025  0.00  0.00    +0.117 C 
BRANCH  13  17
ATOM     14  C   UNL     1       0.068   1.429   0.034  0.00  0.00    +0.000 A 
ATOM     15  C   UNL     1       1.262   2.126   0.024  0.00  0.00    +0.000 A 
ATOM     16  C   UNL     1       2.462   1.440   0.005  0.00  0.00    +0.005 A 
ATOM     17  C   UNL     1       2.468   0.058  -0.004  0.00  0.00    -0.026 A 
ATOM     18  C   UNL     1       1.274  -0.639   0.007  0.00  0.00    +0.005 A 
ATOM     19  C   UNL     1       0.074   0.047   0.025  0.00  0.00    +0.000 A 
ENDBRANCH  13  17
BRANCH  13  20
ATOM     20  C   UNL     1       4.108  -1.162   1.367  0.00  0.00    -0.026 A 
ATOM     21  C   UNL     1       3.511  -2.302   1.871  0.00  0.00    +0.005 A 
ATOM     22  C   UNL     1       3.816  -2.735   3.148  0.00  0.00    +0.000 A 
ATOM     23  C   UNL     1       4.718  -2.028   3.920  0.00  0.00    +0.000 A 
ATOM     24  C   UNL     1       5.316  -0.888   3.416  0.00  0.00    +0.000 A 
ATOM     25  C   UNL     1       5.015  -0.458   2.137  0.00  0.00    +0.005 A 
ENDBRANCH  13  20
ENDBRANCH   7  13
ENDBRANCH   1  10
BRANCH   4  26
ATOM     26  N   UNL     1       6.432  -5.476  -7.775  0.00  0.00    -0.284 N 
ATOM     27  C   UNL     1       7.071  -6.663  -7.776  0.00  0.00    +0.244 C 
ATOM     28  O   UNL     1       7.064  -7.357  -6.781  0.00  0.00    -0.273 OA
ATOM     29  H   UNL     1       6.370  -4.958  -8.592  0.00  0.00    +0.155 HD
BRANCH  27  30
ATOM     30  C   UNL     1       7.795  -7.128  -9.013  0.00  0.00    +0.190 C 
ATOM     31  C   UNL     1       8.917  -6.173  -9.351  0.00  0.00    +0.016 C 
ATOM     32  C   UNL     1      10.057  -6.898  -9.292  0.00  0.00    -0.002 A 
ATOM     33  C   UNL     1      11.467  -6.554  -9.513  0.00  0.00    +0.029 A 
ATOM     34  C   UNL     1      12.407  -7.518  -9.378  0.00  0.00    +0.042 A 
ATOM     35  C   UNL     1      12.067  -8.835  -9.032  0.00  0.00    +0.022 A 
ATOM     36  C   UNL     1      10.794  -9.226  -8.813  0.00  0.00    +0.027 A 
ATOM     37  C   UNL     1       9.726  -8.294  -8.928  0.00  0.00    +0.043 A 
ATOM     38  N   UNL     1       8.430  -8.428  -8.769  0.00  0.00    -0.370 N 
ATOM     39 CL   UNL     1      14.075  -7.115  -9.639  0.00  0.00    -0.084 Cl
ATOM     40  H   UNL     1       7.969  -9.247  -8.530  0.00  0.00    +0.161 HD
ENDBRANCH  27  30
ENDBRANCH   4  26
TORSDOF 6
