REMARK  Name = ZINC39696111
REMARK  8 active torsions:
REMARK  status: ('A' for Active; 'I' for Inactive)
REMARK    1  A    between atoms: C_1  and  C_2
REMARK    2  A    between atoms: C_2  and  C_3
REMARK    3  A    between atoms: C_6  and  C_9
REMARK    4  A    between atoms: C_9  and  C_11
REMARK    5  A    between atoms: C_9  and  N_12
REMARK    6  A    between atoms: C_13  and  C_15
REMARK    7  A    between atoms: C_26  and  C_28
REMARK    8  A    between atoms: C_31  and  C_36
REMARK                            x       y       z     vdW  Elec       q    Type
REMARK                         _______ _______ _______ _____ _____    ______ ____
ROOT
ATOM      1  C   UNL     1      -8.322  -0.550  -1.973  0.00  0.00    +0.100 C 
ATOM      2  C   UNL     1      -8.014   0.963  -1.995  0.00  0.00    +0.121 C 
ATOM      3  N   UNL     1      -9.312   1.606  -2.306  0.00  0.00    -0.296 N 
ATOM      4  C   UNL     1     -10.306   0.817  -1.539  0.00  0.00    +0.115 C 
ATOM      5  C   UNL     1      -9.828  -0.642  -1.673  0.00  0.00    -0.004 C 
ATOM      6  C   UNL     1     -10.062  -1.395  -0.366  0.00  0.00    -0.010 C 
ATOM      7  C   UNL     1     -11.567  -1.524  -0.119  0.00  0.00    -0.082 C 
ATOM      8  N   UNL     1     -12.189  -2.241  -1.239  0.00  0.00    +0.379 N 
ATOM      9  C   UNL     1     -12.041  -1.465  -2.475  0.00  0.00    -0.082 C 
ATOM     10  C   UNL     1     -10.555  -1.333  -2.822  0.00  0.00    -0.010 C 
ATOM     11  C   UNL     1      -9.538   2.667  -3.105  0.00  0.00    +0.250 C 
ATOM     12  O   UNL     1      -8.626   3.150  -3.747  0.00  0.00    -0.270 OA
ATOM     13  H   UNL     1     -11.742  -3.139  -1.351  0.00  0.00    -0.086 HD
ATOM     14  H   UNL     1     -13.170  -2.379  -1.045  0.00  0.00    -0.086 HD
ENDROOT
BRANCH  11  15
ATOM     15  C   UNL     1     -10.895   3.244  -3.201  0.00  0.00    +0.075 A 
ATOM     16  C   UNL     1     -11.728   3.267  -2.080  0.00  0.00    +0.016 A 
ATOM     17  C   UNL     1     -12.993   3.806  -2.175  0.00  0.00    +0.007 A 
ATOM     18  C   UNL     1     -13.442   4.325  -3.378  0.00  0.00    -0.012 A 
ATOM     19  C   UNL     1     -12.624   4.306  -4.495  0.00  0.00    +0.162 A 
ATOM     20  C   UNL     1     -11.348   3.773  -4.412  0.00  0.00    +0.171 A 
ATOM     21  F   UNL     1     -10.547   3.760  -5.500  0.00  0.00    -0.202 F 
ATOM     22  F   UNL     1     -13.069   4.814  -5.665  0.00  0.00    -0.202 F 
ATOM     23  C   UNL     1     -14.827   4.911  -3.472  0.00  0.00    +0.047 C 
ENDBRANCH  11  15
BRANCH   1  25
ATOM     24  N   UNL     1      -7.314  -2.562  -0.945  0.00  0.00    -0.308 N 
ATOM     25  C   UNL     1      -7.529  -1.232  -0.889  0.00  0.00    +0.219 C 
ATOM     26  O   UNL     1      -7.083  -0.585   0.035  0.00  0.00    -0.275 OA
ATOM     27  H   UNL     1      -7.670  -3.079  -1.684  0.00  0.00    +0.149 HD
BRANCH  24  28
ATOM     28  C   UNL     1      -6.542  -3.224   0.109  0.00  0.00    +0.100 C 
ATOM     29  C   UNL     1      -7.468  -3.572   1.277  0.00  0.00    +0.033 C 
BRANCH  28  33
ATOM     30  C   UNL     1      -4.799  -6.805  -1.437  0.00  0.00    -0.048 A 
ATOM     31  C   UNL     1      -4.075  -5.998  -0.580  0.00  0.00    +0.004 A 
ATOM     32  C   UNL     1      -4.639  -4.839  -0.079  0.00  0.00    +0.006 A 
ATOM     33  C   UNL     1      -5.927  -4.487  -0.437  0.00  0.00    -0.027 A 
ATOM     34  C   UNL     1      -6.651  -5.294  -1.295  0.00  0.00    +0.006 A 
ATOM     35  C   UNL     1      -6.085  -6.450  -1.799  0.00  0.00    +0.004 A 
BRANCH  30  37
ATOM     36  C   UNL     1      -3.456  -7.757  -3.292  0.00  0.00    +0.009 C 
ATOM     37  C   UNL     1      -4.184  -8.068  -1.982  0.00  0.00    +0.032 C 
ENDBRANCH  30  37
ENDBRANCH  28  33
ENDBRANCH  24  28
ENDBRANCH   1  25
TORSDOF 5
