REMARK  Name = ZINC03024795
REMARK  8 active torsions:
REMARK  status: ('A' for Active; 'I' for Inactive)
REMARK    1  A    between atoms: C_1  and  C_2
REMARK    2  A    between atoms: C_2  and  C_3
REMARK    3  A    between atoms: C_2  and  C_4
REMARK    4  A    between atoms: C_7  and  N_10
REMARK    5  A    between atoms: C_11  and  C_13
REMARK    6  A    between atoms: C_15  and  S_20
REMARK    7  A    between atoms: S_20  and  N_23
REMARK    8  A    between atoms: N_23  and  C_24
REMARK                            x       y       z     vdW  Elec       q    Type
REMARK                         _______ _______ _______ _____ _____    ______ ____
ROOT
ATOM      1  C   UNL     1      -7.205  -3.080  -1.050  0.00  0.00    +0.074 A 
ATOM      2  C   UNL     1      -8.062  -2.751   0.003  0.00  0.00    +0.044 A 
ATOM      3  C   UNL     1      -9.383  -3.143  -0.039  0.00  0.00    +0.106 A 
ATOM      4  C   UNL     1      -9.863  -3.862  -1.120  0.00  0.00    +0.031 A 
ATOM      5  C   UNL     1      -9.023  -4.193  -2.167  0.00  0.00    +0.041 A 
ATOM      6  C   UNL     1      -7.696  -3.802  -2.142  0.00  0.00    +0.136 A 
ATOM      7  F   UNL     1      -6.877  -4.120  -3.168  0.00  0.00    -0.205 F 
ENDROOT
BRANCH   1   9
ATOM      8  N   UNL     1      -5.319  -1.969   0.043  0.00  0.00    -0.281 N 
ATOM      9  C   UNL     1      -5.789  -2.664  -1.012  0.00  0.00    +0.251 C 
ATOM     10  O   UNL     1      -5.047  -2.948  -1.932  0.00  0.00    -0.270 OA
ATOM     11  H   UNL     1      -5.889  -1.808   0.811  0.00  0.00    +0.155 HD
BRANCH   8  15
ATOM     12  C   UNL     1      -1.418  -0.508   0.005  0.00  0.00    -0.045 A 
ATOM     13  C   UNL     1      -2.138  -0.585  -1.174  0.00  0.00    +0.006 A 
ATOM     14  C   UNL     1      -3.431  -1.069  -1.165  0.00  0.00    +0.023 A 
ATOM     15  C   UNL     1      -4.009  -1.479   0.030  0.00  0.00    +0.034 A 
ATOM     16  C   UNL     1      -3.284  -1.401   1.212  0.00  0.00    +0.023 A 
ATOM     17  C   UNL     1      -1.989  -0.921   1.195  0.00  0.00    +0.006 A 
BRANCH  12  19
ATOM     18  C   UNL     1       0.856  -0.854  -0.920  0.00  0.00    +0.012 C 
ATOM     19  C   UNL     1      -0.007   0.021  -0.009  0.00  0.00    +0.013 C 
ATOM     20  C   UNL     1      -0.007   1.459  -0.532  0.00  0.00    +0.012 C 
ENDBRANCH  12  19
ENDBRANCH   8  15
ENDBRANCH   1   9
BRANCH   3  21
ATOM     21  S   UNL     1     -10.464  -2.728   1.289  0.00  0.00    +0.059 S 
ATOM     22  O   UNL     1     -11.519  -3.680   1.267  0.00  0.00    -0.153 OA
ATOM     23  O   UNL     1      -9.645  -2.526   2.432  0.00  0.00    -0.153 OA
BRANCH  21  24
ATOM     24  N   UNL     1     -11.143  -1.261   0.928  0.00  0.00    -0.187 NA
ATOM     25  H   UNL     1     -10.952  -0.489   1.483  0.00  0.00    +0.148 HD
BRANCH  24  26
ATOM     26  C   UNL     1     -12.032  -1.130  -0.229  0.00  0.00    +0.077 C 
ATOM     27  C   UNL     1     -11.228  -0.645  -1.437  0.00  0.00    +0.020 C 
ATOM     28  C   UNL     1     -12.157  -0.508  -2.646  0.00  0.00    +0.002 C 
ATOM     29  C   UNL     1     -13.261   0.502  -2.328  0.00  0.00    +0.000 C 
ATOM     30  C   UNL     1     -14.065   0.017  -1.120  0.00  0.00    +0.002 C 
ATOM     31  C   UNL     1     -13.136  -0.120   0.088  0.00  0.00    +0.020 C 
ENDBRANCH  24  26
ENDBRANCH  21  24
ENDBRANCH   3  21
TORSDOF 6
