REMARK  Name = ZINC39688770
REMARK  6 active torsions:
REMARK  status: ('A' for Active; 'I' for Inactive)
REMARK    1  A    between atoms: C_1  and  C_2
REMARK    2  A    between atoms: C_2  and  C_4
REMARK    3  A    between atoms: C_2  and  N_12
REMARK    4  A    between atoms: C_4  and  C_5
REMARK    5  A    between atoms: C_13  and  C_15
REMARK    6  A    between atoms: C_26  and  C_28
REMARK                            x       y       z     vdW  Elec       q    Type
REMARK                         _______ _______ _______ _____ _____    ______ ____
ROOT
ATOM      1  C   UNL     1       2.741  -1.073  -2.452  0.00  0.00    +0.100 C 
ATOM      2  C   UNL     1       2.409  -2.559  -2.714  0.00  0.00    +0.121 C 
ATOM      3  N   UNL     1       3.674  -3.142  -3.219  0.00  0.00    -0.295 N 
ATOM      4  C   UNL     1       4.730  -2.501  -2.399  0.00  0.00    +0.115 C 
ATOM      5  C   UNL     1       4.265  -1.039  -2.246  0.00  0.00    -0.004 C 
ATOM      6  C   UNL     1       4.923  -0.162  -3.307  0.00  0.00    -0.010 C 
ATOM      7  C   UNL     1       6.430  -0.098  -3.046  0.00  0.00    -0.082 C 
ATOM      8  N   UNL     1       6.674   0.453  -1.708  0.00  0.00    +0.379 N 
ATOM      9  C   UNL     1       6.119  -0.445  -0.688  0.00  0.00    -0.082 C 
ATOM     10  C   UNL     1       4.598  -0.524  -0.849  0.00  0.00    -0.010 C 
ATOM     11  C   UNL     1       3.830  -4.050  -4.203  0.00  0.00    +0.265 C 
ATOM     12  O   UNL     1       4.934  -4.495  -4.449  0.00  0.00    -0.268 OA
ATOM     13  H   UNL     1       7.668   0.551  -1.562  0.00  0.00    -0.086 HD
ATOM     14  H   UNL     1       6.235   1.358  -1.633  0.00  0.00    -0.086 HD
ENDROOT
BRANCH  11  15
ATOM     15  C   UNL     1       2.656  -4.505  -4.985  0.00  0.00    +0.126 A 
ATOM     16  C   UNL     1       2.816  -5.532  -5.927  0.00  0.00    +0.033 A 
ATOM     17  C   UNL     1       1.742  -5.961  -6.653  0.00  0.00    +0.012 A 
ATOM     18  C   UNL     1       0.497  -5.346  -6.426  0.00  0.00    +0.000 A 
ATOM     19  C   UNL     1      -0.649  -5.737  -7.137  0.00  0.00    +0.010 A 
ATOM     20  C   UNL     1      -1.838  -5.121  -6.890  0.00  0.00    +0.001 A 
ATOM     21  C   UNL     1      -1.934  -4.104  -5.940  0.00  0.00    +0.002 A 
ATOM     22  C   UNL     1      -0.846  -3.699  -5.233  0.00  0.00    +0.028 A 
ATOM     23  C   UNL     1       0.402  -4.312  -5.458  0.00  0.00    +0.072 A 
ATOM     24  N   UNL     1       1.484  -3.938  -4.775  0.00  0.00    -0.242 NA
ENDBRANCH  11  15
BRANCH   1  26
ATOM     25  N   UNL     1       1.830   0.733  -1.028  0.00  0.00    -0.312 N 
ATOM     26  C   UNL     1       2.033  -0.587  -1.214  0.00  0.00    +0.218 C 
ATOM     27  O   UNL     1       1.645  -1.383  -0.386  0.00  0.00    -0.275 OA
ATOM     28  H   UNL     1       2.141   1.369  -1.690  0.00  0.00    +0.149 HD
BRANCH  25  30
ATOM     29  C   UNL     1       2.150   1.348   1.318  0.00  0.00    +0.028 C 
ATOM     30  C   UNL     1       1.142   1.205   0.176  0.00  0.00    +0.074 C 
BRANCH  30  31
ATOM     31  C   UNL     1       0.495   2.563  -0.106  0.00  0.00    +0.057 C 
BRANCH  31  32
ATOM     32  C   UNL     1      -0.584   2.399  -1.145  0.00  0.00    -0.045 A 
ATOM     33  C   UNL     1      -0.276   2.521  -2.487  0.00  0.00    +0.006 A 
ATOM     34  C   UNL     1      -1.264   2.371  -3.440  0.00  0.00    +0.038 A 
ATOM     35  C   UNL     1      -2.565   2.098  -3.051  0.00  0.00    +0.123 A 
ATOM     36  C   UNL     1      -2.873   1.977  -1.706  0.00  0.00    +0.038 A 
ATOM     37  C   UNL     1      -1.881   2.122  -0.755  0.00  0.00    +0.006 A 
ATOM     38  F   UNL     1      -3.533   1.952  -3.982  0.00  0.00    -0.205 F 
ENDBRANCH  31  32
ENDBRANCH  30  31
ENDBRANCH  25  30
ENDBRANCH   1  26
TORSDOF 5
