REMARK  Name = ZINC63374228
REMARK  4 active torsions:
REMARK  status: ('A' for Active; 'I' for Inactive)
REMARK    1  A    between atoms: C_1  and  O_2
REMARK    2  A    between atoms: O_2  and  C_3
REMARK    3  A    between atoms: C_10  and  C_18
REMARK    4  A    between atoms: N_22  and  C_25
REMARK                            x       y       z     vdW  Elec       q    Type
REMARK                         _______ _______ _______ _____ _____    ______ ____
ROOT
ATOM      1  C   UNL     1      -0.843  -0.950   0.101  0.00  0.00    +0.121 A 
ATOM      2  C   UNL     1      -1.954  -0.089   0.052  0.00  0.00    +0.047 A 
ATOM      3  C   UNL     1      -3.224  -0.545   0.013  0.00  0.00    +0.029 A 
ATOM      4  C   UNL     1      -3.482  -1.988   0.021  0.00  0.00    +0.043 A 
ATOM      5  N   UNL     1      -4.599  -2.678   0.013  0.00  0.00    -0.376 N 
ATOM      6  C   UNL     1      -4.264  -4.097  -0.063  0.00  0.00    +0.128 C 
ATOM      7  C   UNL     1      -4.875  -4.908   1.083  0.00  0.00    +0.121 C 
ATOM      8  N   UNL     1      -4.253  -6.242   1.088  0.00  0.00    -0.307 NA
ATOM      9  C   UNL     1      -2.830  -6.215   1.437  0.00  0.00    +0.086 C 
ATOM     10  C   UNL     1      -2.034  -5.468   0.352  0.00  0.00    +0.048 C 
ATOM     11  C   UNL     1      -2.753  -4.162   0.097  0.00  0.00    -0.035 C 
ATOM     12  C   UNL     1      -2.311  -2.899   0.083  0.00  0.00    +0.003 A 
ATOM     13  C   UNL     1      -0.972  -2.297   0.112  0.00  0.00    +0.055 A 
ATOM     14  H   UNL     1      -4.761  -6.875   1.687  0.00  0.00    +0.123 HD
ATOM     15  H   UNL     1      -5.494  -2.308   0.051  0.00  0.00    +0.160 HD
ENDROOT
BRANCH   7  16
ATOM     16  C   UNL     1      -4.607  -4.217   2.394  0.00  0.00    +0.100 A 
ATOM     17  C   UNL     1      -3.332  -3.900   2.761  0.00  0.00    +0.263 A 
ATOM     18  N   UNL     1      -3.111  -3.271   3.959  0.00  0.00    -0.274 N 
ATOM     19  C   UNL     1      -4.141  -2.967   4.770  0.00  0.00    +0.332 A 
ATOM     20  N   UNL     1      -5.406  -3.272   4.427  0.00  0.00    -0.257 N 
ATOM     21  C   UNL     1      -5.668  -3.884   3.255  0.00  0.00    +0.265 A 
ATOM     22  O   UNL     1      -6.816  -4.153   2.946  0.00  0.00    -0.267 OA
ATOM     23  O   UNL     1      -3.926  -2.410   5.829  0.00  0.00    -0.246 OA
ATOM     24  O   UNL     1      -2.296  -4.204   1.950  0.00  0.00    -0.267 OA
ATOM     25  H   UNL     1      -2.206  -3.043   4.224  0.00  0.00    +0.173 HD
BRANCH  20  26
ATOM     26  C   UNL     1      -6.507  -2.930   5.331  0.00  0.00    +0.095 C 
ATOM     27  C   UNL     1      -6.535  -1.416   5.551  0.00  0.00    +0.025 C 
ATOM     28  C   UNL     1      -7.685  -1.059   6.495  0.00  0.00    +0.002 C 
ATOM     29  C   UNL     1      -7.482  -1.766   7.836  0.00  0.00    +0.000 C 
ATOM     30  C   UNL     1      -7.454  -3.280   7.616  0.00  0.00    +0.002 C 
ATOM     31  C   UNL     1      -6.304  -3.637   6.672  0.00  0.00    +0.025 C 
ENDBRANCH  20  26
ENDBRANCH   7  16
BRANCH   1  33
ATOM     32  C   UNL     1       0.494   1.016   0.120  0.00  0.00    +0.277 C 
ATOM     33  O   UNL     1       0.404  -0.410   0.134  0.00  0.00    -0.495 OA
ENDBRANCH   1  33
TORSDOF 3
