REMARK  Name = ZINC39606075
REMARK  8 active torsions:
REMARK  status: ('A' for Active; 'I' for Inactive)
REMARK    1  A    between atoms: C_1  and  C_2
REMARK    2  A    between atoms: C_2  and  C_3
REMARK    3  A    between atoms: C_3  and  C_5
REMARK    4  A    between atoms: C_3  and  C_6
REMARK    5  A    between atoms: C_6  and  N_7
REMARK    6  A    between atoms: C_8  and  C_10
REMARK    7  A    between atoms: C_21  and  C_23
REMARK    8  A    between atoms: C_23  and  C_29
REMARK                            x       y       z     vdW  Elec       q    Type
REMARK                         _______ _______ _______ _____ _____    ______ ____
ROOT
ATOM      1  C   UNL     1      -5.029  -4.282  -0.510  0.00  0.00    +0.100 C 
ATOM      2  C   UNL     1      -5.430  -3.580  -1.828  0.00  0.00    +0.121 C 
ATOM      3  N   UNL     1      -5.222  -4.607  -2.876  0.00  0.00    -0.300 N 
ATOM      4  C   UNL     1      -5.688  -5.869  -2.254  0.00  0.00    +0.115 C 
ATOM      5  C   UNL     1      -5.203  -5.783  -0.793  0.00  0.00    -0.004 C 
ATOM      6  C   UNL     1      -3.870  -6.508  -0.637  0.00  0.00    -0.010 C 
ATOM      7  C   UNL     1      -4.080  -8.008  -0.868  0.00  0.00    -0.082 C 
ATOM      8  N   UNL     1      -5.056  -8.521   0.101  0.00  0.00    +0.379 N 
ATOM      9  C   UNL     1      -6.361  -7.885  -0.116  0.00  0.00    -0.082 C 
ATOM     10  C   UNL     1      -6.247  -6.380   0.146  0.00  0.00    -0.010 C 
ATOM     11  C   UNL     1      -4.722  -4.432  -4.115  0.00  0.00    +0.222 C 
ATOM     12  O   UNL     1      -4.308  -3.344  -4.455  0.00  0.00    -0.275 OA
ATOM     13  H   UNL     1      -5.147  -9.520  -0.013  0.00  0.00    -0.086 HD
ATOM     14  H   UNL     1      -4.737  -8.320   1.037  0.00  0.00    -0.086 HD
ENDROOT
BRANCH  11  15
ATOM     15  C   UNL     1      -4.678  -5.589  -5.080  0.00  0.00    +0.044 C 
ATOM     16  C   UNL     1      -3.690  -6.641  -4.570  0.00  0.00    +0.016 C 
ATOM     17  C   UNL     1      -2.297  -6.019  -4.455  0.00  0.00    +0.001 C 
ATOM     18  C   UNL     1      -1.846  -5.520  -5.830  0.00  0.00    +0.000 C 
ATOM     19  C   UNL     1      -2.834  -4.468  -6.340  0.00  0.00    +0.001 C 
ATOM     20  C   UNL     1      -4.227  -5.090  -6.454  0.00  0.00    +0.016 C 
ATOM     21  C   UNL     1      -6.071  -6.211  -5.195  0.00  0.00    +0.021 C 
ENDBRANCH  11  15
BRANCH   1  23
ATOM     22  N   UNL     1      -3.199  -3.948   1.120  0.00  0.00    -0.315 N 
ATOM     23  C   UNL     1      -3.594  -3.975  -0.168  0.00  0.00    +0.218 C 
ATOM     24  O   UNL     1      -2.794  -3.753  -1.052  0.00  0.00    -0.275 OA
ATOM     25  H   UNL     1      -3.838  -4.126   1.827  0.00  0.00    +0.149 HD
BRANCH  22  26
ATOM     26  C   UNL     1      -1.803  -3.651   1.453  0.00  0.00    +0.107 C 
BRANCH  26  27
ATOM     27  C   UNL     1      -1.623  -3.683   2.971  0.00  0.00    +0.003 C 
ATOM     28  C   UNL     1      -1.867  -5.104   3.484  0.00  0.00    +0.009 C 
BRANCH  27  30
ATOM     29  C   UNL     1      -0.055  -3.163   4.846  0.00  0.00    +0.004 C 
ATOM     30  C   UNL     1      -0.199  -3.251   3.325  0.00  0.00    +0.001 C 
ENDBRANCH  27  30
ENDBRANCH  26  27
ENDBRANCH  22  26
ENDBRANCH   1  23
TORSDOF 5
