REMARK  Name = ZINC08928001
REMARK  8 active torsions:
REMARK  status: ('A' for Active; 'I' for Inactive)
REMARK    1  A    between atoms: C_1  and  C_2
REMARK    2  A    between atoms: C_2  and  N_49
REMARK    3  A    between atoms: C_10  and  O_26
REMARK    4  A    between atoms: C_12  and  C_15
REMARK    5  A    between atoms: C_17  and  O_23
REMARK    6  A    between atoms: C_18  and  O_22
REMARK    7  A    between atoms: O_23  and  C_24
REMARK    8  A    between atoms: C_24  and  C_25
REMARK                            x       y       z     vdW  Elec       q    Type
REMARK                         _______ _______ _______ _____ _____    ______ ____
ROOT
ATOM      1  C   UNL     1       5.817   3.046  -1.158  0.00  0.00    -0.074 C 
ATOM      2  C   UNL     1       4.928   1.813  -0.971  0.00  0.00    +0.018 C 
ATOM      3  C   UNL     1       3.569   2.280  -0.458  0.00  0.00    -0.027 A 
ATOM      4  C   UNL     1       3.439   3.516   0.081  0.00  0.00    -0.021 A 
ATOM      5  S   UNL     1       1.727   3.641   0.522  0.00  0.00    -0.080 S 
ATOM      6  C   UNL     1       1.205   2.096   0.002  0.00  0.00    +0.080 A 
ATOM      7  C   UNL     1       2.360   1.482  -0.502  0.00  0.00    +0.067 A 
ATOM      8  C   UNL     1       2.216   0.103  -1.037  0.00  0.00    +0.220 C 
ATOM      9  N   UNL     1       1.093  -0.522  -0.814  0.00  0.00    -0.223 NA
ATOM     10  C   UNL     1       0.002  -0.004   0.002  0.00  0.00    +0.224 C 
ATOM     11  N   UNL     1      -0.018   1.470   0.010  0.00  0.00    -0.313 N 
ATOM     12  C   UNL     1       4.524   4.532   0.251  0.00  0.00    -0.035 C 
ATOM     13  H   UNL     1      -0.849   1.971   0.017  0.00  0.00    +0.149 HD
ATOM     14  N   UNL     1       5.825   3.838   0.088  0.00  0.00    +0.383 N 
ATOM     15  H   UNL     1       5.970   3.207   0.885  0.00  0.00    -0.081 HD
ENDROOT
BRANCH  10  16
ATOM     16  C   UNL     1       0.166  -0.501   1.415  0.00  0.00    -0.001 A 
ATOM     17  C   UNL     1       0.807  -1.703   1.653  0.00  0.00    +0.056 A 
ATOM     18  C   UNL     1       0.963  -2.159   2.952  0.00  0.00    +0.163 A 
ATOM     19  C   UNL     1       0.463  -1.412   4.014  0.00  0.00    +0.173 A 
ATOM     20  C   UNL     1      -0.184  -0.211   3.768  0.00  0.00    +0.063 A 
ATOM     21  C   UNL     1      -0.331   0.242   2.469  0.00  0.00    +0.026 A 
ATOM     22 BR   UNL     1      -0.864   0.808   5.208  0.00  0.00    -0.046 Br
BRANCH  19  23
ATOM     23  O   UNL     1       0.609  -1.859   5.291  0.00  0.00    -0.503 OA
ATOM     24  H   UNL     1      -0.119  -2.416   5.598  0.00  0.00    +0.292 HD
ENDBRANCH  19  23
BRANCH  18  25
ATOM     25  O   UNL     1       1.599  -3.338   3.188  0.00  0.00    -0.489 OA
BRANCH  25  26
ATOM     26  C   UNL     1       2.086  -4.052   2.050  0.00  0.00    +0.226 C 
ATOM     27  C   UNL     1       2.766  -5.343   2.510  0.00  0.00    +0.048 C 
ENDBRANCH  25  26
ENDBRANCH  18  25
ENDBRANCH  10  16
BRANCH  14  29
ATOM     28  C   UNL     1       6.800   5.719  -1.184  0.00  0.00    -0.017 C 
ATOM     29  C   UNL     1       6.924   4.827   0.053  0.00  0.00    -0.082 C 
ENDBRANCH  14  29
BRANCH   8  30
ATOM     30  O   UNL     1       3.217  -0.484  -1.732  0.00  0.00    -0.492 OA
ATOM     31  H   UNL     1       3.014  -1.381  -2.032  0.00  0.00    +0.294 HD
ENDBRANCH   8  30
TORSDOF 6
