REMARK  Name = ZINC63786799
REMARK  8 active torsions:
REMARK  status: ('A' for Active; 'I' for Inactive)
REMARK    1  A    between atoms: C_1  and  C_2
REMARK    2  A    between atoms: C_4  and  C_31
REMARK    3  A    between atoms: C_5  and  N_9
REMARK    4  A    between atoms: C_6  and  C_8
REMARK    5  A    between atoms: C_10  and  C_12
REMARK    6  A    between atoms: C_12  and  N_13
REMARK    7  A    between atoms: C_16  and  C_21
REMARK    8  A    between atoms: C_21  and  C_22
REMARK                            x       y       z     vdW  Elec       q    Type
REMARK                         _______ _______ _______ _____ _____    ______ ____
ROOT
ATOM      1  N   UNL     1      -0.439  -6.994   2.064  0.00  0.00    -0.216 N 
ATOM      2  C   UNL     1       0.698  -7.480   2.602  0.00  0.00    +0.244 C 
ATOM      3  O   UNL     1       1.798  -7.498   2.094  0.00  0.00    -0.273 OA
ATOM      4  C   UNL     1       0.313  -7.997   3.974  0.00  0.00    +0.165 C 
ATOM      5  N   UNL     1      -1.130  -7.716   4.058  0.00  0.00    -0.287 N 
ATOM      6  C   UNL     1      -1.476  -7.127   2.899  0.00  0.00    +0.310 C 
ATOM      7  O   UNL     1      -2.604  -6.758   2.639  0.00  0.00    -0.252 OA
ATOM      8  H   UNL     1      -1.717  -7.915   4.804  0.00  0.00    +0.151 HD
ENDROOT
BRANCH   1   9
ATOM      9  C   UNL     1      -0.526  -6.390   0.733  0.00  0.00    +0.214 C 
BRANCH   9  11
ATOM     10  N   UNL     1      -0.299  -4.141  -0.272  0.00  0.00    -0.284 N 
ATOM     11  C   UNL     1      -0.270  -4.908   0.836  0.00  0.00    +0.235 C 
ATOM     12  O   UNL     1      -0.036  -4.407   1.915  0.00  0.00    -0.274 OA
ATOM     13  H   UNL     1      -0.420  -4.551  -1.143  0.00  0.00    +0.155 HD
BRANCH  10  18
ATOM     14  C   UNL     1       0.286   1.486   0.158  0.00  0.00    +0.044 C 
ATOM     15  C   UNL     1       0.130  -0.009   0.043  0.00  0.00    -0.050 A 
ATOM     16  C   UNL     1       1.121  -0.844   0.526  0.00  0.00    +0.008 A 
ATOM     17  C   UNL     1       0.981  -2.215   0.423  0.00  0.00    -0.029 A 
ATOM     18  C   UNL     1      -0.155  -2.753  -0.166  0.00  0.00    +0.039 A 
ATOM     19  C   UNL     1      -1.148  -1.911  -0.649  0.00  0.00    -0.029 A 
ATOM     20  C   UNL     1      -1.005  -0.542  -0.539  0.00  0.00    +0.008 A 
ATOM     21  C   UNL     1      -2.383  -2.491  -1.289  0.00  0.00    +0.045 C 
ATOM     22  C   UNL     1       2.062  -3.124   0.949  0.00  0.00    +0.045 C 
ENDBRANCH  10  18
ENDBRANCH   9  11
ENDBRANCH   1   9
BRANCH   4  23
ATOM     23  C   UNL     1       0.580  -9.500   4.077  0.00  0.00    +0.065 C 
BRANCH  23  24
ATOM     24  C   UNL     1       0.306  -9.964   5.484  0.00  0.00    -0.039 C 
ATOM     25  C   UNL     1      -0.841 -10.507   5.953  0.00  0.00    -0.001 A 
ATOM     26  C   UNL     1      -2.128 -10.815   5.317  0.00  0.00    +0.010 A 
ATOM     27  C   UNL     1      -3.112 -11.368   6.062  0.00  0.00    +0.001 A 
ATOM     28  C   UNL     1      -2.934 -11.654   7.423  0.00  0.00    +0.002 A 
ATOM     29  C   UNL     1      -1.781 -11.400   8.077  0.00  0.00    +0.026 A 
ATOM     30  C   UNL     1      -0.678 -10.819   7.391  0.00  0.00    +0.043 A 
ATOM     31  N   UNL     1       0.522 -10.482   7.795  0.00  0.00    -0.380 N 
ATOM     32  C   UNL     1       1.260  -9.923   6.657  0.00  0.00    +0.144 C 
ATOM     33  H   UNL     1       0.867 -10.588   8.696  0.00  0.00    +0.160 HD
ENDBRANCH  23  24
ENDBRANCH   4  23
TORSDOF 5
