REMARK  Name = ZINC05633356
REMARK  6 active torsions:
REMARK  status: ('A' for Active; 'I' for Inactive)
REMARK    1  A    between atoms: C_7  and  C_11
REMARK    2  A    between atoms: C_11  and  C_12
REMARK    3  A    between atoms: C_12  and  C_13
REMARK    4  A    between atoms: N_15  and  C_16
REMARK    5  A    between atoms: C_20  and  S_22
REMARK    6  A    between atoms: S_22  and  N_25
REMARK                            x       y       z     vdW  Elec       q    Type
REMARK                         _______ _______ _______ _____ _____    ______ ____
ROOT
ATOM      1  C   UNL     1      -3.354  -1.446  -1.589  0.00  0.00    +0.218 C 
ATOM      2  O   UNL     1      -4.186  -1.367  -0.709  0.00  0.00    -0.275 OA
ATOM      3  N   UNL     1      -3.502  -2.352  -2.576  0.00  0.00    -0.285 N 
ATOM      4  H   UNL     1      -2.879  -2.365  -3.320  0.00  0.00    +0.155 HD
ENDROOT
BRANCH   3   5
ATOM      5  C   UNL     1      -4.553  -3.274  -2.528  0.00  0.00    +0.035 A 
ATOM      6  C   UNL     1      -4.997  -3.760  -1.305  0.00  0.00    +0.023 A 
ATOM      7  C   UNL     1      -6.038  -4.667  -1.261  0.00  0.00    +0.004 A 
ATOM      8  C   UNL     1      -6.631  -5.098  -2.433  0.00  0.00    +0.028 A 
ATOM      9  C   UNL     1      -6.188  -4.621  -3.652  0.00  0.00    +0.107 A 
ATOM     10  C   UNL     1      -5.150  -3.710  -3.703  0.00  0.00    +0.051 A 
BRANCH   9  11
ATOM     11  S   UNL     1      -6.946  -5.174  -5.143  0.00  0.00    +0.061 S 
ATOM     12  O   UNL     1      -8.254  -5.610  -4.796  0.00  0.00    -0.153 OA
ATOM     13  O   UNL     1      -6.713  -4.166  -6.117  0.00  0.00    -0.153 OA
BRANCH  11  14
ATOM     14  N   UNL     1      -6.118  -6.518  -5.645  0.00  0.00    -0.172 NA
ATOM     15  C   UNL     1      -4.962  -6.401  -6.548  0.00  0.00    +0.137 C 
ATOM     16  C   UNL     1      -3.795  -7.194  -5.937  0.00  0.00    +0.177 C 
ATOM     17  O   UNL     1      -4.235  -8.521  -5.638  0.00  0.00    -0.377 OA
ATOM     18  C   UNL     1      -5.280  -8.585  -4.664  0.00  0.00    +0.177 C 
ATOM     19  C   UNL     1      -6.519  -7.863  -5.205  0.00  0.00    +0.137 C 
ENDBRANCH  11  14
ENDBRANCH   9  11
ENDBRANCH   3   5
BRANCH   1  20
ATOM     20  C   UNL     1      -2.156  -0.532  -1.578  0.00  0.00    +0.101 C 
BRANCH  20  21
ATOM     21  C   UNL     1      -2.231   0.392  -0.360  0.00  0.00    +0.046 C 
BRANCH  21  28
ATOM     22  C   UNL     1      -1.312   4.498  -2.428  0.00  0.00    +0.001 A 
ATOM     23  C   UNL     1      -0.048   4.985  -2.124  0.00  0.00    +0.002 A 
ATOM     24  C   UNL     1       0.796   4.281  -1.294  0.00  0.00    +0.026 A 
ATOM     25  C   UNL     1       0.380   3.068  -0.753  0.00  0.00    +0.047 A 
ATOM     26  C   UNL     1      -0.902   2.579  -1.063  0.00  0.00    +0.003 A 
ATOM     27  C   UNL     1      -1.743   3.312  -1.903  0.00  0.00    +0.010 A 
ATOM     28  C   UNL     1      -1.033   1.306  -0.350  0.00  0.00    -0.022 A 
ATOM     29  C   UNL     1       0.116   1.110   0.316  0.00  0.00    +0.087 A 
ATOM     30  N   UNL     1       0.972   2.152   0.087  0.00  0.00    -0.360 N 
ATOM     31  H   UNL     1       1.863   2.234   0.461  0.00  0.00    +0.165 HD
ENDBRANCH  21  28
ENDBRANCH  20  21
ENDBRANCH   1  20
TORSDOF 6
