REMARK  Name = ZINC64024150
REMARK  6 active torsions:
REMARK  status: ('A' for Active; 'I' for Inactive)
REMARK    1  A    between atoms: C_10  and  C_11
REMARK    2  A    between atoms: C_11  and  C_12
REMARK    3  A    between atoms: C_12  and  C_18
REMARK    4  A    between atoms: C_18  and  C_19
REMARK    5  A    between atoms: C_19  and  C_20
REMARK    6  A    between atoms: C_26  and  C_28
REMARK                            x       y       z     vdW  Elec       q    Type
REMARK                         _______ _______ _______ _____ _____    ______ ____
ROOT
ATOM      1  C   UNL     1       6.675   1.982   3.295  0.00  0.00    +0.098 C 
ENDROOT
BRANCH   1   2
ATOM      2  C   UNL     1       7.967   2.736   3.115  0.00  0.00    +0.216 C 
ATOM      3  O   UNL     1       8.373   2.985   2.000  0.00  0.00    -0.276 OA
ATOM      4  N   UNL     1       8.672   3.133   4.193  0.00  0.00    -0.295 N 
ATOM      5  C   UNL     1       8.251   2.983   5.598  0.00  0.00    +0.108 C 
ATOM      6  C   UNL     1       9.570   2.990   6.410  0.00  0.00    +0.021 C 
ATOM      7  C   UNL     1      10.414   4.030   5.626  0.00  0.00    +0.028 C 
ATOM      8  C   UNL     1       9.991   3.782   4.163  0.00  0.00    +0.119 C 
BRANCH   8   9
ATOM      9  C   UNL     1       9.899   5.115   3.418  0.00  0.00    +0.195 C 
ATOM     10  N   UNL     1      11.203   5.790   3.430  0.00  0.00    -0.362 N 
ATOM     11  C   UNL     1      11.048   6.928   4.041  0.00  0.00    +0.060 A 
ATOM     12  C   UNL     1      11.974   8.025   4.359  0.00  0.00    +0.030 A 
ATOM     13  C   UNL     1      11.521   9.108   5.018  0.00  0.00    +0.040 A 
ATOM     14  C   UNL     1      10.178   9.243   5.424  0.00  0.00    +0.125 A 
ATOM     15  C   UNL     1       9.246   8.294   5.181  0.00  0.00    +0.065 A 
ATOM     16  C   UNL     1       9.629   7.070   4.469  0.00  0.00    +0.063 A 
ATOM     17  N   UNL     1       8.960   6.012   4.104  0.00  0.00    -0.362 N 
ATOM     18  F   UNL     1       9.807  10.364   6.081  0.00  0.00    -0.205 F 
ATOM     19  H   UNL     1      12.028   5.450   3.051  0.00  0.00    +0.162 HD
ATOM     20  H   UNL     1       8.017   5.846   4.258  0.00  0.00    +0.162 HD
ENDBRANCH   8   9
ENDBRANCH   1   2
BRANCH   1  21
ATOM     21  C   UNL     1       6.081   1.653   1.924  0.00  0.00    +0.035 C 
BRANCH  21  22
ATOM     22  C   UNL     1       4.769   0.888   2.108  0.00  0.00    +0.039 C 
ATOM     23  C   UNL     1       5.010  -0.403   2.921  0.00  0.00    +0.035 C 
ATOM     24  C   UNL     1       3.708  -0.501   3.750  0.00  0.00    +0.098 C 
ATOM     25  C   UNL     1       3.211   0.926   3.830  0.00  0.00    +0.214 C 
ATOM     26  O   UNL     1       2.380   1.329   4.616  0.00  0.00    -0.276 OA
ATOM     27  N   UNL     1       3.825   1.682   2.903  0.00  0.00    -0.309 N 
ATOM     28  H   UNL     1       3.665   2.630   2.777  0.00  0.00    +0.149 HD
BRANCH  22  29
ATOM     29  C   UNL     1       4.159   0.550   0.746  0.00  0.00    +0.061 C 
BRANCH  29  39
ATOM     30  C   UNL     1      -0.653   2.136   1.469  0.00  0.00    +0.001 A 
ATOM     31  C   UNL     1       0.572   2.774   1.286  0.00  0.00    +0.001 A 
ATOM     32  C   UNL     1       1.716   2.057   1.114  0.00  0.00    +0.009 A 
ATOM     33  C   UNL     1       1.665   0.653   1.120  0.00  0.00    -0.015 A 
ATOM     34  C   UNL     1       0.418   0.004   1.306  0.00  0.00    -0.018 A 
ATOM     35  C   UNL     1      -0.742   0.778   1.480  0.00  0.00    +0.008 A 
ATOM     36  C   UNL     1       0.366  -1.400   1.312  0.00  0.00    +0.008 A 
ATOM     37  C   UNL     1       1.510  -2.117   1.140  0.00  0.00    +0.001 A 
ATOM     38  C   UNL     1       2.736  -1.479   0.957  0.00  0.00    +0.004 A 
ATOM     39  C   UNL     1       2.824  -0.121   0.945  0.00  0.00    -0.038 A 
ENDBRANCH  29  39
ENDBRANCH  22  29
ENDBRANCH  21  22
ENDBRANCH   1  21
TORSDOF 6
