REMARK  Name = ZINC39678337
REMARK  7 active torsions:
REMARK  status: ('A' for Active; 'I' for Inactive)
REMARK    1  A    between atoms: C_1  and  C_2
REMARK    2  A    between atoms: C_5  and  C_9
REMARK    3  A    between atoms: C_7  and  C_8
REMARK    4  A    between atoms: C_13  and  C_22
REMARK    5  A    between atoms: N_24  and  C_25
REMARK    6  A    between atoms: C_25  and  C_26
REMARK    7  A    between atoms: C_31  and  N_32
REMARK                            x       y       z     vdW  Elec       q    Type
REMARK                         _______ _______ _______ _____ _____    ______ ____
ROOT
ATOM      1  C   UNL     1       0.589  -3.359   0.206  0.00  0.00    +0.247 C 
ATOM      2  O   UNL     1       0.608  -3.868   1.310  0.00  0.00    -0.270 OA
ATOM      3  N   UNL     1       0.481  -4.134  -0.892  0.00  0.00    -0.296 N 
ATOM      4  C   UNL     1       0.566  -3.715  -2.311  0.00  0.00    +0.121 C 
ATOM      5  C   UNL     1       1.355  -4.848  -3.005  0.00  0.00    +0.100 C 
ATOM      6  C   UNL     1       1.142  -6.081  -2.110  0.00  0.00    -0.004 C 
ATOM      7  C   UNL     1       0.256  -5.598  -0.952  0.00  0.00    +0.115 C 
ATOM      8  C   UNL     1       2.479  -6.580  -1.570  0.00  0.00    -0.010 C 
ATOM      9  C   UNL     1       2.247  -7.839  -0.730  0.00  0.00    -0.082 C 
ATOM     10  N   UNL     1       1.614  -8.872  -1.558  0.00  0.00    +0.379 N 
ATOM     11  C   UNL     1       0.288  -8.420  -1.997  0.00  0.00    -0.082 C 
ATOM     12  C   UNL     1       0.437  -7.186  -2.890  0.00  0.00    -0.010 C 
ATOM     13  H   UNL     1       2.190  -9.053  -2.366  0.00  0.00    -0.086 HD
ATOM     14  H   UNL     1       1.518  -9.720  -1.020  0.00  0.00    -0.086 HD
ENDROOT
BRANCH   1  19
ATOM     15  C   UNL     1       0.961   2.358  -0.332  0.00  0.00    +0.044 C 
ATOM     16  C   UNL     1       0.863   0.861  -0.191  0.00  0.00    -0.047 A 
ATOM     17  C   UNL     1       0.452   0.093  -1.266  0.00  0.00    +0.004 A 
ATOM     18  C   UNL     1       0.361  -1.278  -1.144  0.00  0.00    +0.013 A 
ATOM     19  C   UNL     1       0.685  -1.891   0.068  0.00  0.00    +0.037 A 
ATOM     20  C   UNL     1       1.099  -1.110   1.148  0.00  0.00    +0.016 A 
ATOM     21  C   UNL     1       1.191   0.260   1.011  0.00  0.00    -0.047 A 
ATOM     22  C   UNL     1       1.643   1.103   2.175  0.00  0.00    +0.044 C 
ENDBRANCH   1  19
BRANCH   5  23
ATOM     23  C   UNL     1       2.819  -4.499  -3.080  0.00  0.00    +0.218 C 
ATOM     24  O   UNL     1       3.323  -3.809  -2.219  0.00  0.00    -0.275 OA
ATOM     25  N   UNL     1       3.568  -4.952  -4.105  0.00  0.00    -0.311 N 
ATOM     26  H   UNL     1       3.151  -5.440  -4.832  0.00  0.00    +0.149 HD
BRANCH  25  27
ATOM     27  C   UNL     1       5.013  -4.707  -4.120  0.00  0.00    +0.141 C 
BRANCH  27  28
ATOM     28  C   UNL     1       5.593  -5.210  -5.417  0.00  0.00    -0.009 A 
ATOM     29  C   UNL     1       6.258  -6.420  -5.454  0.00  0.00    +0.007 A 
ATOM     30  C   UNL     1       6.791  -6.881  -6.643  0.00  0.00    +0.000 A 
ATOM     31  C   UNL     1       6.661  -6.133  -7.800  0.00  0.00    +0.002 A 
ATOM     32  C   UNL     1       5.997  -4.923  -7.770  0.00  0.00    +0.023 A 
ATOM     33  C   UNL     1       5.456  -4.459  -6.577  0.00  0.00    +0.034 A 
BRANCH  33  34
ATOM     34  N   UNL     1       4.779  -3.237  -6.545  0.00  0.00    -0.330 N 
ATOM     35  C   UNL     1       5.497  -1.992  -6.242  0.00  0.00    +0.105 C 
ATOM     36  C   UNL     1       5.222  -0.980  -7.359  0.00  0.00    +0.019 C 
ATOM     37  C   UNL     1       3.711  -0.809  -7.527  0.00  0.00    +0.003 C 
ATOM     38  C   UNL     1       3.085  -2.149  -7.923  0.00  0.00    +0.019 C 
ATOM     39  C   UNL     1       3.337  -3.173  -6.818  0.00  0.00    +0.105 C 
ENDBRANCH  33  34
ENDBRANCH  27  28
ENDBRANCH  25  27
ENDBRANCH   5  23
TORSDOF 5
