REMARK  Name = ZINC46841152
REMARK  13 active torsions:
REMARK  status: ('A' for Active; 'I' for Inactive)
REMARK    1  A    between atoms: C_1  and  C_2
REMARK    2  A    between atoms: C_5  and  S_8
REMARK    3  A    between atoms: S_8  and  N_11
REMARK    4  A    between atoms: N_11  and  C_12
REMARK    5  A    between atoms: C_12  and  C_14
REMARK    6  A    between atoms: C_12  and  C_18
REMARK    7  A    between atoms: C_14  and  C_15
REMARK    8  A    between atoms: C_15  and  C_16
REMARK    9  A    between atoms: C_15  and  C_17
REMARK   10  A    between atoms: N_20  and  C_21
REMARK   11  A    between atoms: C_21  and  C_22
REMARK   12  A    between atoms: C_30  and  C_37
REMARK   13  A    between atoms: C_33  and  C_36
REMARK                            x       y       z     vdW  Elec       q    Type
REMARK                         _______ _______ _______ _____ _____    ______ ____
ROOT
ATOM      1  C   UNL     1       3.745  -5.670   1.069  0.00  0.00    +0.232 C 
ATOM      2  O   UNL     1       3.741  -6.671   0.385  0.00  0.00    -0.274 OA
ATOM      3  N   UNL     1       4.761  -5.443   1.925  0.00  0.00    -0.310 N 
ATOM      4  H   UNL     1       4.765  -4.642   2.473  0.00  0.00    +0.149 HD
ENDROOT
BRANCH   1   5
ATOM      5  C   UNL     1       2.615  -4.679   0.962  0.00  0.00    +0.162 C 
BRANCH   5   6
ATOM      6  N   UNL     1       1.644  -5.150  -0.029  0.00  0.00    -0.178 NA
ATOM      7  H   UNL     1       1.774  -4.949  -0.969  0.00  0.00    +0.149 HD
BRANCH   6   8
ATOM      8  S   UNL     1       0.325  -6.026   0.456  0.00  0.00    +0.059 S 
ATOM      9  O   UNL     1       0.811  -7.058   1.304  0.00  0.00    -0.153 OA
ATOM     10  O   UNL     1      -0.435  -6.297  -0.714  0.00  0.00    -0.153 OA
BRANCH   8  15
ATOM     11  C   UNL     1      -3.054  -2.409   3.905  0.00  0.00    +0.044 C 
ATOM     12  C   UNL     1      -2.210  -3.312   3.044  0.00  0.00    -0.050 A 
ATOM     13  C   UNL     1      -2.340  -3.274   1.668  0.00  0.00    +0.005 A 
ATOM     14  C   UNL     1      -1.565  -4.103   0.878  0.00  0.00    +0.029 A 
ATOM     15  C   UNL     1      -0.661  -4.969   1.463  0.00  0.00    +0.105 A 
ATOM     16  C   UNL     1      -0.531  -5.006   2.839  0.00  0.00    +0.029 A 
ATOM     17  C   UNL     1      -1.302  -4.175   3.629  0.00  0.00    +0.005 A 
ENDBRANCH   8  15
ENDBRANCH   6   8
ENDBRANCH   5   6
BRANCH   5  18
ATOM     18  C   UNL     1       3.167  -3.320   0.529  0.00  0.00    +0.032 C 
BRANCH  18  19
ATOM     19  C   UNL     1       2.038  -2.286   0.531  0.00  0.00    -0.015 C 
ATOM     20  C   UNL     1       1.557  -2.060   1.966  0.00  0.00    +0.007 C 
ATOM     21  C   UNL     1       2.554  -0.967  -0.047  0.00  0.00    +0.007 C 
ENDBRANCH  18  19
ENDBRANCH   5  18
ENDBRANCH   1   5
BRANCH   3  22
ATOM     22  C   UNL     1       5.860  -6.406   2.029  0.00  0.00    +0.141 C 
BRANCH  22  23
ATOM     23  C   UNL     1       6.859  -5.921   3.048  0.00  0.00    -0.014 A 
ATOM     24  C   UNL     1       7.914  -5.105   2.663  0.00  0.00    +0.010 A 
ATOM     25  C   UNL     1       8.808  -4.681   3.630  0.00  0.00    +0.042 A 
ATOM     26  C   UNL     1       8.621  -5.085   4.948  0.00  0.00    +0.099 A 
ATOM     27  N   UNL     1       7.601  -5.864   5.276  0.00  0.00    -0.349 N 
ATOM     28  C   UNL     1       6.730  -6.278   4.375  0.00  0.00    +0.089 A 
ATOM     29  N   UNL     1       9.512  -4.668   5.930  0.00  0.00    -0.312 N 
ATOM     30  C   UNL     1      10.573  -3.696   5.625  0.00  0.00    +0.137 C 
ATOM     31  C   UNL     1      11.906  -4.260   6.131  0.00  0.00    +0.133 C 
ATOM     32  O   UNL     1      11.766  -4.639   7.503  0.00  0.00    -0.371 OA
ATOM     33  C   UNL     1      10.809  -5.677   7.729  0.00  0.00    +0.133 C 
ATOM     34  C   UNL     1       9.417  -5.181   7.306  0.00  0.00    +0.137 C 
ATOM     35  C   UNL     1      10.792  -6.041   9.215  0.00  0.00    +0.039 C 
ATOM     36  C   UNL     1      12.995  -3.193   6.003  0.00  0.00    +0.039 C 
ATOM     37  H   UNL     1       7.490  -6.134   6.201  0.00  0.00    +0.167 HD
ENDBRANCH  22  23
ENDBRANCH   3  22
TORSDOF 8
