REMARK  Name = ZINC39795685
REMARK  8 active torsions:
REMARK  status: ('A' for Active; 'I' for Inactive)
REMARK    1  A    between atoms: C_1  and  C_2
REMARK    2  A    between atoms: C_3  and  O_18
REMARK    3  A    between atoms: C_9  and  O_17
REMARK    4  A    between atoms: C_10  and  C_13
REMARK    5  A    between atoms: C_13  and  N_14
REMARK    6  A    between atoms: N_14  and  C_15
REMARK    7  A    between atoms: N_14  and  C_16
REMARK    8  A    between atoms: O_18  and  C_19
REMARK                            x       y       z     vdW  Elec       q    Type
REMARK                         _______ _______ _______ _____ _____    ______ ____
ROOT
ATOM      1  C   UNL     1      -0.020   1.482  -0.114  0.00  0.00    +0.090 C 
ATOM      2  C   UNL     1      -0.005  -0.024  -0.060  0.00  0.00    +0.148 A 
ATOM      3  C   UNL     1      -1.173  -0.676   0.104  0.00  0.00    +0.213 A 
ATOM      4  C   UNL     1      -1.182  -2.099   0.156  0.00  0.00    +0.235 A 
ATOM      5  O   UNL     1      -2.220  -2.723   0.303  0.00  0.00    -0.283 OA
ATOM      6  C   UNL     1       0.114  -2.786   0.025  0.00  0.00    +0.068 A 
ATOM      7  C   UNL     1       0.207  -4.178   0.063  0.00  0.00    +0.019 A 
ATOM      8  C   UNL     1       1.427  -4.779  -0.063  0.00  0.00    +0.046 A 
ATOM      9  C   UNL     1       2.577  -4.011  -0.229  0.00  0.00    +0.122 A 
ATOM     10  C   UNL     1       2.502  -2.629  -0.269  0.00  0.00    +0.020 A 
ATOM     11  C   UNL     1       1.270  -2.003  -0.143  0.00  0.00    +0.144 A 
ATOM     12  O   UNL     1       1.168  -0.659  -0.184  0.00  0.00    -0.456 OA
ENDROOT
BRANCH   9  13
ATOM     13  O   UNL     1       3.783  -4.623  -0.352  0.00  0.00    -0.506 OA
ATOM     14  H   UNL     1       4.027  -4.832  -1.264  0.00  0.00    +0.292 HD
ENDBRANCH   9  13
BRANCH  10  15
ATOM     15  C   UNL     1       3.753  -1.809  -0.449  0.00  0.00    -0.036 C 
BRANCH  15  16
ATOM     16  N   UNL     1       3.995  -1.591  -1.881  0.00  0.00    +0.379 N 
ATOM     17  C   UNL     1       5.144  -0.693  -2.053  0.00  0.00    -0.096 C 
ATOM     18  C   UNL     1       4.277  -2.878  -2.531  0.00  0.00    -0.096 C 
ATOM     19  H   UNL     1       3.177  -1.175  -2.301  0.00  0.00    -0.082 HD
ENDBRANCH  15  16
ENDBRANCH  10  15
BRANCH   3  20
ATOM     20  O   UNL     1      -2.337   0.021   0.219  0.00  0.00    -0.449 OA
BRANCH  20  21
ATOM     21  C   UNL     1      -2.987  -0.016   1.411  0.00  0.00    +0.129 A 
ATOM     22  C   UNL     1      -2.405  -0.648   2.501  0.00  0.00    +0.047 A 
ATOM     23  C   UNL     1      -3.067  -0.684   3.712  0.00  0.00    +0.018 A 
ATOM     24  C   UNL     1      -4.311  -0.091   3.840  0.00  0.00    +0.014 A 
ATOM     25  C   UNL     1      -4.894   0.539   2.755  0.00  0.00    +0.018 A 
ATOM     26  C   UNL     1      -4.232   0.582   1.543  0.00  0.00    +0.047 A 
ATOM     27  I   UNL     1      -5.314  -0.149   5.678  0.00  0.00    -0.044 I 
ENDBRANCH  20  21
ENDBRANCH   3  20
TORSDOF 5
