REMARK  Name = ZINC08946523
REMARK  11 active torsions:
REMARK  status: ('A' for Active; 'I' for Inactive)
REMARK    1  A    between atoms: C_1  and  C_2
REMARK    2  A    between atoms: C_2  and  C_4
REMARK    3  A    between atoms: C_2  and  N_11
REMARK    4  A    between atoms: C_12  and  C_14
REMARK    5  A    between atoms: C_14  and  N_15
REMARK    6  A    between atoms: C_18  and  C_22
REMARK    7  A    between atoms: C_18  and  C_23
REMARK    8  A    between atoms: C_26  and  C_29
REMARK    9  A    between atoms: C_29  and  C_30
REMARK   10  A    between atoms: C_29  and  C_31
REMARK   11  A    between atoms: C_29  and  C_32
REMARK                            x       y       z     vdW  Elec       q    Type
REMARK                         _______ _______ _______ _____ _____    ______ ____
ROOT
ATOM      1  N   UNL     1       0.002  -0.004   0.002  0.00  0.00    -0.215 N 
ATOM      2  C   UNL     1       0.023  -0.767   1.113  0.00  0.00    +0.251 C 
ATOM      3  O   UNL     1       0.030  -0.385   2.263  0.00  0.00    -0.272 OA
ATOM      4  C   UNL     1       0.037  -2.202   0.624  0.00  0.00    +0.135 C 
ATOM      5  N   UNL     1       0.021  -2.068  -0.843  0.00  0.00    -0.281 N 
ATOM      6  C   UNL     1      -0.004  -0.750  -1.109  0.00  0.00    +0.310 C 
ATOM      7  O   UNL     1      -0.026  -0.287  -2.233  0.00  0.00    -0.252 OA
ATOM      8  C   UNL     1       1.308  -2.917   1.089  0.00  0.00    +0.047 C 
ATOM      9  H   UNL     1       0.023  -2.790  -1.491  0.00  0.00    +0.152 HD
ENDROOT
BRANCH   4  10
ATOM     10  C   UNL     1      -1.188  -2.937   1.103  0.00  0.00    -0.015 A 
ATOM     11  C   UNL     1      -1.781  -2.585   2.301  0.00  0.00    +0.006 A 
ATOM     12  C   UNL     1      -2.907  -3.257   2.739  0.00  0.00    +0.004 A 
ATOM     13  C   UNL     1      -3.436  -4.286   1.982  0.00  0.00    -0.042 A 
ATOM     14  C   UNL     1      -2.840  -4.641   0.786  0.00  0.00    +0.004 A 
ATOM     15  C   UNL     1      -1.716  -3.967   0.347  0.00  0.00    +0.006 A 
BRANCH  13  16
ATOM     16  C   UNL     1      -4.660  -5.022   2.461  0.00  0.00    -0.013 C 
ATOM     17  C   UNL     1      -4.328  -6.505   2.639  0.00  0.00    +0.015 C 
ATOM     18  C   UNL     1      -5.116  -4.437   3.800  0.00  0.00    +0.015 C 
ATOM     19  C   UNL     1      -5.782  -4.871   1.431  0.00  0.00    +0.015 C 
ENDBRANCH  13  16
ENDBRANCH   4  10
BRANCH   1  20
ATOM     20  C   UNL     1      -0.018   1.461   0.010  0.00  0.00    +0.213 C 
BRANCH  20  22
ATOM     21  N   UNL     1       1.624   3.311   0.004  0.00  0.00    -0.307 N 
ATOM     22  C   UNL     1       1.396   1.982  -0.001  0.00  0.00    +0.231 C 
ATOM     23  O   UNL     1       2.328   1.207  -0.014  0.00  0.00    -0.274 OA
ATOM     24  H   UNL     1       0.879   3.931   0.015  0.00  0.00    +0.149 HD
BRANCH  21  26
ATOM     25  C   UNL     1       3.534   3.869   1.426  0.00  0.00    +0.033 C 
ATOM     26  C   UNL     1       2.999   3.818  -0.006  0.00  0.00    +0.100 C 
BRANCH  26  27
ATOM     27  C   UNL     1       3.019   5.203  -0.599  0.00  0.00    -0.027 A 
ATOM     28  C   UNL     1       2.010   6.099  -0.296  0.00  0.00    +0.006 A 
ATOM     29  C   UNL     1       2.031   7.371  -0.837  0.00  0.00    +0.015 A 
ATOM     30  C   UNL     1       3.055   7.744  -1.688  0.00  0.00    +0.018 A 
ATOM     31  C   UNL     1       4.060   6.846  -1.996  0.00  0.00    +0.015 A 
ATOM     32  C   UNL     1       4.042   5.575  -1.451  0.00  0.00    +0.006 A 
ATOM     33 BR   UNL     1       3.080   9.482  -2.433  0.00  0.00    -0.050 Br
ENDBRANCH  26  27
ENDBRANCH  21  26
ENDBRANCH  20  22
ENDBRANCH   1  20
TORSDOF 6
