REMARK  Name = ZINC17303847
REMARK  9 active torsions:
REMARK  status: ('A' for Active; 'I' for Inactive)
REMARK    1  A    between atoms: C_1  and  C_2
REMARK    2  A    between atoms: C_5  and  S_21
REMARK    3  A    between atoms: C_7  and  C_8
REMARK    4  A    between atoms: C_8  and  N_10
REMARK    5  A    between atoms: S_21  and  N_24
REMARK    6  A    between atoms: N_24  and  C_25
REMARK    7  A    between atoms: C_25  and  C_26
REMARK    8  A    between atoms: C_25  and  C_27
REMARK    9  A    between atoms: C_25  and  C_28
REMARK                            x       y       z     vdW  Elec       q    Type
REMARK                         _______ _______ _______ _____ _____    ______ ____
ROOT
ATOM      1  C   UNL     1       1.123   1.717  -1.185  0.00  0.00    +0.044 C 
ATOM      2  C   UNL     1       1.342   0.300  -0.722  0.00  0.00    -0.038 A 
ATOM      3  C   UNL     1       0.593  -0.727  -1.260  0.00  0.00    +0.006 A 
ATOM      4  C   UNL     1       0.792  -2.028  -0.836  0.00  0.00    +0.029 A 
ATOM      5  C   UNL     1       1.744  -2.309   0.128  0.00  0.00    +0.106 A 
ATOM      6  C   UNL     1       2.500  -1.292   0.673  0.00  0.00    +0.042 A 
ATOM      7  C   UNL     1       2.307   0.022   0.246  0.00  0.00    +0.044 A 
ENDROOT
BRANCH   5   8
ATOM      8  S   UNL     1       1.991  -3.970   0.661  0.00  0.00    +0.059 S 
ATOM      9  O   UNL     1       2.309  -3.910   2.045  0.00  0.00    -0.153 OA
ATOM     10  O   UNL     1       0.894  -4.724   0.164  0.00  0.00    -0.153 OA
BRANCH   8  11
ATOM     11  N   UNL     1       3.342  -4.537  -0.111  0.00  0.00    -0.185 NA
ATOM     12  H   UNL     1       4.141  -4.744   0.399  0.00  0.00    +0.149 HD
BRANCH  11  13
ATOM     13  C   UNL     1       3.331  -4.725  -1.564  0.00  0.00    +0.032 C 
ATOM     14  C   UNL     1       2.926  -3.416  -2.244  0.00  0.00    +0.029 C 
ATOM     15  C   UNL     1       4.727  -5.135  -2.036  0.00  0.00    +0.029 C 
ATOM     16  C   UNL     1       2.327  -5.821  -1.928  0.00  0.00    +0.029 C 
ENDBRANCH  11  13
ENDBRANCH   8  11
ENDBRANCH   5   8
BRANCH   7  17
ATOM     17  C   UNL     1       3.119   1.118   0.823  0.00  0.00    +0.270 C 
ATOM     18  O   UNL     1       3.016   2.250   0.382  0.00  0.00    -0.268 OA
BRANCH  17  19
ATOM     19  N   UNL     1       3.964   0.867   1.828  0.00  0.00    -0.143 NA
ATOM     20  C   UNL     1       4.775   1.822   2.269  0.00  0.00    +0.199 A 
ATOM     21  N   UNL     1       4.743   3.124   1.879  0.00  0.00    -0.326 N 
ATOM     22  H   UNL     1       4.128   3.510   1.236  0.00  0.00    +0.169 HD
ATOM     23  C   UNL     1       5.744   3.808   2.561  0.00  0.00    +0.065 A 
ATOM     24  C   UNL     1       6.160   5.132   2.555  0.00  0.00    +0.028 A 
ATOM     25  C   UNL     1       7.209   5.527   3.361  0.00  0.00    +0.002 A 
ATOM     26  C   UNL     1       7.849   4.609   4.175  0.00  0.00    +0.002 A 
ATOM     27  C   UNL     1       7.443   3.289   4.189  0.00  0.00    +0.028 A 
ATOM     28  C   UNL     1       6.390   2.881   3.382  0.00  0.00    +0.065 A 
ATOM     29  N   UNL     1       5.764   1.654   3.187  0.00  0.00    -0.326 N 
ATOM     30  H   UNL     1       5.996   0.821   3.627  0.00  0.00    +0.169 HD
ENDBRANCH  17  19
ENDBRANCH   7  17
TORSDOF 5
