REMARK  Name = ZINC21634180
REMARK  6 active torsions:
REMARK  status: ('A' for Active; 'I' for Inactive)
REMARK    1  A    between atoms: N_12  and  C_16
REMARK    2  A    between atoms: C_16  and  C_17
REMARK    3  A    between atoms: N_19  and  C_20
REMARK    4  A    between atoms: C_20  and  C_21
REMARK    5  A    between atoms: C_26  and  C_27
REMARK    6  A    between atoms: C_27  and  N_28
REMARK                            x       y       z     vdW  Elec       q    Type
REMARK                         _______ _______ _______ _____ _____    ______ ____
ROOT
ATOM      1  C   UNL     1      -3.597   2.766   3.036  0.00  0.00    +0.213 C 
ENDROOT
BRANCH   1  13
ATOM      2  C   UNL     1     -10.252   3.188   5.674  0.00  0.00    +0.000 A 
ATOM      3  C   UNL     1      -9.050   3.579   6.234  0.00  0.00    +0.000 A 
ATOM      4  C   UNL     1      -7.971   3.864   5.422  0.00  0.00    +0.006 A 
ATOM      5  C   UNL     1      -8.086   3.760   4.045  0.00  0.00    -0.012 A 
ATOM      6  C   UNL     1      -9.290   3.367   3.485  0.00  0.00    -0.042 A 
ATOM      7  C   UNL     1     -10.370   3.083   4.302  0.00  0.00    +0.004 A 
ATOM      8  C   UNL     1      -9.164   3.326   1.976  0.00  0.00    +0.038 C 
ATOM      9  C   UNL     1      -7.891   4.141   1.653  0.00  0.00    +0.045 C 
ATOM     10  C   UNL     1      -7.084   4.009   2.950  0.00  0.00    +0.138 C 
ATOM     11  C   UNL     1      -6.076   2.893   2.855  0.00  0.00    +0.251 C 
ATOM     12  O   UNL     1      -6.296   1.718   2.650  0.00  0.00    -0.272 OA
ATOM     13  N   UNL     1      -4.876   3.481   3.046  0.00  0.00    -0.215 N 
ATOM     14  C   UNL     1      -5.000   4.799   3.252  0.00  0.00    +0.310 C 
ATOM     15  O   UNL     1      -4.061   5.543   3.454  0.00  0.00    -0.252 OA
ATOM     16  N   UNL     1      -6.284   5.207   3.206  0.00  0.00    -0.281 N 
ATOM     17  H   UNL     1      -6.778   6.184   3.317  0.00  0.00    +0.152 HD
ENDBRANCH   1  13
BRANCH   1  18
ATOM     18  C   UNL     1      -3.045   2.744   1.634  0.00  0.00    +0.231 C 
ATOM     19  O   UNL     1      -3.659   3.273   0.732  0.00  0.00    -0.274 OA
ATOM     20  N   UNL     1      -1.869   2.135   1.383  0.00  0.00    -0.310 N 
ATOM     21  H   UNL     1      -1.312   1.655   2.201  0.00  0.00    +0.149 HD
BRANCH  20  22
ATOM     22  C   UNL     1      -1.332   2.114   0.020  0.00  0.00    +0.140 C 
BRANCH  22  23
ATOM     23  C   UNL     1      -0.017   1.378   0.010  0.00  0.00    -0.025 A 
ATOM     24  C   UNL     1       1.171   2.085   0.002  0.00  0.00    +0.005 A 
ATOM     25  C   UNL     1       2.377   1.411  -0.015  0.00  0.00    +0.000 A 
ATOM     26  C   UNL     1       2.396   0.028  -0.021  0.00  0.00    +0.000 A 
ATOM     27  C   UNL     1       1.209  -0.679  -0.013  0.00  0.00    +0.006 A 
ATOM     28  C   UNL     1       0.002  -0.004   0.002  0.00  0.00    -0.021 A 
BRANCH  28  29
ATOM     29  C   UNL     1      -1.293  -0.775   0.011  0.00  0.00    +0.178 C 
BRANCH  29  30
ATOM     30  N   UNL     1      -1.788  -0.914  -1.361  0.00  0.00    -0.267 N 
ATOM     31  C   UNL     1      -2.091  -2.074  -1.982  0.00  0.00    +0.108 A 
ATOM     32  C   UNL     1      -2.515  -1.773  -3.231  0.00  0.00    +0.041 A 
ATOM     33  C   UNL     1      -2.459  -0.384  -3.383  0.00  0.00    +0.134 A 
ATOM     34  N   UNL     1      -2.023   0.132  -2.262  0.00  0.00    -0.179 NA
ENDBRANCH  29  30
ENDBRANCH  28  29
ENDBRANCH  22  23
ENDBRANCH  20  22
ENDBRANCH   1  18
TORSDOF 6
