REMARK  Name = ZINC23682008
REMARK  9 active torsions:
REMARK  status: ('A' for Active; 'I' for Inactive)
REMARK    1  A    between atoms: C_1  and  C_2
REMARK    2  A    between atoms: C_2  and  C_3
REMARK    3  A    between atoms: C_3  and  N_4
REMARK    4  A    between atoms: N_4  and  C_5
REMARK    5  A    between atoms: C_6  and  N_21
REMARK    6  A    between atoms: N_7  and  C_14
REMARK    7  A    between atoms: C_14  and  C_15
REMARK    8  A    between atoms: C_22  and  C_24
REMARK    9  A    between atoms: C_28  and  C_34
REMARK                            x       y       z     vdW  Elec       q    Type
REMARK                         _______ _______ _______ _____ _____    ______ ____
ROOT
ATOM      1  C   UNL     1      -0.897  -2.820   1.148  0.00  0.00    +0.140 A 
ATOM      2  C   UNL     1      -1.655  -2.518   2.261  0.00  0.00    +0.128 A 
ATOM      3  N   UNL     1      -1.525  -3.289   3.392  0.00  0.00    -0.276 N 
ATOM      4  C   UNL     1      -0.669  -4.327   3.413  0.00  0.00    +0.331 A 
ATOM      5  O   UNL     1      -0.568  -4.997   4.423  0.00  0.00    -0.246 OA
ATOM      6  N   UNL     1       0.078  -4.637   2.339  0.00  0.00    -0.273 N 
ATOM      7  H   UNL     1       0.688  -5.390   2.380  0.00  0.00    +0.173 HD
ATOM      8  C   UNL     1      -0.015  -3.916   1.204  0.00  0.00    +0.277 A 
ATOM      9  O   UNL     1       0.663  -4.208   0.234  0.00  0.00    -0.266 OA
ENDROOT
BRANCH   1  10
ATOM     10  N   UNL     1      -1.007  -2.047  -0.027  0.00  0.00    -0.263 N 
ATOM     11  C   UNL     1      -1.526  -2.593  -1.147  0.00  0.00    +0.241 C 
ATOM     12  O   UNL     1      -1.985  -3.715  -1.119  0.00  0.00    -0.273 OA
BRANCH  11  13
ATOM     13  C   UNL     1      -1.534  -1.807  -2.433  0.00  0.00    +0.173 C 
ATOM     14  C   UNL     1      -2.673  -0.738  -2.396  0.00  0.00    +0.103 C 
ATOM     15  S   UNL     1      -2.805  -0.393  -4.206  0.00  0.00    -0.133 S 
ATOM     16  C   UNL     1      -1.975  -1.913  -4.821  0.00  0.00    +0.082 C 
ATOM     17  N   UNL     1      -1.815  -2.709  -3.572  0.00  0.00    -0.275 N 
ATOM     18  C   UNL     1      -2.014  -4.014  -3.850  0.00  0.00    +0.217 C 
ATOM     19  O   UNL     1      -1.771  -4.927  -3.090  0.00  0.00    -0.276 OA
ATOM     20  C   UNL     1      -2.581  -4.178  -5.242  0.00  0.00    +0.099 C 
ATOM     21  C   UNL     1      -2.952  -2.735  -5.679  0.00  0.00    +0.046 C 
ATOM     22  C   UNL     1      -0.654  -1.623  -5.536  0.00  0.00    +0.044 C 
ENDBRANCH  11  13
BRANCH  10  23
ATOM     23  C   UNL     1      -0.559  -0.652  -0.031  0.00  0.00    +0.114 C 
BRANCH  23  25
ATOM     24  C   UNL     1       1.416   0.855  -0.301  0.00  0.00    +0.005 C 
ATOM     25  C   UNL     1       0.947  -0.602  -0.296  0.00  0.00    +0.016 C 
ENDBRANCH  23  25
ENDBRANCH  10  23
ENDBRANCH   1  10
BRANCH   2  26
ATOM     26  N   UNL     1      -2.529  -1.457   2.239  0.00  0.00    -0.343 N 
ATOM     27  H   UNL     1      -2.576  -0.884   1.458  0.00  0.00    +0.144 HD
ATOM     28  H   UNL     1      -3.099  -1.283   3.005  0.00  0.00    +0.144 HD
ENDBRANCH   2  26
BRANCH   3  29
ATOM     29  C   UNL     1      -2.324  -2.980   4.580  0.00  0.00    +0.163 C 
BRANCH  29  30
ATOM     30  C   UNL     1      -3.628  -3.733   4.519  0.00  0.00    -0.028 A 
ATOM     31  C   UNL     1      -4.728  -3.162   3.908  0.00  0.00    +0.005 A 
ATOM     32  C   UNL     1      -5.924  -3.853   3.852  0.00  0.00    +0.000 A 
ATOM     33  C   UNL     1      -6.020  -5.115   4.407  0.00  0.00    +0.000 A 
ATOM     34  C   UNL     1      -4.919  -5.687   5.018  0.00  0.00    +0.000 A 
ATOM     35  C   UNL     1      -3.722  -4.998   5.070  0.00  0.00    +0.005 A 
ENDBRANCH  29  30
ENDBRANCH   3  29
TORSDOF 7
