REMARK  Name = ZINC63626022
REMARK  10 active torsions:
REMARK  status: ('A' for Active; 'I' for Inactive)
REMARK    1  A    between atoms: C_1  and  C_2
REMARK    2  A    between atoms: C_2  and  O_3
REMARK    3  A    between atoms: O_3  and  C_4
REMARK    4  A    between atoms: C_9  and  S_14
REMARK    5  A    between atoms: S_14  and  C_15
REMARK    6  A    between atoms: C_15  and  C_17
REMARK    7  A    between atoms: C_15  and  C_23
REMARK    8  A    between atoms: N_25  and  C_26
REMARK    9  A    between atoms: C_29  and  S_32
REMARK   10  A    between atoms: S_32  and  N_35
REMARK                            x       y       z     vdW  Elec       q    Type
REMARK                         _______ _______ _______ _____ _____    ______ ____
ROOT
ATOM      1  C   UNL     1      -0.582  -5.817   4.486  0.00  0.00    +0.166 C 
ENDROOT
BRANCH   1   2
ATOM      2  C   UNL     1      -0.299  -4.426   4.990  0.00  0.00    -0.026 A 
ATOM      3  C   UNL     1       0.280  -4.245   6.232  0.00  0.00    +0.005 A 
ATOM      4  C   UNL     1       0.539  -2.968   6.694  0.00  0.00    +0.000 A 
ATOM      5  C   UNL     1       0.220  -1.873   5.915  0.00  0.00    +0.000 A 
ATOM      6  C   UNL     1      -0.358  -2.053   4.672  0.00  0.00    +0.000 A 
ATOM      7  C   UNL     1      -0.614  -3.330   4.208  0.00  0.00    +0.005 A 
ENDBRANCH   1   2
BRANCH   1   8
ATOM      8  C   UNL     1      -1.532  -6.510   5.428  0.00  0.00    +0.235 C 
ATOM      9  O   UNL     1      -1.100  -7.228   6.306  0.00  0.00    -0.274 OA
ATOM     10  N   UNL     1      -2.861  -6.332   5.297  0.00  0.00    -0.284 N 
ATOM     11  H   UNL     1      -3.204  -5.706   4.640  0.00  0.00    +0.155 HD
BRANCH  10  12
ATOM     12  C   UNL     1      -3.747  -7.049   6.109  0.00  0.00    +0.034 A 
ATOM     13  C   UNL     1      -4.967  -7.475   5.601  0.00  0.00    +0.025 A 
ATOM     14  C   UNL     1      -5.839  -8.183   6.405  0.00  0.00    +0.030 A 
ATOM     15  C   UNL     1      -5.498  -8.467   7.714  0.00  0.00    +0.105 A 
ATOM     16  C   UNL     1      -4.284  -8.044   8.223  0.00  0.00    +0.030 A 
ATOM     17  C   UNL     1      -3.405  -7.341   7.423  0.00  0.00    +0.025 A 
BRANCH  15  18
ATOM     18  S   UNL     1      -6.614  -9.370   8.737  0.00  0.00    +0.056 S 
ATOM     19  O   UNL     1      -6.295  -9.035  10.080  0.00  0.00    -0.153 OA
ATOM     20  O   UNL     1      -7.911  -9.179   8.190  0.00  0.00    -0.153 OA
BRANCH  18  21
ATOM     21  N   UNL     1      -6.255 -10.977   8.553  0.00  0.00    -0.204 NA
ATOM     22  H   UNL     1      -6.408 -11.595   9.284  0.00  0.00    +0.144 HD
ATOM     23  H   UNL     1      -5.892 -11.299   7.713  0.00  0.00    +0.144 HD
ENDBRANCH  18  21
ENDBRANCH  15  18
ENDBRANCH  10  12
ENDBRANCH   1   8
BRANCH   1  24
ATOM     24  S   UNL     1       0.969  -6.754   4.394  0.00  0.00    -0.097 S 
BRANCH  24  30
ATOM     25  C   UNL     1       0.803  -1.793   1.339  0.00  0.00    +0.123 A 
ATOM     26  C   UNL     1       0.226  -2.656   0.318  0.00  0.00    +0.048 A 
ATOM     27  C   UNL     1       0.300  -3.998   0.396  0.00  0.00    +0.031 A 
ATOM     28  C   UNL     1       0.980  -4.627   1.538  0.00  0.00    +0.061 A 
ATOM     29  N   UNL     1       1.190  -5.872   1.855  0.00  0.00    -0.355 N 
ATOM     30  C   UNL     1       1.930  -5.888   3.122  0.00  0.00    +0.236 C 
ATOM     31  N   UNL     1       2.125  -4.484   3.506  0.00  0.00    -0.355 N 
ATOM     32  C   UNL     1       1.571  -3.746   2.582  0.00  0.00    +0.064 A 
ATOM     33  C   UNL     1       1.450  -2.296   2.419  0.00  0.00    +0.073 A 
ATOM     34  H   UNL     1       0.909  -6.649   1.346  0.00  0.00    +0.162 HD
ATOM     35  H   UNL     1       2.581  -4.163   4.299  0.00  0.00    +0.162 HD
BRANCH  25  36
ATOM     36  O   UNL     1       0.695  -0.448   1.204  0.00  0.00    -0.492 OA
BRANCH  36  38
ATOM     37  C   UNL     1      -0.016   1.564   0.069  0.00  0.00    +0.048 C 
ATOM     38  C   UNL     1       0.004   0.035   0.050  0.00  0.00    +0.225 C 
ENDBRANCH  36  38
ENDBRANCH  25  36
ENDBRANCH  24  30
ENDBRANCH   1  24
TORSDOF 9
