REMARK  Name = ZINC21579495
REMARK  8 active torsions:
REMARK  status: ('A' for Active; 'I' for Inactive)
REMARK    1  A    between atoms: C_1  and  C_2
REMARK    2  A    between atoms: C_2  and  O_3
REMARK    3  A    between atoms: O_3  and  C_4
REMARK    4  A    between atoms: C_4  and  C_6
REMARK    5  A    between atoms: C_7  and  C_19
REMARK    6  A    between atoms: C_12  and  C_14
REMARK    7  A    between atoms: C_19  and  N_20
REMARK    8  A    between atoms: C_28  and  C_30
REMARK                            x       y       z     vdW  Elec       q    Type
REMARK                         _______ _______ _______ _____ _____    ______ ____
ROOT
ATOM      1  C   UNL     1       3.449  -3.023   1.250  0.00  0.00    +0.082 C 
ATOM      2  C   UNL     1       2.944  -2.419   0.153  0.00  0.00    +0.038 C 
ATOM      3  N   UNL     1       3.765  -1.901  -0.808  0.00  0.00    -0.271 N 
ATOM      4  C   UNL     1       5.102  -1.951  -0.747  0.00  0.00    +0.304 C 
ATOM      5  O   UNL     1       5.750  -1.461  -1.652  0.00  0.00    -0.252 OA
ATOM      6  N   UNL     1       5.752  -2.526   0.283  0.00  0.00    -0.285 N 
ATOM      7  C   UNL     1       4.956  -3.115   1.373  0.00  0.00    +0.179 C 
ATOM      8  H   UNL     1       3.335  -1.409  -1.692  0.00  0.00    +0.156 HD
ATOM      9  H   UNL     1       6.851  -2.562   0.323  0.00  0.00    +0.151 HD
ENDROOT
BRANCH   7  10
ATOM     10  C   UNL     1       5.329  -4.571   1.485  0.00  0.00    +0.130 A 
ATOM     11  C   UNL     1       5.492  -5.256   2.632  0.00  0.00    +0.047 A 
ATOM     12  C   UNL     1       5.833  -6.580   2.274  0.00  0.00    +0.041 A 
ATOM     13  C   UNL     1       5.866  -6.624   0.930  0.00  0.00    +0.195 A 
ATOM     14  O   UNL     1       5.560  -5.404   0.458  0.00  0.00    -0.466 OA
ENDBRANCH   7  10
BRANCH   1  15
ATOM     15  C   UNL     1       2.599  -3.555   2.248  0.00  0.00    +0.339 C 
ATOM     16  O   UNL     1       1.398  -3.374   2.184  0.00  0.00    -0.245 OA
BRANCH  15  17
ATOM     17  O   UNL     1       3.122  -4.263   3.272  0.00  0.00    -0.462 OA
BRANCH  17  19
ATOM     18  C   UNL     1       2.976  -5.540   5.318  0.00  0.00    +0.048 C 
ATOM     19  C   UNL     1       2.205  -4.770   4.244  0.00  0.00    +0.229 C 
ENDBRANCH  17  19
ENDBRANCH  15  17
ENDBRANCH   1  15
BRANCH   2  20
ATOM     20  C   UNL     1       1.450  -2.310  -0.012  0.00  0.00    +0.136 C 
BRANCH  20  21
ATOM     21  N   UNL     1       0.959  -1.142   0.733  0.00  0.00    -0.287 NA
ATOM     22  C   UNL     1       1.696   0.072   0.354  0.00  0.00    +0.107 C 
ATOM     23  C   UNL     1       1.446   1.175   1.390  0.00  0.00    +0.137 C 
ATOM     24  N   UNL     1      -0.003   1.290   1.597  0.00  0.00    -0.348 N 
ATOM     25  C   UNL     1      -0.687   2.313   2.170  0.00  0.00    +0.086 A 
ATOM     26  C   UNL     1      -2.002   2.004   2.148  0.00  0.00    +0.019 A 
ATOM     27  C   UNL     1      -2.130   0.736   1.542  0.00  0.00    +0.024 A 
ATOM     28  C   UNL     1      -0.896   0.325   1.213  0.00  0.00    +0.036 A 
ATOM     29  C   UNL     1      -0.491  -0.965   0.542  0.00  0.00    +0.101 C 
ATOM     30  C   UNL     1      -1.243  -2.137   1.176  0.00  0.00    +0.031 C 
ENDBRANCH  20  21
ENDBRANCH   2  20
TORSDOF 6
