REMARK  Name = ZINC12986181
REMARK  5 active torsions:
REMARK  status: ('A' for Active; 'I' for Inactive)
REMARK    1  A    between atoms: C_4  and  C_7
REMARK    2  A    between atoms: C_7  and  C_9
REMARK    3  A    between atoms: C_7  and  N_14
REMARK    4  A    between atoms: N_17  and  C_18
REMARK    5  A    between atoms: C_22  and  N_24
REMARK                            x       y       z     vdW  Elec       q    Type
REMARK                         _______ _______ _______ _____ _____    ______ ____
ROOT
ATOM      1  N   UNL     1       1.062   7.274   0.233  0.00  0.00    -0.288 N 
ATOM      2  C   UNL     1       1.085   5.931   0.124  0.00  0.00    +0.305 C 
ATOM      3  O   UNL     1       2.148   5.341   0.111  0.00  0.00    -0.252 OA
ATOM      4  N   UNL     1      -0.069   5.242   0.030  0.00  0.00    -0.269 N 
ATOM      5  H   UNL     1       0.213   7.745   0.243  0.00  0.00    +0.151 HD
ATOM      6  H   UNL     1      -0.913   5.716  -0.037  0.00  0.00    +0.156 HD
ENDROOT
BRANCH   4   7
ATOM      7  C   UNL     1      -0.051   3.842   0.030  0.00  0.00    +0.037 A 
ATOM      8  C   UNL     1       0.907   3.159   0.767  0.00  0.00    +0.023 A 
ATOM      9  C   UNL     1       0.923   1.778   0.764  0.00  0.00    +0.004 A 
ATOM     10  C   UNL     1      -0.014   1.076   0.028  0.00  0.00    +0.033 A 
ATOM     11  C   UNL     1      -0.965   1.753  -0.712  0.00  0.00    +0.128 A 
ATOM     12  C   UNL     1      -0.990   3.135  -0.709  0.00  0.00    +0.056 A 
BRANCH  11  13
ATOM     13  N   UNL     1      -1.961   0.998  -1.504  0.00  0.00    +0.056 N 
ATOM     14  O   UNL     1      -1.943  -0.220  -1.504  0.00  0.00    -0.126 OA
ATOM     15  O   UNL     1      -2.800   1.594  -2.156  0.00  0.00    -0.126 OA
ENDBRANCH  11  13
ENDBRANCH   4   7
BRANCH   1  16
ATOM     16  C   UNL     1       2.316   8.023   0.335  0.00  0.00    +0.142 C 
BRANCH  16  20
ATOM     17  C   UNL     1       1.712  12.012  -1.069  0.00  0.00    +0.000 A 
ATOM     18  C   UNL     1       2.879  11.339  -1.379  0.00  0.00    +0.000 A 
ATOM     19  C   UNL     1       3.075  10.049  -0.925  0.00  0.00    +0.006 A 
ATOM     20  C   UNL     1       2.103   9.430  -0.160  0.00  0.00    -0.022 A 
ATOM     21  C   UNL     1       0.933  10.101   0.145  0.00  0.00    +0.006 A 
ATOM     22  C   UNL     1       0.740  11.393  -0.305  0.00  0.00    +0.000 A 
ENDBRANCH  16  20
BRANCH  16  23
ATOM     23  C   UNL     1       2.764   8.059   1.774  0.00  0.00    +0.014 A 
ATOM     24  C   UNL     1       4.014   7.933   2.282  0.00  0.00    +0.013 A 
ATOM     25  C   UNL     1       4.192   8.003   3.651  0.00  0.00    +0.008 A 
ATOM     26  C   UNL     1       3.109   8.185   4.445  0.00  0.00    +0.045 A 
ATOM     27  S   UNL     1       1.785   8.272   3.251  0.00  0.00    -0.099 S 
ENDBRANCH  16  23
ENDBRANCH   1  16
TORSDOF 5
