REMARK  Name = ZINC44924016
REMARK  7 active torsions:
REMARK  status: ('A' for Active; 'I' for Inactive)
REMARK    1  A    between atoms: C_7  and  C_11
REMARK    2  A    between atoms: C_11  and  C_12
REMARK    3  A    between atoms: C_12  and  N_13
REMARK    4  A    between atoms: C_14  and  C_16
REMARK    5  A    between atoms: C_17  and  C_18
REMARK    6  A    between atoms: N_20  and  S_27
REMARK    7  A    between atoms: S_27  and  C_30
REMARK                            x       y       z     vdW  Elec       q    Type
REMARK                         _______ _______ _______ _____ _____    ______ ____
ROOT
ATOM      1  C   UNL     1      -2.066  -6.303  -2.609  0.00  0.00    +0.068 C 
ATOM      2  C   UNL     1      -2.579  -6.763  -3.775  0.00  0.00    +0.015 C 
ENDROOT
BRANCH   2   3
ATOM      3  C   UNL     1      -3.489  -7.910  -3.771  0.00  0.00    +0.002 A 
ATOM      4  C   UNL     1      -3.917  -8.612  -2.680  0.00  0.00    +0.121 A 
ATOM      5  N   UNL     1      -4.752  -9.605  -3.073  0.00  0.00    -0.217 N 
ATOM      6  C   UNL     1      -4.905  -9.591  -4.445  0.00  0.00    +0.073 A 
ATOM      7  C   UNL     1      -4.131  -8.531  -4.945  0.00  0.00    +0.009 A 
ATOM      8  C   UNL     1      -4.100  -8.275  -6.313  0.00  0.00    +0.010 A 
ATOM      9  C   UNL     1      -4.834  -9.063  -7.172  0.00  0.00    +0.001 A 
ATOM     10  C   UNL     1      -5.602 -10.108  -6.679  0.00  0.00    +0.002 A 
ATOM     11  C   UNL     1      -5.636 -10.378  -5.328  0.00  0.00    +0.028 A 
BRANCH   5  12
ATOM     12  S   UNL     1      -5.486 -10.682  -2.052  0.00  0.00    +0.091 S 
ATOM     13  O   UNL     1      -5.263 -11.975  -2.597  0.00  0.00    -0.147 OA
ATOM     14  O   UNL     1      -5.085 -10.331  -0.735  0.00  0.00    -0.147 OA
BRANCH  12  15
ATOM     15  C   UNL     1      -7.221 -10.390  -2.145  0.00  0.00    +0.150 A 
ATOM     16  C   UNL     1      -8.137 -10.947  -2.974  0.00  0.00    +0.038 A 
ATOM     17  C   UNL     1      -9.461 -10.562  -2.867  0.00  0.00    +0.030 A 
ATOM     18  C   UNL     1      -9.802  -9.637  -1.935  0.00  0.00    +0.080 A 
ATOM     19  S   UNL     1      -8.229  -9.288  -1.167  0.00  0.00    -0.057 S 
ATOM     20 CL   UNL     1     -11.365  -8.970  -1.578  0.00  0.00    -0.076 Cl
ENDBRANCH  12  15
ENDBRANCH   5  12
ENDBRANCH   2   3
BRANCH   1  22
ATOM     21  N   UNL     1      -0.675  -4.736  -1.452  0.00  0.00    -0.312 N 
ATOM     22  C   UNL     1      -1.186  -5.195  -2.612  0.00  0.00    +0.237 C 
ATOM     23  O   UNL     1      -0.890  -4.655  -3.663  0.00  0.00    -0.271 OA
ATOM     24  H   UNL     1      -0.911  -5.166  -0.615  0.00  0.00    +0.149 HD
BRANCH  21  25
ATOM     25  C   UNL     1       0.236  -3.589  -1.455  0.00  0.00    +0.109 C 
BRANCH  25  26
ATOM     26  C   UNL     1       0.666  -3.275  -0.021  0.00  0.00    +0.056 C 
BRANCH  26  33
ATOM     27  C   UNL     1      -0.017   1.362   0.009  0.00  0.00    +0.001 A 
ATOM     28  C   UNL     1       1.170   2.083   0.002  0.00  0.00    +0.002 A 
ATOM     29  C   UNL     1       2.386   1.436  -0.013  0.00  0.00    +0.026 A 
ATOM     30  C   UNL     1       2.428   0.046  -0.021  0.00  0.00    +0.047 A 
ATOM     31  C   UNL     1       1.223  -0.681  -0.013  0.00  0.00    +0.003 A 
ATOM     32  C   UNL     1       0.002  -0.004   0.002  0.00  0.00    +0.010 A 
ATOM     33  C   UNL     1       1.604  -2.095  -0.025  0.00  0.00    -0.021 A 
ATOM     34  C   UNL     1       2.945  -2.141  -0.038  0.00  0.00    +0.087 A 
ATOM     35  N   UNL     1       3.455  -0.871  -0.036  0.00  0.00    -0.360 N 
ATOM     36  H   UNL     1       4.399  -0.650  -0.044  0.00  0.00    +0.165 HD
ENDBRANCH  26  33
ENDBRANCH  25  26
ENDBRANCH  21  25
ENDBRANCH   1  22
TORSDOF 7
