REMARK  Name = ZINC20264700
REMARK  6 active torsions:
REMARK  status: ('A' for Active; 'I' for Inactive)
REMARK    1  A    between atoms: C_7  and  O_8
REMARK    2  A    between atoms: C_15  and  O_16
REMARK    3  A    between atoms: N_25  and  C_26
REMARK    4  A    between atoms: C_26  and  C_27
REMARK    5  A    between atoms: C_27  and  C_28
REMARK    6  A    between atoms: C_28  and  N_29
REMARK                            x       y       z     vdW  Elec       q    Type
REMARK                         _______ _______ _______ _____ _____    ______ ____
ROOT
ATOM      1  C   UNL     1      -3.782   7.411  -0.012  0.00  0.00    +0.001 A 
ATOM      2  C   UNL     1      -2.593   8.120  -0.020  0.00  0.00    +0.001 A 
ATOM      3  C   UNL     1      -1.381   7.456  -0.018  0.00  0.00    +0.012 A 
ATOM      4  C   UNL     1      -1.353   6.063  -0.008  0.00  0.00    +0.028 A 
ATOM      5  C   UNL     1      -2.560   5.343   0.000  0.00  0.00    +0.028 A 
ATOM      6  C   UNL     1      -3.772   6.029  -0.002  0.00  0.00    +0.012 A 
ATOM      7  C   UNL     1      -2.540   3.866   0.011  0.00  0.00    +0.134 A 
ATOM      8  C   UNL     1      -1.260   3.151   0.013  0.00  0.00    +0.053 A 
ATOM      9  C   UNL     1      -1.233   1.750   0.017  0.00  0.00    +0.050 A 
ATOM     10  C   UNL     1      -0.013   1.076   0.025  0.00  0.00    +0.074 A 
ATOM     11  C   UNL     1       1.177   1.776   0.018  0.00  0.00    +0.156 A 
ATOM     12  C   UNL     1       1.168   3.183   0.008  0.00  0.00    +0.118 A 
ATOM     13  C   UNL     1      -0.044   3.875   0.005  0.00  0.00    +0.059 A 
ATOM     14  C   UNL     1      -0.062   5.344  -0.006  0.00  0.00    +0.135 A 
ATOM     15  N   UNL     1       2.369   3.877   0.001  0.00  0.00    -0.240 NA
ATOM     16  C   UNL     1       3.569   3.158   0.004  0.00  0.00    +0.107 A 
ATOM     17  C   UNL     1       4.784   3.826  -0.002  0.00  0.00    +0.031 A 
ATOM     18  C   UNL     1       5.965   3.107   0.002  0.00  0.00    +0.002 A 
ATOM     19  C   UNL     1       5.937   1.725   0.011  0.00  0.00    +0.004 A 
ATOM     20  C   UNL     1       4.729   1.052   0.017  0.00  0.00    +0.048 A 
ATOM     21  C   UNL     1       3.539   1.764   0.014  0.00  0.00    +0.154 A 
ATOM     22  O   UNL     1       2.354   1.103   0.021  0.00  0.00    -0.452 OA
ATOM     23  N   UNL     1      -2.419   1.035   0.019  0.00  0.00    -0.384 N 
ATOM     24  H   UNL     1      -3.380   1.563   0.109  0.00  0.00    +0.160 HD
ENDROOT
BRANCH   7  25
ATOM     25  O   UNL     1      -3.586   3.243   0.018  0.00  0.00    -0.505 OA
ATOM     26  H   UNL     1      -3.571   2.143   0.026  0.00  0.00    +0.292 HD
ENDBRANCH   7  25
BRANCH  14  27
ATOM     27  O   UNL     1       0.983   5.967  -0.013  0.00  0.00    -0.505 OA
ATOM     28  H   UNL     1       1.943   5.430  -0.011  0.00  0.00    +0.292 HD
ENDBRANCH  14  27
BRANCH  23  29
ATOM     29  C   UNL     1      -2.395  -0.425  -0.100  0.00  0.00    +0.114 C 
BRANCH  29  30
ATOM     30  C   UNL     1      -3.826  -0.963  -0.072  0.00  0.00    +0.036 C 
BRANCH  30  31
ATOM     31  C   UNL     1      -3.800  -2.488  -0.197  0.00  0.00    +0.086 C 
BRANCH  31  32
ATOM     32  N   UNL     1      -5.175  -3.005  -0.170  0.00  0.00    -0.306 NA
ATOM     33  C   UNL     1      -6.048  -2.225  -1.058  0.00  0.00    +0.065 C 
ATOM     34  C   UNL     1      -7.484  -2.744  -0.942  0.00  0.00    -0.067 C 
ATOM     35  N   UNL     1      -7.517  -4.170  -1.295  0.00  0.00    +0.381 N 
ATOM     36  C   UNL     1      -6.644  -4.950  -0.406  0.00  0.00    -0.067 C 
ATOM     37  C   UNL     1      -5.208  -4.431  -0.523  0.00  0.00    +0.065 C 
ATOM     38  H   UNL     1      -8.546  -4.547  -1.200  0.00  0.00    -0.086 HD
ATOM     39  H   UNL     1      -7.173  -4.299  -2.332  0.00  0.00    -0.086 HD
ENDBRANCH  31  32
ENDBRANCH  30  31
ENDBRANCH  29  30
ENDBRANCH  23  29
TORSDOF 6
