REMARK  Name = ZINC02422256
REMARK  6 active torsions:
REMARK  status: ('A' for Active; 'I' for Inactive)
REMARK    1  A    between atoms: C_3  and  C_9
REMARK    2  A    between atoms: C_12  and  S_15
REMARK    3  A    between atoms: N_13  and  N_14
REMARK    4  A    between atoms: S_15  and  C_16
REMARK    5  A    between atoms: C_16  and  C_17
REMARK    6  A    between atoms: N_19  and  C_20
REMARK                            x       y       z     vdW  Elec       q    Type
REMARK                         _______ _______ _______ _____ _____    ______ ____
ROOT
ATOM      1  C   UNL     1       3.897  10.194   0.647  0.00  0.00    +0.183 A 
ATOM      2  N   UNL     1       2.625   9.877   0.565  0.00  0.00    -0.127 NA
ATOM      3  N   UNL     1       2.497   8.603   0.457  0.00  0.00    -0.121 NA
ATOM      4  C   UNL     1       3.678   8.027   0.472  0.00  0.00    +0.209 A 
ATOM      5  N   UNL     1       4.610   9.019   0.589  0.00  0.00    -0.224 N 
ENDROOT
BRANCH   1   8
ATOM      6  C   UNL     1       6.121  13.185   0.192  0.00  0.00    +0.021 A 
ATOM      7  C   UNL     1       5.606  11.911   0.070  0.00  0.00    +0.014 A 
ATOM      8  C   UNL     1       4.456  11.556   0.776  0.00  0.00    +0.039 A 
ATOM      9  C   UNL     1       3.839  12.491   1.611  0.00  0.00    +0.053 A 
ATOM     10  C   UNL     1       4.367  13.761   1.728  0.00  0.00    +0.040 A 
ATOM     11  C   UNL     1       5.505  14.108   1.020  0.00  0.00    +0.042 A 
ATOM     12 CL   UNL     1       6.163  15.708   1.172  0.00  0.00    -0.083 Cl
ATOM     13 CL   UNL     1       2.412  12.057   2.499  0.00  0.00    -0.083 Cl
ENDBRANCH   1   8
BRANCH   5  14
ATOM     14  N   UNL     1       5.968   8.874   0.640  0.00  0.00    -0.295 N 
ATOM     15  H   UNL     1       6.378   8.988  -0.275  0.00  0.00    +0.163 HD
ATOM     16  H   UNL     1       6.375   9.517   1.302  0.00  0.00    +0.163 HD
ENDBRANCH   5  14
BRANCH   4  17
ATOM     17  S   UNL     1       4.000   6.299   0.353  0.00  0.00    -0.075 S 
BRANCH  17  18
ATOM     18  C   UNL     1       2.307   5.671   0.230  0.00  0.00    +0.173 C 
BRANCH  18  19
ATOM     19  C   UNL     1       2.335   4.169   0.116  0.00  0.00    +0.228 C 
ATOM     20  O   UNL     1       3.396   3.580   0.118  0.00  0.00    -0.275 OA
ATOM     21  N   UNL     1       1.182   3.479   0.011  0.00  0.00    -0.284 N 
ATOM     22  H   UNL     1       0.340   3.953  -0.075  0.00  0.00    +0.155 HD
BRANCH  21  23
ATOM     23  C   UNL     1       1.199   2.080   0.027  0.00  0.00    +0.053 A 
ATOM     24  C   UNL     1       2.246   1.404   0.640  0.00  0.00    +0.044 A 
ATOM     25  C   UNL     1       2.260   0.022   0.654  0.00  0.00    +0.043 A 
ATOM     26  C   UNL     1       1.233  -0.688   0.057  0.00  0.00    +0.021 A 
ATOM     27  C   UNL     1       0.190  -0.018  -0.554  0.00  0.00    +0.023 A 
ATOM     28  C   UNL     1       0.169   1.364  -0.571  0.00  0.00    +0.062 A 
ATOM     29 CL   UNL     1      -1.138   2.204  -1.345  0.00  0.00    -0.082 Cl
ATOM     30 CL   UNL     1       3.568  -0.824   1.421  0.00  0.00    -0.083 Cl
ENDBRANCH  21  23
ENDBRANCH  18  19
ENDBRANCH  17  18
ENDBRANCH   4  17
TORSDOF 6
