REMARK  Name = ZINC10040846
REMARK  11 active torsions:
REMARK  status: ('A' for Active; 'I' for Inactive)
REMARK    1  A    between atoms: C_1  and  C_2
REMARK    2  A    between atoms: C_2  and  O_3
REMARK    3  A    between atoms: O_3  and  C_4
REMARK    4  A    between atoms: C_7  and  C_11
REMARK    5  A    between atoms: N_12  and  N_13
REMARK    6  A    between atoms: C_14  and  C_16
REMARK    7  A    between atoms: C_16  and  C_18
REMARK    8  A    between atoms: C_16  and  N_21
REMARK    9  A    between atoms: C_18  and  C_19
REMARK   10  A    between atoms: C_18  and  C_20
REMARK   11  A    between atoms: C_22  and  C_24
REMARK                            x       y       z     vdW  Elec       q    Type
REMARK                         _______ _______ _______ _____ _____    ______ ____
ROOT
ATOM      1  N   UNL     1       5.898   6.235  -1.046  0.00  0.00    -0.205 N 
ATOM      2  C   UNL     1       4.789   5.537  -0.731  0.00  0.00    +0.253 C 
ATOM      3  O   UNL     1       3.695   5.966  -1.034  0.00  0.00    -0.272 OA
ATOM      4  H   UNL     1       6.766   5.929  -0.741  0.00  0.00    +0.177 HD
ENDROOT
BRANCH   1   6
ATOM      5  C   UNL     1       6.864   8.075  -2.117  0.00  0.00    +0.138 C 
ATOM      6  N   UNL     1       5.796   7.403  -1.814  0.00  0.00    -0.188 NA
BRANCH   5  10
ATOM      7  C   UNL     1       6.555  11.612  -4.445  0.00  0.00    +0.134 A 
ATOM      8  C   UNL     1       5.411  10.893  -4.122  0.00  0.00    +0.047 A 
ATOM      9  C   UNL     1       5.507   9.743  -3.371  0.00  0.00    +0.013 A 
ATOM     10  C   UNL     1       6.757   9.303  -2.925  0.00  0.00    -0.004 A 
ATOM     11  C   UNL     1       7.905  10.029  -3.253  0.00  0.00    +0.028 A 
ATOM     12  C   UNL     1       7.800  11.177  -4.009  0.00  0.00    +0.060 A 
ATOM     13 BR   UNL     1       9.353  12.160  -4.453  0.00  0.00    -0.046 Br
BRANCH   7  14
ATOM     14  O   UNL     1       6.456  12.744  -5.191  0.00  0.00    -0.491 OA
BRANCH  14  16
ATOM     15  C   UNL     1       5.234  14.421  -6.429  0.00  0.00    +0.048 C 
ATOM     16  C   UNL     1       5.145  13.134  -5.606  0.00  0.00    +0.226 C 
ENDBRANCH  14  16
ENDBRANCH   7  14
ENDBRANCH   5  10
ENDBRANCH   1   6
BRANCH   2  17
ATOM     17  C   UNL     1       4.907   4.223  -0.003  0.00  0.00    +0.163 C 
BRANCH  17  18
ATOM     18  N   UNL     1       3.661   3.467  -0.154  0.00  0.00    -0.300 N 
ATOM     19  C   UNL     1       3.672   2.123  -0.052  0.00  0.00    +0.245 C 
ATOM     20  O   UNL     1       4.715   1.538   0.165  0.00  0.00    -0.270 OA
ATOM     21  H   UNL     1       2.829   3.933  -0.328  0.00  0.00    +0.150 HD
BRANCH  19  22
ATOM     22  C   UNL     1       2.415   1.360  -0.205  0.00  0.00    +0.038 A 
ATOM     23  C   UNL     1       1.216   2.029  -0.455  0.00  0.00    +0.014 A 
ATOM     24  C   UNL     1       0.046   1.313  -0.595  0.00  0.00    +0.022 A 
ATOM     25  C   UNL     1       0.059  -0.068  -0.490  0.00  0.00    +0.059 A 
ATOM     26  C   UNL     1       1.246  -0.738  -0.242  0.00  0.00    +0.060 A 
ATOM     27  C   UNL     1       2.423  -0.032  -0.100  0.00  0.00    +0.034 A 
ATOM     28 CL   UNL     1       1.254  -2.469  -0.112  0.00  0.00    -0.082 Cl
ATOM     29 CL   UNL     1      -1.418  -0.963  -0.668  0.00  0.00    -0.082 Cl
ENDBRANCH  19  22
ENDBRANCH  17  18
BRANCH  17  30
ATOM     30  C   UNL     1       5.168   4.484   1.482  0.00  0.00    +0.012 C 
ATOM     31  C   UNL     1       3.961   5.199   2.093  0.00  0.00    +0.009 C 
ATOM     32  C   UNL     1       5.392   3.153   2.202  0.00  0.00    +0.009 C 
ENDBRANCH  17  30
ENDBRANCH   2  17
TORSDOF 8
