REMARK  Name = ZINC36215574
REMARK  11 active torsions:
REMARK  status: ('A' for Active; 'I' for Inactive)
REMARK    1  A    between atoms: C_1  and  C_2
REMARK    2  A    between atoms: C_2  and  C_3
REMARK    3  A    between atoms: C_3  and  C_5
REMARK    4  A    between atoms: C_3  and  N_6
REMARK    5  A    between atoms: C_7  and  C_9
REMARK    6  A    between atoms: C_11  and  C_25
REMARK    7  A    between atoms: N_16  and  C_17
REMARK    8  A    between atoms: C_17  and  C_18
REMARK    9  A    between atoms: C_28  and  N_31
REMARK   10  A    between atoms: C_32  and  C_34
REMARK   11  A    between atoms: C_37  and  C_40
REMARK                            x       y       z     vdW  Elec       q    Type
REMARK                         _______ _______ _______ _____ _____    ______ ____
ROOT
ATOM      1  C   UNL     1      -0.196   0.463   5.065  0.00  0.00    +0.210 C 
ATOM      2  C   UNL     1      -0.819  -0.880   5.517  0.00  0.00    +0.238 C 
ATOM      3  O   UNL     1      -0.675  -0.810   6.949  0.00  0.00    -0.440 OA
ATOM      4  C   UNL     1       0.370  -0.011   7.223  0.00  0.00    +0.405 C 
ATOM      5  O   UNL     1       0.950  -0.005   8.291  0.00  0.00    -0.226 OA
ATOM      6  N   UNL     1       0.705   0.788   6.188  0.00  0.00    -0.248 N 
ENDROOT
BRANCH   2   7
ATOM      7  C   UNL     1      -2.272  -0.958   5.125  0.00  0.00    -0.005 A 
ATOM      8  C   UNL     1      -3.228  -0.312   5.887  0.00  0.00    +0.009 A 
ATOM      9  C   UNL     1      -4.560  -0.382   5.530  0.00  0.00    +0.024 A 
ATOM     10  C   UNL     1      -4.939  -1.102   4.404  0.00  0.00    +0.034 A 
ATOM     11  C   UNL     1      -3.976  -1.750   3.641  0.00  0.00    +0.024 A 
ATOM     12  C   UNL     1      -2.645  -1.672   4.000  0.00  0.00    +0.009 A 
BRANCH  10  13
ATOM     13  N   UNL     1      -6.288  -1.176   4.040  0.00  0.00    -0.282 N 
ATOM     14  C   UNL     1      -7.106  -0.130   4.272  0.00  0.00    +0.248 C 
ATOM     15  O   UNL     1      -6.654   0.911   4.708  0.00  0.00    -0.270 OA
ATOM     16  H   UNL     1      -6.634  -1.979   3.621  0.00  0.00    +0.155 HD
BRANCH  14  17
ATOM     17  C   UNL     1      -8.553  -0.249   3.996  0.00  0.00    +0.037 A 
ATOM     18  C   UNL     1      -9.076  -1.444   3.501  0.00  0.00    +0.013 A 
ATOM     19  C   UNL     1     -10.428  -1.549   3.245  0.00  0.00    +0.004 A 
ATOM     20  C   UNL     1     -11.265  -0.472   3.479  0.00  0.00    -0.050 A 
ATOM     21  C   UNL     1     -10.752   0.716   3.970  0.00  0.00    +0.004 A 
ATOM     22  C   UNL     1      -9.403   0.832   4.234  0.00  0.00    +0.013 A 
ATOM     23  C   UNL     1     -12.740  -0.593   3.197  0.00  0.00    +0.044 C 
ENDBRANCH  14  17
ENDBRANCH  10  13
ENDBRANCH   2   7
BRANCH   1  25
ATOM     24  N   UNL     1      -0.060   0.307   2.600  0.00  0.00    -0.311 N 
ATOM     25  C   UNL     1       0.581   0.290   3.786  0.00  0.00    +0.238 C 
ATOM     26  O   UNL     1       1.783   0.136   3.822  0.00  0.00    -0.274 OA
ATOM     27  H   UNL     1      -1.022   0.430   2.571  0.00  0.00    +0.149 HD
BRANCH  24  28
ATOM     28  C   UNL     1       0.695   0.139   1.356  0.00  0.00    +0.070 C 
ATOM     29  C   UNL     1       0.880  -1.352   1.069  0.00  0.00    +0.028 C 
BRANCH  28  31
ATOM     30  C   UNL     1      -0.147   2.301   0.429  0.00  0.00    +0.005 C 
ATOM     31  C   UNL     1      -0.071   0.790   0.203  0.00  0.00    +0.018 C 
ENDBRANCH  28  31
ENDBRANCH  24  28
ENDBRANCH   1  25
BRANCH   6  32
ATOM     32  C   UNL     1       1.771   1.792   6.177  0.00  0.00    +0.147 C 
BRANCH  32  33
ATOM     33  C   UNL     1       1.216   3.119   6.628  0.00  0.00    -0.030 A 
ATOM     34  C   UNL     1       0.688   3.998   5.701  0.00  0.00    +0.008 A 
ATOM     35  C   UNL     1       0.178   5.214   6.113  0.00  0.00    +0.038 A 
ATOM     36  C   UNL     1       0.197   5.553   7.456  0.00  0.00    +0.123 A 
ATOM     37  C   UNL     1       0.727   4.672   8.383  0.00  0.00    +0.038 A 
ATOM     38  C   UNL     1       1.231   3.454   7.969  0.00  0.00    +0.008 A 
ATOM     39  F   UNL     1      -0.300   6.742   7.860  0.00  0.00    -0.205 F 
ENDBRANCH  32  33
ENDBRANCH   6  32
TORSDOF 8
