REMARK  Name = ZINC63850300
REMARK  6 active torsions:
REMARK  status: ('A' for Active; 'I' for Inactive)
REMARK    1  A    between atoms: C_7  and  C_10
REMARK    2  A    between atoms: C_10  and  C_12
REMARK    3  A    between atoms: C_10  and  C_29
REMARK    4  A    between atoms: C_12  and  N_13
REMARK    5  A    between atoms: C_14  and  C_16
REMARK    6  A    between atoms: C_19  and  N_23
REMARK                            x       y       z     vdW  Elec       q    Type
REMARK                         _______ _______ _______ _____ _____    ______ ____
ROOT
ATOM      1  C   UNL     1       0.963  -3.437   0.148  0.00  0.00    +0.066 C 
ENDROOT
BRANCH   1   8
ATOM      2  C   UNL     1       0.992   1.151   0.056  0.00  0.00    +0.001 A 
ATOM      3  C   UNL     1       2.271   1.708   0.196  0.00  0.00    +0.002 A 
ATOM      4  C   UNL     1       3.382   0.955   0.344  0.00  0.00    +0.026 A 
ATOM      5  C   UNL     1       3.291  -0.464   0.363  0.00  0.00    +0.043 A 
ATOM      6  N   UNL     1       4.205  -1.395   0.491  0.00  0.00    -0.380 N 
ATOM      7  C   UNL     1       3.547  -2.706   0.441  0.00  0.00    +0.145 C 
ATOM      8  C   UNL     1       2.073  -2.423   0.260  0.00  0.00    -0.033 C 
ATOM      9  C   UNL     1       1.952  -1.077   0.217  0.00  0.00    -0.000 A 
ATOM     10  C   UNL     1       0.795  -0.187   0.061  0.00  0.00    +0.010 A 
ATOM     11  H   UNL     1       5.157  -1.244   0.601  0.00  0.00    +0.160 HD
ENDBRANCH   1   8
BRANCH   1  12
ATOM     12  C   UNL     1       0.921  -4.275   1.400  0.00  0.00    -0.020 A 
ATOM     13  C   UNL     1       2.024  -5.021   1.770  0.00  0.00    +0.006 A 
ATOM     14  C   UNL     1       1.986  -5.790   2.918  0.00  0.00    +0.000 A 
ATOM     15  C   UNL     1       0.844  -5.814   3.696  0.00  0.00    +0.001 A 
ATOM     16  C   UNL     1      -0.260  -5.069   3.328  0.00  0.00    +0.020 A 
ATOM     17  C   UNL     1      -0.220  -4.294   2.182  0.00  0.00    +0.045 A 
ATOM     18 CL   UNL     1      -1.604  -3.353   1.721  0.00  0.00    -0.083 Cl
ENDBRANCH   1  12
BRANCH   1  19
ATOM     19  C   UNL     1       1.216  -4.339  -1.062  0.00  0.00    +0.117 C 
BRANCH  19  20
ATOM     20  N   UNL     1       0.079  -5.245  -1.241  0.00  0.00    -0.311 N 
ATOM     21  C   UNL     1       0.081  -6.137  -2.251  0.00  0.00    +0.238 C 
ATOM     22  O   UNL     1       1.027  -6.189  -3.016  0.00  0.00    -0.271 OA
ATOM     23  H   UNL     1      -0.675  -5.204  -0.632  0.00  0.00    +0.149 HD
BRANCH  21  24
ATOM     24  C   UNL     1      -1.017  -7.012  -2.424  0.00  0.00    +0.086 C 
ATOM     25  C   UNL     1      -1.070  -7.823  -3.501  0.00  0.00    +0.021 C 
ATOM     26  N   UNL     1      -0.159  -7.740  -4.493  0.00  0.00    -0.320 N 
ATOM     27  C   UNL     1       0.040  -8.950  -5.321  0.00  0.00    +0.222 C 
ATOM     28  S   UNL     1      -1.639  -9.707  -5.214  0.00  0.00    -0.113 S 
ATOM     29  C   UNL     1      -2.155  -8.877  -3.651  0.00  0.00    +0.123 C 
ATOM     30  H   UNL     1       0.341  -6.925  -4.657  0.00  0.00    +0.148 HD
BRANCH  27  31
ATOM     31  N   UNL     1       1.057  -9.829  -4.739  0.00  0.00    -0.274 N 
ATOM     32  C   UNL     1       1.712 -10.928  -5.459  0.00  0.00    +0.111 C 
ATOM     33  C   UNL     1       2.971 -11.269  -4.633  0.00  0.00    +0.028 C 
ATOM     34  C   UNL     1       2.561 -10.791  -3.220  0.00  0.00    +0.097 C 
ATOM     35  C   UNL     1       1.515  -9.729  -3.480  0.00  0.00    +0.218 C 
ATOM     36  O   UNL     1       1.142  -8.909  -2.668  0.00  0.00    -0.276 OA
ENDBRANCH  27  31
ENDBRANCH  21  24
ENDBRANCH  19  20
ENDBRANCH   1  19
TORSDOF 6
