REMARK  Name = ZINC04313635
REMARK  4 active torsions:
REMARK  status: ('A' for Active; 'I' for Inactive)
REMARK    1  A    between atoms: C_1  and  O_2
REMARK    2  A    between atoms: O_2  and  C_3
REMARK    3  A    between atoms: C_5  and  N_26
REMARK    4  A    between atoms: C_10  and  C_19
REMARK                            x       y       z     vdW  Elec       q    Type
REMARK                         _______ _______ _______ _____ _____    ______ ____
ROOT
ATOM      1  C   UNL     1      -0.873   0.964   3.530  0.00  0.00    +0.143 A 
ATOM      2  C   UNL     1      -0.281   0.591   4.723  0.00  0.00    +0.080 A 
ATOM      3  C   UNL     1       1.086   0.389   4.775  0.00  0.00    +0.130 A 
ATOM      4  C   UNL     1       1.854   0.557   3.642  0.00  0.00    +0.039 A 
ATOM      5  C   UNL     1       1.270   0.929   2.437  0.00  0.00    -0.014 A 
ATOM      6  C   UNL     1      -0.096   1.134   2.380  0.00  0.00    +0.074 A 
ATOM      7  N   UNL     1      -0.737   1.497   1.212  0.00  0.00    -0.334 N 
ATOM      8  C   UNL     1      -0.013   1.086   0.008  0.00  0.00    +0.108 C 
ATOM      9  C   UNL     1       1.399   1.677   0.037  0.00  0.00    +0.029 C 
ATOM     10  C   UNL     1       2.163   1.090   1.242  0.00  0.00    +0.049 C 
ATOM     11  C   UNL     1       2.652  -0.265   0.719  0.00  0.00    -0.023 C 
ATOM     12  C   UNL     1       2.664  -0.280  -0.590  0.00  0.00    -0.030 C 
ATOM     13  C   UNL     1       2.200   1.054  -1.141  0.00  0.00    +0.033 C 
ATOM     14  H   UNL     1      -0.904   2.492   1.211  0.00  0.00    +0.147 HD
ENDROOT
BRANCH   8  15
ATOM     15  C   UNL     1      -0.742   1.585  -1.212  0.00  0.00    +0.008 A 
ATOM     16  C   UNL     1      -0.271   2.691  -1.895  0.00  0.00    +0.008 A 
ATOM     17  C   UNL     1      -0.939   3.149  -3.015  0.00  0.00    +0.000 A 
ATOM     18  C   UNL     1      -2.080   2.502  -3.454  0.00  0.00    +0.003 A 
ATOM     19  C   UNL     1      -2.553   1.397  -2.772  0.00  0.00    +0.039 A 
ATOM     20  C   UNL     1      -1.881   0.934  -1.653  0.00  0.00    +0.128 A 
ATOM     21  F   UNL     1      -2.339  -0.150  -0.990  0.00  0.00    -0.205 F 
ENDBRANCH   8  15
BRANCH   3  22
ATOM     22  N   UNL     1       1.726  -0.009   6.049  0.00  0.00    +0.057 N 
ATOM     23  O   UNL     1       1.049  -0.158   7.051  0.00  0.00    -0.126 OA
ATOM     24  O   UNL     1       2.930  -0.188   6.096  0.00  0.00    -0.126 OA
ENDBRANCH   3  22
BRANCH   1  26
ATOM     25  C   UNL     1      -2.952   0.974   4.686  0.00  0.00    +0.277 C 
ATOM     26  O   UNL     1      -2.217   1.165   3.475  0.00  0.00    -0.493 OA
ENDBRANCH   1  26
TORSDOF 3
