REMARK  Name = ZINC39455268
REMARK  8 active torsions:
REMARK  status: ('A' for Active; 'I' for Inactive)
REMARK    1  A    between atoms: C_5  and  C_7
REMARK    2  A    between atoms: C_9  and  C_21
REMARK    3  A    between atoms: N_12  and  C_14
REMARK    4  A    between atoms: C_21  and  N_22
REMARK    5  A    between atoms: N_22  and  C_23
REMARK    6  A    between atoms: C_23  and  C_24
REMARK    7  A    between atoms: C_24  and  S_25
REMARK    8  A    between atoms: S_25  and  C_26
REMARK                            x       y       z     vdW  Elec       q    Type
REMARK                         _______ _______ _______ _____ _____    ______ ____
ROOT
ATOM      1  C   UNL     1       1.229  -2.186  -0.022  0.00  0.00    +0.107 C 
ATOM      2  C   UNL     1       1.425  -2.747   1.413  0.00  0.00    +0.014 C 
ATOM      3  C   UNL     1       0.718  -4.119   1.297  0.00  0.00    +0.127 C 
ATOM      4  N   UNL     1      -0.170  -4.004   0.129  0.00  0.00    -0.266 N 
ATOM      5  N   UNL     1      -0.104  -2.733  -0.383  0.00  0.00    -0.232 NA
ATOM      6  H   UNL     1      -0.845  -2.156  -0.012  0.00  0.00    +0.145 HD
ENDROOT
BRANCH   1  11
ATOM      7  C   UNL     1       0.005   1.377   0.225  0.00  0.00    +0.000 A 
ATOM      8  C   UNL     1       1.171   2.086   0.002  0.00  0.00    +0.001 A 
ATOM      9  C   UNL     1       2.355   1.413  -0.229  0.00  0.00    +0.020 A 
ATOM     10  C   UNL     1       2.375   0.030  -0.237  0.00  0.00    +0.046 A 
ATOM     11  C   UNL     1       1.208  -0.679  -0.013  0.00  0.00    -0.010 A 
ATOM     12  C   UNL     1       0.024  -0.005   0.218  0.00  0.00    +0.006 A 
ATOM     13 CL   UNL     1       3.863  -0.816  -0.528  0.00  0.00    -0.083 Cl
ENDBRANCH   1  11
BRANCH   4  14
ATOM     14  C   UNL     1      -0.960  -5.037  -0.385  0.00  0.00    +0.045 A 
ATOM     15  C   UNL     1      -0.949  -6.287   0.220  0.00  0.00    +0.027 A 
ATOM     16  C   UNL     1      -1.731  -7.306  -0.288  0.00  0.00    +0.040 A 
ATOM     17  C   UNL     1      -2.526  -7.082  -1.400  0.00  0.00    +0.124 A 
ATOM     18  C   UNL     1      -2.538  -5.836  -2.005  0.00  0.00    +0.040 A 
ATOM     19  C   UNL     1      -1.762  -4.813  -1.496  0.00  0.00    +0.027 A 
ATOM     20  F   UNL     1      -3.289  -8.079  -1.896  0.00  0.00    -0.205 F 
ENDBRANCH   4  14
BRANCH   2  21
ATOM     21  C   UNL     1       0.738  -1.858   2.451  0.00  0.00    -0.076 C 
BRANCH  21  22
ATOM     22  N   UNL     1       1.046  -2.353   3.800  0.00  0.00    +0.380 N 
ATOM     23  H   UNL     1       0.712  -3.300   3.895  0.00  0.00    -0.086 HD
ATOM     24  H   UNL     1       2.044  -2.331   3.946  0.00  0.00    -0.086 HD
BRANCH  22  25
ATOM     25  C   UNL     1       0.386  -1.499   4.796  0.00  0.00    -0.071 C 
BRANCH  25  26
ATOM     26  C   UNL     1       0.706  -2.014   6.201  0.00  0.00    +0.058 C 
BRANCH  26  27
ATOM     27  S   UNL     1      -0.109  -0.959   7.432  0.00  0.00    -0.086 S 
BRANCH  27  28
ATOM     28  C   UNL     1       0.351  -1.673   8.976  0.00  0.00    +0.208 A 
ATOM     29  H   UNL     1       1.718  -3.659  10.954  0.00  0.00    +0.190 HD
ATOM     30  N   UNL     1      -0.020  -1.228  10.181  0.00  0.00    -0.210 NA
ATOM     31  C   UNL     1       0.497  -1.988  11.112  0.00  0.00    +0.217 A 
ATOM     32  N   UNL     1       1.220  -2.951  10.515  0.00  0.00    -0.264 N 
ATOM     33  N   UNL     1       1.109  -2.733   9.133  0.00  0.00    -0.146 NA
ENDBRANCH  27  28
ENDBRANCH  26  27
ENDBRANCH  25  26
ENDBRANCH  22  25
ENDBRANCH  21  22
ENDBRANCH   2  21
TORSDOF 8
