REMARK  Name = ZINC19312862
REMARK  6 active torsions:
REMARK  status: ('A' for Active; 'I' for Inactive)
REMARK    1  A    between atoms: C_1  and  O_2
REMARK    2  A    between atoms: O_2  and  C_3
REMARK    3  A    between atoms: C_8  and  O_9
REMARK    4  A    between atoms: O_9  and  C_10
REMARK    5  A    between atoms: C_18  and  C_20
REMARK    6  A    between atoms: C_24  and  N_26
REMARK                            x       y       z     vdW  Elec       q    Type
REMARK                         _______ _______ _______ _____ _____    ______ ____
ROOT
ATOM      1  C   UNL     1       0.606  -0.608  -1.056  0.00  0.00    +0.162 A 
ATOM      2  C   UNL     1       1.172   0.156  -2.061  0.00  0.00    +0.055 A 
ATOM      3  C   UNL     1       1.792  -0.453  -3.143  0.00  0.00    -0.019 A 
ATOM      4  C   UNL     1       1.847  -1.830  -3.216  0.00  0.00    -0.031 A 
ATOM      5  C   UNL     1       1.278  -2.600  -2.213  0.00  0.00    +0.054 A 
ATOM      6  C   UNL     1       0.663  -1.996  -1.131  0.00  0.00    +0.162 A 
ATOM      7  C   UNL     1       2.523  -2.528  -4.365  0.00  0.00    +0.009 C 
ATOM      8  C   UNL     1       1.673  -3.731  -4.814  0.00  0.00    +0.013 C 
ATOM      9  C   UNL     1       2.717  -4.817  -5.177  0.00  0.00    +0.001 C 
ATOM     10  C   UNL     1       3.810  -4.617  -4.097  0.00  0.00    +0.001 C 
ATOM     11  C   UNL     1       3.880  -3.086  -3.910  0.00  0.00    +0.013 C 
ATOM     12  C   UNL     1       2.720  -1.569  -5.535  0.00  0.00    +0.093 C 
ATOM     13  N   UNL     1       3.343  -0.335  -5.028  0.00  0.00    -0.305 NA
ATOM     14  C   UNL     1       2.386   0.422  -4.215  0.00  0.00    +0.115 C 
ATOM     15  H   UNL     1       4.180  -0.542  -4.503  0.00  0.00    +0.123 HD
ENDROOT
BRANCH  14  16
ATOM     16  C   UNL     1       3.094   1.585  -3.570  0.00  0.00    -0.024 A 
ATOM     17  C   UNL     1       4.365   1.420  -3.051  0.00  0.00    +0.005 A 
ATOM     18  C   UNL     1       5.014   2.488  -2.460  0.00  0.00    +0.003 A 
ATOM     19  C   UNL     1       4.393   3.721  -2.388  0.00  0.00    +0.033 A 
ATOM     20  C   UNL     1       3.123   3.886  -2.907  0.00  0.00    +0.127 A 
ATOM     21  C   UNL     1       2.475   2.819  -3.502  0.00  0.00    +0.038 A 
BRANCH  20  22
ATOM     22  N   UNL     1       2.458   5.206  -2.829  0.00  0.00    +0.056 N 
ATOM     23  O   UNL     1       3.025   6.139  -2.311  0.00  0.00    -0.126 OA
ATOM     24  O   UNL     1       1.347   5.351  -3.283  0.00  0.00    -0.126 OA
ENDBRANCH  20  22
ENDBRANCH  14  16
BRANCH   1  26
ATOM     25  C   UNL     1      -0.017   1.425   0.010  0.00  0.00    +0.277 C 
ATOM     26  O   UNL     1       0.002  -0.004   0.002  0.00  0.00    -0.491 OA
ENDBRANCH   1  26
BRANCH   6  27
ATOM     27  O   UNL     1       0.111  -2.756  -0.146  0.00  0.00    -0.491 OA
ATOM     28  C   UNL     1       0.208  -4.174  -0.291  0.00  0.00    +0.277 C 
ENDBRANCH   6  27
TORSDOF 4
