REMARK  Name = ZINC63889802
REMARK  11 active torsions:
REMARK  status: ('A' for Active; 'I' for Inactive)
REMARK    1  A    between atoms: C_1  and  C_2
REMARK    2  A    between atoms: C_2  and  C_3
REMARK    3  A    between atoms: C_3  and  C_4
REMARK    4  A    between atoms: C_4  and  N_5
REMARK    5  A    between atoms: N_14  and  C_28
REMARK    6  A    between atoms: C_15  and  C_17
REMARK    7  A    between atoms: C_17  and  N_18
REMARK    8  A    between atoms: N_18  and  C_19
REMARK    9  A    between atoms: C_21  and  C_26
REMARK   10  A    between atoms: C_24  and  C_25
REMARK   11  A    between atoms: C_28  and  C_29
REMARK                            x       y       z     vdW  Elec       q    Type
REMARK                         _______ _______ _______ _____ _____    ______ ____
ROOT
ATOM      1  N   UNL     1       1.425  -2.500  -2.470  0.00  0.00    -0.277 N 
ATOM      2  C   UNL     1       0.704  -2.728  -3.632  0.00  0.00    +0.168 A 
ATOM      3  C   UNL     1       1.377  -3.176  -4.761  0.00  0.00    +0.151 A 
ATOM      4  C   UNL     1       2.772  -3.385  -4.694  0.00  0.00    +0.280 A 
ATOM      5  O   UNL     1       3.384  -3.776  -5.671  0.00  0.00    -0.265 OA
ATOM      6  N   UNL     1       3.418  -3.144  -3.534  0.00  0.00    -0.273 N 
ATOM      7  H   UNL     1       4.376  -3.286  -3.483  0.00  0.00    +0.173 HD
ATOM      8  C   UNL     1       2.755  -2.706  -2.450  0.00  0.00    +0.331 A 
ATOM      9  O   UNL     1       3.372  -2.495  -1.423  0.00  0.00    -0.246 OA
ATOM     10  N   UNL     1       0.423  -3.315  -5.750  0.00  0.00    -0.321 N 
ATOM     11  C   UNL     1      -0.758  -2.960  -5.209  0.00  0.00    +0.130 A 
ATOM     12  N   UNL     1      -0.586  -2.614  -3.958  0.00  0.00    -0.213 NA
ENDROOT
BRANCH  10  13
ATOM     13  C   UNL     1       0.653  -3.763  -7.125  0.00  0.00    +0.120 C 
ATOM     14  C   UNL     1       0.509  -5.284  -7.197  0.00  0.00    +0.027 C 
ENDBRANCH  10  13
BRANCH   1  15
ATOM     15  C   UNL     1       0.739  -2.027  -1.265  0.00  0.00    +0.128 C 
BRANCH  15  16
ATOM     16  C   UNL     1       0.718  -0.497  -1.257  0.00  0.00    +0.021 C 
BRANCH  16  18
ATOM     17  C   UNL     1      -0.019   1.526   0.010  0.00  0.00    +0.004 C 
ATOM     18  C   UNL     1       0.002  -0.004   0.002  0.00  0.00    -0.002 C 
ENDBRANCH  16  18
ENDBRANCH  15  16
ENDBRANCH   1  15
BRANCH  11  19
ATOM     19  C   UNL     1      -2.079  -2.959  -5.935  0.00  0.00    +0.176 C 
BRANCH  19  20
ATOM     20  N   UNL     1      -2.722  -4.266  -5.780  0.00  0.00    -0.337 N 
ATOM     21  H   UNL     1      -2.284  -4.965  -5.268  0.00  0.00    +0.147 HD
BRANCH  20  22
ATOM     22  C   UNL     1      -3.966  -4.507  -6.369  0.00  0.00    +0.032 A 
ATOM     23  C   UNL     1      -4.589  -3.511  -7.105  0.00  0.00    +0.042 A 
ATOM     24  C   UNL     1      -5.830  -3.757  -7.692  0.00  0.00    +0.054 A 
ATOM     25  C   UNL     1      -6.437  -5.005  -7.534  0.00  0.00    +0.019 A 
ATOM     26  C   UNL     1      -5.808  -5.990  -6.800  0.00  0.00    +0.006 A 
ATOM     27  C   UNL     1      -4.575  -5.747  -6.223  0.00  0.00    -0.030 A 
ATOM     28  C   UNL     1      -3.893  -6.830  -5.427  0.00  0.00    +0.045 C 
BRANCH  24  29
ATOM     29  C   UNL     1      -6.481  -2.733  -8.454  0.00  0.00    +0.099 C 
ATOM     30  N   UNL     1      -6.997  -1.921  -9.057  0.00  0.00    -0.191 NA
ENDBRANCH  24  29
ENDBRANCH  20  22
ENDBRANCH  19  20
ENDBRANCH  11  19
TORSDOF 8
