REMARK  Name = ZINC28654316
REMARK  9 active torsions:
REMARK  status: ('A' for Active; 'I' for Inactive)
REMARK    1  A    between atoms: C_1  and  C_2
REMARK    2  A    between atoms: C_2  and  C_4
REMARK    3  A    between atoms: C_2  and  N_18
REMARK    4  A    between atoms: C_4  and  C_6
REMARK    5  A    between atoms: C_15  and  C_17
REMARK    6  A    between atoms: N_18  and  C_19
REMARK    7  A    between atoms: C_19  and  C_20
REMARK    8  A    between atoms: C_20  and  C_22
REMARK    9  A    between atoms: C_20  and  C_28
REMARK                            x       y       z     vdW  Elec       q    Type
REMARK                         _______ _______ _______ _____ _____    ______ ____
ROOT
ATOM      1  N   UNL     1       1.104  -2.112  -0.501  0.00  0.00    +0.386 N 
ATOM      2  H   UNL     1       0.800  -2.752   0.340  0.00  0.00    -0.085 HD
ATOM      3  H   UNL     1       0.315  -2.114  -1.267  0.00  0.00    -0.085 HD
ENDROOT
BRANCH   1   5
ATOM      4  C   UNL     1       1.899  -0.779   1.393  0.00  0.00    -0.006 C 
ATOM      5  C   UNL     1       1.317  -0.740  -0.021  0.00  0.00    -0.002 C 
BRANCH   5   6
ATOM      6  C   UNL     1       0.002  -0.004  -0.003  0.00  0.00    +0.149 C 
ATOM      7  O   UNL     1      -1.040  -0.625   0.004  0.00  0.00    -0.294 OA
BRANCH   6   8
ATOM      8  C   UNL     1      -0.018   1.464   0.006  0.00  0.00    +0.016 A 
ATOM      9  C   UNL     1       1.182   2.187  -0.002  0.00  0.00    +0.013 A 
ATOM     10  C   UNL     1       1.162   3.549   0.007  0.00  0.00    +0.024 A 
ATOM     11  C   UNL     1      -0.054   4.245   0.024  0.00  0.00    +0.040 A 
ATOM     12  C   UNL     1      -1.245   3.530   0.032  0.00  0.00    -0.024 A 
ATOM     13  C   UNL     1      -1.237   2.154   0.017  0.00  0.00    +0.016 A 
ATOM     14  C   UNL     1      -2.394   4.513   0.051  0.00  0.00    +0.056 C 
ATOM     15  C   UNL     1      -1.719   5.894   0.053  0.00  0.00    +0.118 C 
ATOM     16  N   UNL     1      -0.280   5.619   0.036  0.00  0.00    -0.271 N 
ATOM     17  C   UNL     1       0.685   6.559   0.033  0.00  0.00    +0.217 C 
ATOM     18  O   UNL     1       1.851   6.233   0.111  0.00  0.00    -0.276 OA
ATOM     19  C   UNL     1       0.317   8.017  -0.069  0.00  0.00    +0.109 C 
ENDBRANCH   6   8
ENDBRANCH   5   6
ENDBRANCH   1   5
BRANCH   1  20
ATOM     20  C   UNL     1       2.333  -2.660  -1.090  0.00  0.00    -0.069 C 
BRANCH  20  21
ATOM     21  C   UNL     1       2.073  -4.087  -1.577  0.00  0.00    +0.034 C 
BRANCH  21  22
ATOM     22  C   UNL     1       3.295  -4.605  -2.291  0.00  0.00    -0.017 A 
ATOM     23  C   UNL     1       4.525  -4.742  -1.770  0.00  0.00    +0.087 A 
ATOM     24  N   UNL     1       5.378  -5.246  -2.714  0.00  0.00    -0.360 N 
ATOM     25  H   UNL     1       6.432  -5.432  -2.461  0.00  0.00    +0.165 HD
ATOM     26  C   UNL     1       4.702  -5.442  -3.898  0.00  0.00    +0.047 A 
ATOM     27  C   UNL     1       3.368  -5.049  -3.685  0.00  0.00    +0.003 A 
ATOM     28  C   UNL     1       2.441  -5.138  -4.724  0.00  0.00    +0.010 A 
ATOM     29  C   UNL     1       2.834  -5.607  -5.946  0.00  0.00    +0.001 A 
ATOM     30  C   UNL     1       4.149  -5.996  -6.162  0.00  0.00    +0.002 A 
ATOM     31  C   UNL     1       5.081  -5.916  -5.150  0.00  0.00    +0.026 A 
ENDBRANCH  21  22
BRANCH  21  32
ATOM     32  C   UNL     1       1.766  -4.973  -0.398  0.00  0.00    -0.042 A 
ATOM     33  C   UNL     1       2.702  -5.134   0.607  0.00  0.00    +0.004 A 
ATOM     34  C   UNL     1       2.419  -5.943   1.692  0.00  0.00    +0.000 A 
ATOM     35  C   UNL     1       1.204  -6.598   1.767  0.00  0.00    +0.000 A 
ATOM     36  C   UNL     1       0.271  -6.441   0.759  0.00  0.00    +0.000 A 
ATOM     37  C   UNL     1       0.552  -5.629  -0.323  0.00  0.00    +0.004 A 
ENDBRANCH  21  32
ENDBRANCH  20  21
ENDBRANCH   1  20
TORSDOF 7
