REMARK  Name = ZINC17304559
REMARK  8 active torsions:
REMARK  status: ('A' for Active; 'I' for Inactive)
REMARK    1  A    between atoms: C_12  and  C_14
REMARK    2  A    between atoms: C_14  and  C_15
REMARK    3  A    between atoms: C_15  and  C_16
REMARK    4  A    between atoms: C_16  and  C_17
REMARK    5  A    between atoms: C_17  and  C_18
REMARK    6  A    between atoms: C_18  and  N_19
REMARK    7  A    between atoms: N_19  and  S_20
REMARK    8  A    between atoms: S_20  and  C_23
REMARK                            x       y       z     vdW  Elec       q    Type
REMARK                         _______ _______ _______ _____ _____    ______ ____
ROOT
ATOM      1  C   UNL     1       5.640   0.803  -4.665  0.00  0.00    +0.002 C 
ENDROOT
BRANCH   1   2
ATOM      2  C   UNL     1       6.335   0.325  -5.941  0.00  0.00    +0.009 C 
BRANCH   2   3
ATOM      3  C   UNL     1       6.646   1.528  -6.834  0.00  0.00    +0.096 C 
BRANCH   3  15
ATOM      4  C   UNL     1      10.338  -0.477 -13.734  0.00  0.00    +0.002 A 
ATOM      5  C   UNL     1      10.398   0.844 -14.155  0.00  0.00    +0.002 A 
ATOM      6  C   UNL     1       9.887   1.851 -13.368  0.00  0.00    +0.030 A 
ATOM      7  C   UNL     1       9.305   1.542 -12.136  0.00  0.00    +0.091 A 
ATOM      8  C   UNL     1       9.247   0.203 -11.715  0.00  0.00    +0.067 A 
ATOM      9  C   UNL     1       9.766  -0.799 -12.521  0.00  0.00    +0.028 A 
ATOM     10  N   UNL     1       8.625   0.216 -10.478  0.00  0.00    -0.326 N 
ATOM     11  H   UNL     1       8.429  -0.580  -9.905  0.00  0.00    +0.169 HD
ATOM     12  C   UNL     1       8.330   1.516 -10.187  0.00  0.00    +0.200 A 
ATOM     13  N   UNL     1       8.725   2.292 -11.163  0.00  0.00    -0.214 NA
ATOM     14  N   UNL     1       7.700   1.949  -9.031  0.00  0.00    -0.256 N 
ATOM     15  C   UNL     1       7.331   1.057  -8.091  0.00  0.00    +0.219 C 
ATOM     16  O   UNL     1       7.549  -0.124  -8.256  0.00  0.00    -0.275 OA
ATOM     17  H   UNL     1       7.526   2.894  -8.899  0.00  0.00    +0.158 HD
ENDBRANCH   3  15
ENDBRANCH   2   3
ENDBRANCH   1   2
BRANCH   1  18
ATOM     18  C   UNL     1       5.330  -0.400  -3.772  0.00  0.00    +0.017 C 
BRANCH  18  19
ATOM     19  C   UNL     1       4.635   0.078  -2.495  0.00  0.00    +0.106 C 
BRANCH  19  20
ATOM     20  N   UNL     1       4.338  -1.074  -1.640  0.00  0.00    -0.190 NA
ATOM     21  H   UNL     1       4.379  -1.972  -2.005  0.00  0.00    +0.148 HD
BRANCH  20  22
ATOM     22  S   UNL     1       3.931  -0.843  -0.052  0.00  0.00    +0.059 S 
ATOM     23  O   UNL     1       4.904   0.039   0.492  0.00  0.00    -0.153 OA
ATOM     24  O   UNL     1       3.679  -2.130   0.494  0.00  0.00    -0.153 OA
BRANCH  22  25
ATOM     25  C   UNL     1       2.397   0.024  -0.027  0.00  0.00    +0.109 A 
ATOM     26  C   UNL     1       1.207  -0.680  -0.016  0.00  0.00    +0.032 A 
ATOM     27  C   UNL     1       0.002  -0.004   0.002  0.00  0.00    +0.051 A 
ATOM     28  C   UNL     1      -0.017   1.383   0.010  0.00  0.00    +0.162 A 
ATOM     29  C   UNL     1       1.179   2.090   0.002  0.00  0.00    +0.164 A 
ATOM     30  C   UNL     1       2.385   1.406  -0.018  0.00  0.00    +0.078 A 
ATOM     31  O   UNL     1       1.184   3.451   0.018  0.00  0.00    -0.485 OA
ATOM     32  C   UNL     1      -0.040   4.103  -0.340  0.00  0.00    +0.270 C 
ATOM     33  C   UNL     1      -1.189   3.413   0.408  0.00  0.00    +0.270 C 
ATOM     34  O   UNL     1      -1.212   2.035   0.019  0.00  0.00    -0.485 OA
ENDBRANCH  22  25
ENDBRANCH  20  22
ENDBRANCH  19  20
ENDBRANCH  18  19
ENDBRANCH   1  18
TORSDOF 8
