REMARK  Name = ZINC29578763
REMARK  8 active torsions:
REMARK  status: ('A' for Active; 'I' for Inactive)
REMARK    1  A    between atoms: C_1  and  C_2
REMARK    2  A    between atoms: C_5  and  N_9
REMARK    3  A    between atoms: C_6  and  C_8
REMARK    4  A    between atoms: C_13  and  C_15
REMARK    5  A    between atoms: C_15  and  C_17
REMARK    6  A    between atoms: C_15  and  N_18
REMARK    7  A    between atoms: N_18  and  C_19
REMARK    8  A    between atoms: C_22  and  N_25
REMARK                            x       y       z     vdW  Elec       q    Type
REMARK                         _______ _______ _______ _____ _____    ______ ____
ROOT
ATOM      1  N   UNL     1      12.891  -2.043  -0.394  0.00  0.00    -0.269 N 
ATOM      2  C   UNL     1      12.019  -1.030  -0.222  0.00  0.00    +0.310 C 
ATOM      3  O   UNL     1      12.360  -0.030   0.379  0.00  0.00    -0.252 OA
ATOM      4  N   UNL     1      10.768  -1.126  -0.715  0.00  0.00    -0.238 N 
ATOM      5  C   UNL     1       9.896  -0.113  -0.542  0.00  0.00    +0.240 C 
ATOM      6  O   UNL     1      10.236   0.884   0.057  0.00  0.00    -0.273 OA
ATOM      7  H   UNL     1      12.603  -2.920  -0.993  0.00  0.00    +0.156 HD
ATOM      8  H   UNL     1      10.459  -2.031  -1.258  0.00  0.00    +0.159 HD
ENDROOT
BRANCH   1  13
ATOM      9  C   UNL     1      18.043  -1.783   1.966  0.00  0.00    +0.044 C 
ATOM     10  C   UNL     1      16.675  -1.852   1.338  0.00  0.00    -0.050 A 
ATOM     11  C   UNL     1      15.990  -0.686   1.045  0.00  0.00    +0.005 A 
ATOM     12  C   UNL     1      14.736  -0.746   0.471  0.00  0.00    +0.024 A 
ATOM     13  C   UNL     1      14.162  -1.979   0.188  0.00  0.00    +0.038 A 
ATOM     14  C   UNL     1      14.849  -3.147   0.488  0.00  0.00    -0.029 A 
ATOM     15  C   UNL     1      16.106  -3.080   1.058  0.00  0.00    +0.008 A 
ATOM     16  C   UNL     1      14.227  -4.487   0.188  0.00  0.00    +0.045 C 
ENDBRANCH   1  13
BRANCH   5  17
ATOM     17  C   UNL     1       8.498  -0.221  -1.094  0.00  0.00    +0.154 C 
ATOM     18  C   UNL     1       8.560  -0.400  -2.612  0.00  0.00    +0.038 C 
BRANCH  17  19
ATOM     19  N   UNL     1       7.752   1.000  -0.776  0.00  0.00    -0.333 N 
ATOM     20  H   UNL     1       8.291   1.943  -0.601  0.00  0.00    +0.147 HD
BRANCH  19  21
ATOM     21  C   UNL     1       6.356   0.966  -0.695  0.00  0.00    +0.028 A 
ATOM     22  C   UNL     1       5.649   2.123  -0.394  0.00  0.00    +0.025 A 
ATOM     23  C   UNL     1       4.272   2.090  -0.314  0.00  0.00    +0.025 A 
ATOM     24  C   UNL     1       3.592   0.899  -0.534  0.00  0.00    +0.036 A 
ATOM     25  C   UNL     1       4.299  -0.260  -0.829  0.00  0.00    +0.025 A 
ATOM     26  C   UNL     1       5.676  -0.225  -0.916  0.00  0.00    +0.025 A 
BRANCH  24  27
ATOM     27  N   UNL     1       2.194   0.865  -0.452  0.00  0.00    -0.271 N 
ATOM     28  C   UNL     1       1.361   1.997  -0.031  0.00  0.00    +0.114 C 
ATOM     29  C   UNL     1      -0.069   1.656  -0.505  0.00  0.00    +0.029 C 
ATOM     30  C   UNL     1      -0.023   0.111  -0.559  0.00  0.00    +0.098 C 
ATOM     31  C   UNL     1       1.442  -0.210  -0.749  0.00  0.00    +0.220 C 
ATOM     32  O   UNL     1       1.877  -1.282  -1.115  0.00  0.00    -0.275 OA
ENDBRANCH  24  27
ENDBRANCH  19  21
ENDBRANCH  17  19
ENDBRANCH   5  17
TORSDOF 5
