REMARK  Name = ZINC23080085
REMARK  16 active torsions:
REMARK  status: ('A' for Active; 'I' for Inactive)
REMARK    1  A    between atoms: C_1  and  C_2
REMARK    2  A    between atoms: C_5  and  S_9
REMARK    3  A    between atoms: C_6  and  C_8
REMARK    4  A    between atoms: S_9  and  C_10
REMARK    5  A    between atoms: C_10  and  C_11
REMARK    6  A    between atoms: C_11  and  O_13
REMARK    7  A    between atoms: O_13  and  C_14
REMARK    8  A    between atoms: C_14  and  C_15
REMARK    9  A    between atoms: N_17  and  C_18
REMARK   10  A    between atoms: N_17  and  C_22
REMARK   11  A    between atoms: C_18  and  C_19
REMARK   12  A    between atoms: C_19  and  C_20
REMARK   13  A    between atoms: C_19  and  C_21
REMARK   14  A    between atoms: C_23  and  N_38
REMARK   15  A    between atoms: N_24  and  C_31
REMARK   16  A    between atoms: C_31  and  C_32
REMARK                            x       y       z     vdW  Elec       q    Type
REMARK                         _______ _______ _______ _____ _____    ______ ____
ROOT
ATOM      1  C   UNL     1       0.599  -9.207  -4.460  0.00  0.00    +0.258 C 
ATOM      2  O   UNL     1       1.011  -8.385  -5.252  0.00  0.00    -0.272 OA
ATOM      3  N   UNL     1       0.423 -10.487  -4.848  0.00  0.00    -0.261 N 
ENDROOT
BRANCH   3   4
ATOM      4  C   UNL     1       0.626 -10.851  -6.196  0.00  0.00    +0.140 A 
ATOM      5  C   UNL     1      -0.135 -10.285  -7.198  0.00  0.00    +0.128 A 
ATOM      6  N   UNL     1       0.087 -10.660  -8.503  0.00  0.00    -0.276 N 
ATOM      7  C   UNL     1       1.035 -11.567  -8.799  0.00  0.00    +0.331 A 
ATOM      8  O   UNL     1       1.216 -11.885  -9.958  0.00  0.00    -0.246 OA
ATOM      9  N   UNL     1       1.787 -12.128  -7.835  0.00  0.00    -0.273 N 
ATOM     10  H   UNL     1       2.465 -12.780  -8.075  0.00  0.00    +0.173 HD
ATOM     11  C   UNL     1       1.613 -11.793  -6.542  0.00  0.00    +0.277 A 
ATOM     12  O   UNL     1       2.304 -12.305  -5.677  0.00  0.00    -0.266 OA
BRANCH   5  13
ATOM     13  N   UNL     1      -1.104  -9.359  -6.895  0.00  0.00    -0.343 N 
ATOM     14  H   UNL     1      -1.216  -9.055  -5.981  0.00  0.00    +0.144 HD
ATOM     15  H   UNL     1      -1.677  -9.010  -7.596  0.00  0.00    +0.144 HD
ENDBRANCH   5  13
BRANCH   6  16
ATOM     16  C   UNL     1      -0.715 -10.068  -9.576  0.00  0.00    +0.163 C 
BRANCH  16  17
ATOM     17  C   UNL     1      -0.035  -8.821 -10.082  0.00  0.00    -0.028 A 
ATOM     18  C   UNL     1      -0.317  -7.597  -9.504  0.00  0.00    +0.005 A 
ATOM     19  C   UNL     1       0.306  -6.454  -9.967  0.00  0.00    +0.000 A 
ATOM     20  C   UNL     1       1.212  -6.534 -11.008  0.00  0.00    +0.000 A 
ATOM     21  C   UNL     1       1.494  -7.758 -11.586  0.00  0.00    +0.000 A 
ATOM     22  C   UNL     1       0.874  -8.902 -11.120  0.00  0.00    +0.005 A 
ENDBRANCH  16  17
ENDBRANCH   6  16
ENDBRANCH   3   4
BRANCH   1  23
ATOM     23  C   UNL     1       0.285  -8.798  -3.045  0.00  0.00    +0.328 C 
BRANCH  23  24
ATOM     24  O   UNL     1       0.551  -7.403  -2.881  0.00  0.00    -0.455 OA
BRANCH  24  25
ATOM     25  C   UNL     1       0.321  -6.877  -1.668  0.00  0.00    +0.318 C 
ATOM     26  O   UNL     1      -0.093  -7.577  -0.774  0.00  0.00    -0.250 OA
BRANCH  25  27
ATOM     27  C   UNL     1       0.578  -5.413  -1.421  0.00  0.00    +0.194 C 
BRANCH  27  28
ATOM     28  S   UNL     1       0.174  -5.010   0.301  0.00  0.00    -0.114 S 
BRANCH  28  33
ATOM     29  C   UNL     1       1.369   0.890   0.740  0.00  0.00    +0.044 C 
ATOM     30  C   UNL     1       1.071  -0.583   0.631  0.00  0.00    -0.050 A 
ATOM     31  C   UNL     1       1.269  -1.239  -0.571  0.00  0.00    +0.004 A 
ATOM     32  C   UNL     1       0.997  -2.589  -0.675  0.00  0.00    +0.015 A 
ATOM     33  C   UNL     1       0.524  -3.288   0.429  0.00  0.00    +0.011 A 
ATOM     34  C   UNL     1       0.326  -2.625   1.635  0.00  0.00    -0.037 A 
ATOM     35  C   UNL     1       0.606  -1.276   1.733  0.00  0.00    +0.007 A 
ATOM     36  C   UNL     1      -0.188  -3.378   2.834  0.00  0.00    +0.045 C 
ENDBRANCH  28  33
ENDBRANCH  27  28
ENDBRANCH  25  27
ENDBRANCH  24  25
ENDBRANCH  23  24
ENDBRANCH   1  23
BRANCH   3  37
ATOM     37  C   UNL     1       0.021 -11.500  -3.868  0.00  0.00    +0.117 C 
BRANCH  37  38
ATOM     38  C   UNL     1      -1.503 -11.508  -3.740  0.00  0.00    +0.001 C 
ATOM     39  C   UNL     1      -2.124 -11.967  -5.061  0.00  0.00    +0.009 C 
ATOM     40  C   UNL     1      -1.916 -12.468  -2.622  0.00  0.00    +0.009 C 
ENDBRANCH  37  38
ENDBRANCH   3  37
TORSDOF 12
