REMARK  Name = ZINC00946536
REMARK  9 active torsions:
REMARK  status: ('A' for Active; 'I' for Inactive)
REMARK    1  A    between atoms: C_1  and  C_2
REMARK    2  A    between atoms: C_2  and  O_3
REMARK    3  A    between atoms: O_3  and  C_4
REMARK    4  A    between atoms: C_4  and  C_6
REMARK    5  A    between atoms: C_8  and  C_20
REMARK    6  A    between atoms: C_14  and  C_15
REMARK    7  A    between atoms: C_14  and  O_19
REMARK    8  A    between atoms: C_24  and  O_26
REMARK    9  A    between atoms: O_26  and  C_27
REMARK                            x       y       z     vdW  Elec       q    Type
REMARK                         _______ _______ _______ _____ _____    ______ ____
ROOT
ATOM      1  C   UNL     1       1.537   1.276  -0.079  0.00  0.00    +0.181 C 
ATOM      2  C   UNL     1       0.086   0.814   0.094  0.00  0.00    +0.121 C 
ATOM      3  N   UNL     1      -0.437   1.336   1.357  0.00  0.00    -0.319 N 
ATOM      4  C   UNL     1       0.370   1.570   2.403  0.00  0.00    +0.133 C 
ATOM      5  S   UNL     1      -0.316   2.166   3.854  0.00  0.00    -0.019 S 
ATOM      6  N   UNL     1       1.694   1.356   2.357  0.00  0.00    -0.291 N 
ATOM      7  C   UNL     1       2.339   0.835   1.151  0.00  0.00    +0.244 C 
ATOM      8  H   UNL     1      -1.386   1.516   1.440  0.00  0.00    +0.148 HD
ATOM      9  H   UNL     1       2.234   1.550   3.139  0.00  0.00    +0.151 HD
ENDROOT
BRANCH   2  10
ATOM     10  C   UNL     1      -0.747   1.333  -1.050  0.00  0.00    -0.023 A 
ATOM     11  C   UNL     1      -1.283   2.606  -0.993  0.00  0.00    +0.006 A 
ATOM     12  C   UNL     1      -2.047   3.084  -2.040  0.00  0.00    +0.004 A 
ATOM     13  C   UNL     1      -2.278   2.291  -3.148  0.00  0.00    +0.046 A 
ATOM     14  C   UNL     1      -1.740   1.014  -3.208  0.00  0.00    +0.129 A 
ATOM     15  C   UNL     1      -0.969   0.537  -2.158  0.00  0.00    +0.051 A 
BRANCH  14  16
ATOM     16  O   UNL     1      -1.965   0.231  -4.296  0.00  0.00    -0.456 OA
BRANCH  16  17
ATOM     17  C   UNL     1      -2.723  -0.885  -4.134  0.00  0.00    +0.128 A 
ATOM     18  C   UNL     1      -3.337  -1.137  -2.915  0.00  0.00    +0.046 A 
ATOM     19  C   UNL     1      -4.110  -2.271  -2.754  0.00  0.00    +0.004 A 
ATOM     20  C   UNL     1      -4.264  -3.158  -3.803  0.00  0.00    +0.000 A 
ATOM     21  C   UNL     1      -3.650  -2.912  -5.017  0.00  0.00    +0.004 A 
ATOM     22  C   UNL     1      -2.880  -1.778  -5.185  0.00  0.00    +0.046 A 
ENDBRANCH  16  17
ENDBRANCH  14  16
ENDBRANCH   2  10
BRANCH   7  23
ATOM     23  C   UNL     1       3.764   1.383   1.055  0.00  0.00    +0.436 C 
ATOM     24  F   UNL     1       3.734   2.779   1.141  0.00  0.00    -0.166 F 
ATOM     25  F   UNL     1       4.534   0.868   2.103  0.00  0.00    -0.166 F 
ATOM     26  F   UNL     1       4.329   1.004  -0.168  0.00  0.00    -0.166 F 
ENDBRANCH   7  23
BRANCH   1  27
ATOM     27  C   UNL     1       1.579   2.777  -0.203  0.00  0.00    +0.317 C 
ATOM     28  O   UNL     1       1.240   3.470   0.727  0.00  0.00    -0.250 OA
BRANCH  27  29
ATOM     29  O   UNL     1       1.993   3.345  -1.347  0.00  0.00    -0.465 OA
BRANCH  29  31
ATOM     30  C   UNL     1       2.504   5.255  -2.768  0.00  0.00    +0.048 C 
ATOM     31  C   UNL     1       2.007   4.796  -1.396  0.00  0.00    +0.229 C 
ENDBRANCH  29  31
ENDBRANCH  27  29
ENDBRANCH   1  27
BRANCH   7  32
ATOM     32  O   UNL     1       2.379  -0.592   1.208  0.00  0.00    -0.364 OA
ATOM     33  H   UNL     1       2.872  -0.941   1.963  0.00  0.00    +0.212 HD
ENDBRANCH   7  32
TORSDOF 8
