REMARK  Name = ZINC16571563
REMARK  10 active torsions:
REMARK  status: ('A' for Active; 'I' for Inactive)
REMARK    1  A    between atoms: C_1  and  C_2
REMARK    2  A    between atoms: C_2  and  C_3
REMARK    3  A    between atoms: C_6  and  C_9
REMARK    4  A    between atoms: N_11  and  C_12
REMARK    5  A    between atoms: C_12  and  C_14
REMARK    6  A    between atoms: C_12  and  C_19
REMARK    7  A    between atoms: C_14  and  C_16
REMARK    8  A    between atoms: C_14  and  C_17
REMARK    9  A    between atoms: C_17  and  C_18
REMARK   10  A    between atoms: C_25  and  C_27
REMARK                            x       y       z     vdW  Elec       q    Type
REMARK                         _______ _______ _______ _____ _____    ______ ____
ROOT
ATOM      1  C   UNL     1      -0.067   0.985   2.528  0.00  0.00    +0.162 C 
ENDROOT
BRANCH   1   2
ATOM      2  C   UNL     1      -0.758   1.621   3.706  0.00  0.00    +0.239 C 
ATOM      3  O   UNL     1      -0.141   2.360   4.444  0.00  0.00    -0.273 OA
ATOM      4  N   UNL     1      -2.061   1.369   3.939  0.00  0.00    -0.262 N 
ATOM      5  C   UNL     1      -2.671   1.869   5.083  0.00  0.00    +0.188 A 
ATOM      6  N   UNL     1      -2.166   2.601   6.068  0.00  0.00    -0.125 NA
ATOM      7  N   UNL     1      -2.869   2.980   7.045  0.00  0.00    -0.140 NA
ATOM      8  C   UNL     1      -4.153   2.659   7.151  0.00  0.00    +0.134 A 
ATOM      9  S   UNL     1      -4.361   1.702   5.652  0.00  0.00    -0.030 S 
ATOM     10  H   UNL     1      -2.573   0.839   3.309  0.00  0.00    +0.157 HD
BRANCH   8  11
ATOM     11  C   UNL     1      -5.131   2.995   8.207  0.00  0.00    +0.009 A 
ATOM     12  C   UNL     1      -6.450   2.547   8.108  0.00  0.00    +0.012 A 
ATOM     13  C   UNL     1      -7.357   2.860   9.099  0.00  0.00    +0.016 A 
ATOM     14  C   UNL     1      -6.965   3.625  10.185  0.00  0.00    +0.018 A 
ATOM     15  C   UNL     1      -5.660   4.077  10.285  0.00  0.00    +0.016 A 
ATOM     16  C   UNL     1      -4.742   3.766   9.303  0.00  0.00    +0.012 A 
ATOM     17 BR   UNL     1      -8.217   4.055  11.535  0.00  0.00    -0.050 Br
ENDBRANCH   8  11
ENDBRANCH   1   2
BRANCH   1  20
ATOM     18  C   UNL     1       2.139   0.018   2.156  0.00  0.00    +0.245 C 
ATOM     19  O   UNL     1       1.628  -0.782   1.397  0.00  0.00    -0.270 OA
ATOM     20  N   UNL     1       1.377   0.944   2.772  0.00  0.00    -0.300 N 
ATOM     21  H   UNL     1       1.785   1.582   3.378  0.00  0.00    +0.150 HD
BRANCH  18  25
ATOM     22  C   UNL     1       6.325  -0.102   2.865  0.00  0.00    -0.048 A 
ATOM     23  C   UNL     1       5.747  -1.014   2.000  0.00  0.00    +0.004 A 
ATOM     24  C   UNL     1       4.388  -0.981   1.766  0.00  0.00    +0.013 A 
ATOM     25  C   UNL     1       3.596  -0.024   2.403  0.00  0.00    +0.037 A 
ATOM     26  C   UNL     1       4.187   0.897   3.269  0.00  0.00    +0.013 A 
ATOM     27  C   UNL     1       5.546   0.850   3.499  0.00  0.00    +0.004 A 
BRANCH  22  29
ATOM     28  C   UNL     1       8.526   0.749   2.102  0.00  0.00    +0.009 C 
ATOM     29  C   UNL     1       7.811  -0.144   3.117  0.00  0.00    +0.032 C 
ENDBRANCH  22  29
ENDBRANCH  18  25
ENDBRANCH   1  20
BRANCH   1  30
ATOM     30  C   UNL     1      -0.347   1.806   1.268  0.00  0.00    +0.015 C 
ATOM     31  C   UNL     1       0.304   3.184   1.402  0.00  0.00    +0.010 C 
BRANCH  30  32
ATOM     32  C   UNL     1       0.233   1.085   0.049  0.00  0.00    +0.002 C 
ATOM     33  C   UNL     1      -0.515  -0.233  -0.167  0.00  0.00    +0.004 C 
ENDBRANCH  30  32
ENDBRANCH   1  30
TORSDOF 7
