REMARK  Name = ZINC12857723
REMARK  10 active torsions:
REMARK  status: ('A' for Active; 'I' for Inactive)
REMARK    1  A    between atoms: C_1  and  O_2
REMARK    2  A    between atoms: O_2  and  C_3
REMARK    3  A    between atoms: C_6  and  C_12
REMARK    4  A    between atoms: C_8  and  N_9
REMARK    5  A    between atoms: N_14  and  C_15
REMARK    6  A    between atoms: C_15  and  N_17
REMARK    7  A    between atoms: N_17  and  C_18
REMARK    8  A    between atoms: C_21  and  C_24
REMARK    9  A    between atoms: C_27  and  C_29
REMARK   10  A    between atoms: C_29  and  O_30
REMARK                            x       y       z     vdW  Elec       q    Type
REMARK                         _______ _______ _______ _____ _____    ______ ____
ROOT
ATOM      1  C   UNL     1       0.293  10.822  -3.615  0.00  0.00    +0.141 C 
ATOM      2  S   UNL     1       0.287  11.050  -1.919  0.00  0.00    -0.018 S 
ENDROOT
BRANCH   1   5
ATOM      3  C   UNL     1      -0.124  13.098  -3.923  0.00  0.00    +0.250 C 
ATOM      4  O   UNL     1      -0.129  13.260  -2.718  0.00  0.00    -0.270 OA
ATOM      5  N   UNL     1       0.087  11.870  -4.437  0.00  0.00    -0.264 N 
ATOM      6  H   UNL     1       0.090  11.740  -5.398  0.00  0.00    +0.157 HD
BRANCH   3  10
ATOM      7  C   UNL     1      -0.775  16.400  -6.512  0.00  0.00    +0.150 A 
ATOM      8  C   UNL     1      -0.557  15.134  -7.044  0.00  0.00    +0.049 A 
ATOM      9  C   UNL     1      -0.340  14.062  -6.208  0.00  0.00    +0.017 A 
ATOM     10  C   UNL     1      -0.350  14.245  -4.823  0.00  0.00    +0.039 A 
ATOM     11  C   UNL     1      -0.570  15.519  -4.292  0.00  0.00    +0.049 A 
ATOM     12  C   UNL     1      -0.780  16.587  -5.135  0.00  0.00    +0.168 A 
BRANCH  12  13
ATOM     13  N   UNL     1      -1.012  17.937  -4.574  0.00  0.00    +0.060 N 
ATOM     14  O   UNL     1      -1.017  18.102  -3.367  0.00  0.00    -0.126 OA
ATOM     15  O   UNL     1      -1.198  18.883  -5.319  0.00  0.00    -0.126 OA
ENDBRANCH  12  13
BRANCH   7  17
ATOM     16  C   UNL     1      -0.965  17.192  -8.744  0.00  0.00    +0.277 C 
ATOM     17  O   UNL     1      -0.983  17.455  -7.340  0.00  0.00    -0.493 OA
ENDBRANCH   7  17
ENDBRANCH   3  10
ENDBRANCH   1   5
BRANCH   1  18
ATOM     18  N   UNL     1       0.505   9.594  -4.129  0.00  0.00    -0.297 N 
ATOM     19  H   UNL     1       0.588   9.477  -5.088  0.00  0.00    +0.154 HD
BRANCH  18  20
ATOM     20  C   UNL     1       0.603   8.488  -3.279  0.00  0.00    +0.033 A 
ATOM     21  C   UNL     1       1.575   7.520  -3.510  0.00  0.00    +0.024 A 
ATOM     22  C   UNL     1       1.674   6.429  -2.675  0.00  0.00    +0.013 A 
ATOM     23  C   UNL     1       0.799   6.296  -1.595  0.00  0.00    +0.017 A 
ATOM     24  C   UNL     1      -0.179   7.267  -1.369  0.00  0.00    +0.013 A 
ATOM     25  C   UNL     1      -0.270   8.358  -2.206  0.00  0.00    +0.024 A 
BRANCH  23  26
ATOM     26  C   UNL     1       0.903   5.127  -0.698  0.00  0.00    +0.135 A 
ATOM     27  C   UNL     1       0.117   4.878   0.384  0.00  0.00    +0.050 A 
ATOM     28  C   UNL     1       0.566   3.664   0.942  0.00  0.00    +0.047 A 
ATOM     29  C   UNL     1       1.593   3.236   0.182  0.00  0.00    +0.131 A 
ATOM     30  O   UNL     1       1.798   4.125  -0.804  0.00  0.00    -0.457 OA
BRANCH  29  31
ATOM     31  C   UNL     1       2.384   1.974   0.405  0.00  0.00    +0.230 C 
BRANCH  31  32
ATOM     32  O   UNL     1       1.773   0.896  -0.307  0.00  0.00    -0.387 OA
ATOM     33  H   UNL     1       2.230   0.050  -0.208  0.00  0.00    +0.210 HD
ENDBRANCH  31  32
ENDBRANCH  29  31
ENDBRANCH  23  26
ENDBRANCH  18  20
ENDBRANCH   1  18
TORSDOF 9
