REMARK  Name = ZINC39630982
REMARK  10 active torsions:
REMARK  status: ('A' for Active; 'I' for Inactive)
REMARK    1  A    between atoms: C_1  and  C_2
REMARK    2  A    between atoms: C_2  and  C_3
REMARK    3  A    between atoms: C_2  and  C_4
REMARK    4  A    between atoms: C_2  and  C_30
REMARK    5  A    between atoms: C_4  and  N_5
REMARK    6  A    between atoms: C_6  and  C_8
REMARK    7  A    between atoms: C_19  and  C_21
REMARK    8  A    between atoms: C_30  and  N_31
REMARK    9  A    between atoms: N_31  and  C_32
REMARK   10  A    between atoms: N_31  and  C_33
REMARK                            x       y       z     vdW  Elec       q    Type
REMARK                         _______ _______ _______ _____ _____    ______ ____
ROOT
ATOM      1  C   UNL     1      -2.966   0.006   3.842  0.00  0.00    +0.100 C 
ATOM      2  C   UNL     1      -2.940   1.542   4.001  0.00  0.00    +0.121 C 
ATOM      3  N   UNL     1      -4.356   1.957   3.864  0.00  0.00    -0.296 N 
ATOM      4  C   UNL     1      -5.118   0.908   4.583  0.00  0.00    +0.115 C 
ATOM      5  C   UNL     1      -4.396  -0.407   4.229  0.00  0.00    -0.004 C 
ATOM      6  C   UNL     1      -4.369  -1.337   5.438  0.00  0.00    -0.010 C 
ATOM      7  C   UNL     1      -5.798  -1.781   5.767  0.00  0.00    -0.082 C 
ATOM      8  N   UNL     1      -6.378  -2.469   4.607  0.00  0.00    +0.379 N 
ATOM      9  C   UNL     1      -6.486  -1.540   3.476  0.00  0.00    -0.082 C 
ATOM     10  C   UNL     1      -5.086  -1.087   3.050  0.00  0.00    -0.010 C 
ATOM     11  C   UNL     1      -4.841   3.043   3.230  0.00  0.00    +0.248 C 
ATOM     12  O   UNL     1      -4.090   3.768   2.605  0.00  0.00    -0.270 OA
ATOM     13  H   UNL     1      -5.787  -3.245   4.348  0.00  0.00    -0.086 HD
ATOM     14  H   UNL     1      -7.295  -2.813   4.846  0.00  0.00    -0.086 HD
ENDROOT
BRANCH  11  15
ATOM     15  C   UNL     1      -6.275   3.350   3.293  0.00  0.00    +0.052 A 
ATOM     16  C   UNL     1      -7.001   3.078   4.408  0.00  0.00    +0.059 A 
ATOM     17  S   UNL     1      -8.563   3.578   4.057  0.00  0.00    -0.096 S 
ATOM     18  C   UNL     1      -8.336   4.178   2.405  0.00  0.00    +0.020 A 
ATOM     19  C   UNL     1      -6.967   3.965   2.158  0.00  0.00    +0.001 A 
ATOM     20  C   UNL     1      -6.471   4.354   0.899  0.00  0.00    +0.010 A 
ATOM     21  C   UNL     1      -7.306   4.921  -0.032  0.00  0.00    +0.001 A 
ATOM     22  C   UNL     1      -8.651   5.125   0.239  0.00  0.00    +0.001 A 
ATOM     23  C   UNL     1      -9.168   4.743   1.462  0.00  0.00    +0.015 A 
ENDBRANCH  11  15
BRANCH   1  25
ATOM     24  N   UNL     1      -2.065  -1.550   2.143  0.00  0.00    -0.315 N 
ATOM     25  C   UNL     1      -2.676  -0.379   2.414  0.00  0.00    +0.218 C 
ATOM     26  O   UNL     1      -2.993   0.364   1.510  0.00  0.00    -0.275 OA
ATOM     27  H   UNL     1      -1.812  -2.144   2.866  0.00  0.00    +0.149 HD
BRANCH  24  28
ATOM     28  C   UNL     1      -1.783  -1.924   0.755  0.00  0.00    +0.108 C 
BRANCH  28  30
ATOM     29  C   UNL     1       0.222  -3.210   1.508  0.00  0.00    +0.010 C 
ATOM     30  C   UNL     1      -1.090  -3.288   0.725  0.00  0.00    -0.034 C 
ATOM     31  C   UNL     1      -2.003  -4.338   1.361  0.00  0.00    +0.010 C 
BRANCH  30  32
ATOM     32  C   UNL     1      -0.796  -3.678  -0.725  0.00  0.00    -0.072 C 
BRANCH  32  33
ATOM     33  N   UNL     1      -0.151  -4.998  -0.755  0.00  0.00    +0.376 N 
ATOM     34  C   UNL     1      -1.180  -6.046  -0.759  0.00  0.00    -0.097 C 
ATOM     35  C   UNL     1       0.671  -5.113  -1.967  0.00  0.00    -0.097 C 
ATOM     36  H   UNL     1       0.435  -5.104   0.060  0.00  0.00    -0.083 HD
ENDBRANCH  32  33
ENDBRANCH  30  32
ENDBRANCH  28  30
ENDBRANCH  24  28
ENDBRANCH   1  25
TORSDOF 6
