REMARK  Name = ZINC14476242
REMARK  8 active torsions:
REMARK  status: ('A' for Active; 'I' for Inactive)
REMARK    1  A    between atoms: C_1  and  O_2
REMARK    2  A    between atoms: O_2  and  C_3
REMARK    3  A    between atoms: C_3  and  C_4
REMARK    4  A    between atoms: C_4  and  N_5
REMARK    5  A    between atoms: C_6  and  C_8
REMARK    6  A    between atoms: C_21  and  C_24
REMARK    7  A    between atoms: C_26  and  N_31
REMARK    8  A    between atoms: C_29  and  O_30
REMARK                            x       y       z     vdW  Elec       q    Type
REMARK                         _______ _______ _______ _____ _____    ______ ____
ROOT
ATOM      1  C   UNL     1      -2.454  -4.335  -1.133  0.00  0.00    +0.037 A 
ATOM      2  C   UNL     1      -3.491  -3.409  -1.280  0.00  0.00    +0.015 A 
ATOM      3  C   UNL     1      -4.791  -3.849  -1.346  0.00  0.00    +0.024 A 
ATOM      4  C   UNL     1      -5.079  -5.213  -1.269  0.00  0.00    +0.031 A 
ATOM      5  C   UNL     1      -4.054  -6.137  -1.135  0.00  0.00    -0.019 A 
ATOM      6  C   UNL     1      -2.745  -5.698  -1.066  0.00  0.00    +0.019 A 
ATOM      7  C   UNL     1      -4.310  -7.618  -1.084  0.00  0.00    +0.049 C 
ATOM      8  C   UNL     1      -3.403  -8.282  -2.108  0.00  0.00    -0.023 C 
ATOM      9  C   UNL     1      -4.074  -8.586  -3.189  0.00  0.00    -0.030 C 
ATOM     10  C   UNL     1      -5.528  -8.187  -3.054  0.00  0.00    +0.033 C 
ATOM     11  C   UNL     1      -5.724  -7.996  -1.516  0.00  0.00    +0.029 C 
ATOM     12  C   UNL     1      -6.801  -7.008  -1.180  0.00  0.00    +0.108 C 
ATOM     13  N   UNL     1      -6.401  -5.622  -1.323  0.00  0.00    -0.336 N 
ATOM     14  H   UNL     1      -7.090  -4.949  -1.438  0.00  0.00    +0.147 HD
ENDROOT
BRANCH  12  15
ATOM     15  C   UNL     1      -7.968  -7.241  -2.104  0.00  0.00    +0.017 A 
ATOM     16  C   UNL     1      -8.088  -6.502  -3.266  0.00  0.00    +0.041 A 
ATOM     17  C   UNL     1      -9.159  -6.716  -4.114  0.00  0.00    +0.127 A 
ATOM     18  C   UNL     1     -10.112  -7.668  -3.803  0.00  0.00    +0.036 A 
ATOM     19  C   UNL     1      -9.996  -8.409  -2.643  0.00  0.00    +0.048 A 
ATOM     20  C   UNL     1      -8.919  -8.201  -1.792  0.00  0.00    +0.122 A 
BRANCH  17  21
ATOM     21  N   UNL     1      -9.285  -5.923  -5.357  0.00  0.00    +0.056 N 
ATOM     22  O   UNL     1      -8.453  -5.090  -5.630  0.00  0.00    -0.126 OA
ATOM     23  O   UNL     1     -10.221  -6.109  -6.100  0.00  0.00    -0.126 OA
ENDBRANCH  17  21
BRANCH  20  24
ATOM     24  O   UNL     1      -8.801  -8.932  -0.653  0.00  0.00    -0.506 OA
ATOM     25  H   UNL     1      -9.235  -8.537   0.115  0.00  0.00    +0.292 HD
ENDBRANCH  20  24
ENDBRANCH  12  15
BRANCH   1  27
ATOM     26  N   UNL     1      -0.776  -2.556  -1.119  0.00  0.00    -0.309 N 
ATOM     27  C   UNL     1      -1.055  -3.873  -1.054  0.00  0.00    +0.244 C 
ATOM     28  O   UNL     1      -0.154  -4.680  -0.932  0.00  0.00    -0.270 OA
ATOM     29  H   UNL     1      -1.495  -1.912  -1.217  0.00  0.00    +0.149 HD
BRANCH  26  30
ATOM     30  C   UNL     1       0.613  -2.097  -1.041  0.00  0.00    +0.132 C 
BRANCH  30  31
ATOM     31  C   UNL     1       0.652  -0.570  -1.138  0.00  0.00    +0.178 C 
BRANCH  31  33
ATOM     32  C   UNL     1      -0.017   1.425   0.010  0.00  0.00    +0.194 C 
ATOM     33  O   UNL     1       0.002  -0.004   0.002  0.00  0.00    -0.381 OA
ENDBRANCH  31  33
ENDBRANCH  30  31
ENDBRANCH  26  30
ENDBRANCH   1  27
TORSDOF 7
