REMARK  Name = ZINC32093202
REMARK  5 active torsions:
REMARK  status: ('A' for Active; 'I' for Inactive)
REMARK    1  A    between atoms: C_1  and  C_2
REMARK    2  A    between atoms: C_2  and  C_3
REMARK    3  A    between atoms: C_3  and  C_30
REMARK    4  A    between atoms: N_13  and  C_16
REMARK    5  A    between atoms: C_16  and  C_17
REMARK                            x       y       z     vdW  Elec       q    Type
REMARK                         _______ _______ _______ _____ _____    ______ ____
ROOT
ATOM      1  C   UNL     1       0.002  -0.004   0.002  0.00  0.00    +0.072 C 
ATOM      2  C   UNL     1      -1.431  -0.537   0.003  0.00  0.00    +0.090 C 
ATOM      3  C   UNL     1      -2.074  -0.264  -1.339  0.00  0.00    +0.051 A 
ATOM      4  C   UNL     1      -1.313   0.053  -2.451  0.00  0.00    +0.000 A 
ATOM      5  C   UNL     1      -1.927   0.283  -3.666  0.00  0.00    +0.020 A 
ATOM      6  C   UNL     1      -3.334   0.195  -3.758  0.00  0.00    +0.034 A 
ATOM      7  C   UNL     1      -4.176   0.400  -4.950  0.00  0.00    +0.094 A 
ATOM      8  C   UNL     1      -5.548   0.255  -4.762  0.00  0.00    +0.105 A 
ATOM      9  C   UNL     1      -6.448   0.425  -5.822  0.00  0.00    +0.269 A 
ATOM     10  O   UNL     1      -7.649   0.297  -5.653  0.00  0.00    -0.266 OA
ATOM     11  N   UNL     1      -5.945   0.737  -7.040  0.00  0.00    -0.289 N 
ATOM     12  C   UNL     1      -4.603   0.872  -7.189  0.00  0.00    +0.203 A 
ATOM     13  N   UNL     1      -3.765   0.716  -6.212  0.00  0.00    -0.236 NA
ATOM     14  S   UNL     1      -5.729  -0.146  -3.045  0.00  0.00    -0.062 S 
ATOM     15  C   UNL     1      -4.017  -0.126  -2.570  0.00  0.00    +0.111 A 
ATOM     16  N   UNL     1      -3.391  -0.339  -1.433  0.00  0.00    -0.244 NA
ATOM     17  C   UNL     1       0.188   0.155  -2.371  0.00  0.00    +0.197 C 
ATOM     18  O   UNL     1       0.664  -0.470  -1.180  0.00  0.00    -0.369 OA
ATOM     19  C   UNL     1      -0.019   1.526   0.010  0.00  0.00    +0.042 C 
ENDROOT
BRANCH   1  21
ATOM     20  C   UNL     1       2.136   0.112   1.296  0.00  0.00    +0.007 C 
ATOM     21  C   UNL     1       0.741  -0.515   1.240  0.00  0.00    +0.032 C 
ENDBRANCH   1  21
BRANCH  11  22
ATOM     22  C   UNL     1      -6.840   0.926  -8.185  0.00  0.00    +0.222 C 
BRANCH  22  23
ATOM     23  C   UNL     1      -7.042  -0.392  -8.888  0.00  0.00    +0.236 C 
ATOM     24  O   UNL     1      -6.492  -1.391  -8.473  0.00  0.00    -0.274 OA
ATOM     25  N   UNL     1      -7.833  -0.461  -9.977  0.00  0.00    -0.296 N 
ATOM     26  C   UNL     1      -8.515   0.736 -10.494  0.00  0.00    +0.136 C 
ATOM     27  C   UNL     1      -8.226   0.839 -12.000  0.00  0.00    +0.179 C 
ATOM     28  O   UNL     1      -8.559  -0.402 -12.627  0.00  0.00    -0.377 OA
ATOM     29  C   UNL     1      -7.783  -1.514 -12.174  0.00  0.00    +0.179 C 
ATOM     30  C   UNL     1      -8.045  -1.736 -10.680  0.00  0.00    +0.136 C 
ENDBRANCH  22  23
ENDBRANCH  11  22
TORSDOF 3
