REMARK  Name = ZINC64202139
REMARK  11 active torsions:
REMARK  status: ('A' for Active; 'I' for Inactive)
REMARK    1  A    between atoms: C_1  and  C_2
REMARK    2  A    between atoms: C_2  and  C_3
REMARK    3  A    between atoms: C_3  and  C_4
REMARK    4  A    between atoms: C_4  and  C_6
REMARK    5  A    between atoms: C_4  and  N_7
REMARK    6  A    between atoms: C_8  and  C_10
REMARK    7  A    between atoms: C_10  and  C_12
REMARK    8  A    between atoms: C_10  and  N_22
REMARK    9  A    between atoms: C_12  and  C_13
REMARK   10  A    between atoms: N_22  and  S_23
REMARK   11  A    between atoms: S_23  and  C_26
REMARK                            x       y       z     vdW  Elec       q    Type
REMARK                         _______ _______ _______ _____ _____    ______ ____
ROOT
ATOM      1  C   UNL     1      -2.345  -4.283  -1.025  0.00  0.00    +0.166 C 
ENDROOT
BRANCH   1   3
ATOM      2  N   UNL     1      -0.631  -2.534  -1.375  0.00  0.00    -0.311 N 
ATOM      3  C   UNL     1      -0.935  -3.763  -0.912  0.00  0.00    +0.232 C 
ATOM      4  O   UNL     1      -0.074  -4.449  -0.404  0.00  0.00    -0.274 OA
ATOM      5  H   UNL     1      -1.320  -1.985  -1.781  0.00  0.00    +0.149 HD
BRANCH   2   6
ATOM      6  C   UNL     1       0.739  -2.027  -1.265  0.00  0.00    +0.070 C 
ATOM      7  C   UNL     1       1.562  -2.520  -2.457  0.00  0.00    +0.028 C 
BRANCH   6   8
ATOM      8  C   UNL     1       0.718  -0.497  -1.257  0.00  0.00    +0.022 C 
BRANCH   8  10
ATOM      9  C   UNL     1      -0.019   1.526   0.010  0.00  0.00    +0.004 C 
ATOM     10  C   UNL     1       0.002  -0.004   0.002  0.00  0.00    -0.002 C 
ENDBRANCH   8  10
ENDBRANCH   6   8
ENDBRANCH   2   6
ENDBRANCH   1   3
BRANCH   1  11
ATOM     11  N   UNL     1      -2.415  -5.631  -0.454  0.00  0.00    -0.178 NA
ATOM     12  H   UNL     1      -2.547  -5.747   0.500  0.00  0.00    +0.149 HD
BRANCH  11  13
ATOM     13  S   UNL     1      -2.267  -6.955  -1.437  0.00  0.00    +0.059 S 
ATOM     14  O   UNL     1      -2.349  -8.097  -0.595  0.00  0.00    -0.153 OA
ATOM     15  O   UNL     1      -3.151  -6.750  -2.530  0.00  0.00    -0.153 OA
BRANCH  13  16
ATOM     16  C   UNL     1      -0.634  -6.934  -2.098  0.00  0.00    +0.105 A 
ATOM     17  C   UNL     1      -0.378  -6.274  -3.285  0.00  0.00    +0.030 A 
ATOM     18  C   UNL     1       0.902  -6.257  -3.805  0.00  0.00    +0.022 A 
ATOM     19  C   UNL     1       1.928  -6.901  -3.137  0.00  0.00    +0.041 A 
ATOM     20  C   UNL     1       1.671  -7.562  -1.949  0.00  0.00    +0.022 A 
ATOM     21  C   UNL     1       0.391  -7.573  -1.427  0.00  0.00    +0.030 A 
ATOM     22 CL   UNL     1       3.537  -6.880  -3.789  0.00  0.00    -0.084 Cl
ENDBRANCH  13  16
ENDBRANCH  11  13
ENDBRANCH   1  11
BRANCH   1  23
ATOM     23  C   UNL     1      -3.293  -3.356  -0.263  0.00  0.00    +0.063 C 
BRANCH  23  24
ATOM     24  C   UNL     1      -4.716  -3.807  -0.478  0.00  0.00    -0.040 C 
ATOM     25  C   UNL     1      -5.444  -4.612   0.329  0.00  0.00    -0.001 A 
ATOM     26  C   UNL     1      -5.141  -5.286   1.597  0.00  0.00    +0.010 A 
ATOM     27  C   UNL     1      -6.096  -6.045   2.181  0.00  0.00    +0.001 A 
ATOM     28  C   UNL     1      -7.364  -6.206   1.606  0.00  0.00    +0.002 A 
ATOM     29  C   UNL     1      -7.716  -5.619   0.442  0.00  0.00    +0.026 A 
ATOM     30  C   UNL     1      -6.790  -4.798  -0.258  0.00  0.00    +0.043 A 
ATOM     31  N   UNL     1      -6.891  -4.132  -1.383  0.00  0.00    -0.380 N 
ATOM     32  C   UNL     1      -5.620  -3.444  -1.635  0.00  0.00    +0.144 C 
ATOM     33  H   UNL     1      -7.676  -4.097  -1.952  0.00  0.00    +0.160 HD
ENDBRANCH  23  24
ENDBRANCH   1  23
TORSDOF 9
