REMARK  Name = ZINC36543167
REMARK  7 active torsions:
REMARK  status: ('A' for Active; 'I' for Inactive)
REMARK    1  A    between atoms: C_5  and  N_7
REMARK    2  A    between atoms: N_7  and  C_8
REMARK    3  A    between atoms: C_8  and  C_10
REMARK    4  A    between atoms: C_8  and  C_17
REMARK    5  A    between atoms: C_13  and  O_16
REMARK    6  A    between atoms: N_19  and  C_20
REMARK    7  A    between atoms: C_26  and  C_28
REMARK                            x       y       z     vdW  Elec       q    Type
REMARK                         _______ _______ _______ _____ _____    ______ ____
ROOT
ATOM      1  C   UNL     1       1.214  -2.668  -1.385  0.00  0.00    +0.198 C 
ENDROOT
BRANCH   1   2
ATOM      2  C   UNL     1       2.583  -2.348  -1.930  0.00  0.00    -0.018 A 
ATOM      3  C   UNL     1       2.711  -1.798  -3.192  0.00  0.00    +0.009 A 
ATOM      4  C   UNL     1       3.965  -1.504  -3.694  0.00  0.00    +0.046 A 
ATOM      5  C   UNL     1       5.094  -1.761  -2.930  0.00  0.00    +0.117 A 
ATOM      6  C   UNL     1       4.962  -2.313  -1.664  0.00  0.00    +0.046 A 
ATOM      7  C   UNL     1       3.706  -2.600  -1.165  0.00  0.00    +0.009 A 
BRANCH   5   8
ATOM      8  O   UNL     1       6.328  -1.474  -3.422  0.00  0.00    -0.507 OA
ATOM      9  H   UNL     1       6.635  -0.580  -3.217  0.00  0.00    +0.292 HD
ENDBRANCH   5   8
ENDBRANCH   1   2
BRANCH   1  10
ATOM     10  C   UNL     1       0.167  -2.267  -2.391  0.00  0.00    +0.239 C 
ATOM     11  O   UNL     1      -0.676  -1.446  -2.095  0.00  0.00    -0.273 OA
ATOM     12  N   UNL     1       0.165  -2.821  -3.620  0.00  0.00    -0.311 N 
ATOM     13  H   UNL     1       0.839  -3.478  -3.857  0.00  0.00    +0.149 HD
BRANCH  12  14
ATOM     14  C   UNL     1      -0.853  -2.431  -4.598  0.00  0.00    +0.073 C 
ATOM     15  C   UNL     1      -2.116  -3.268  -4.380  0.00  0.00    +0.022 C 
ATOM     16  C   UNL     1      -3.180  -2.861  -5.402  0.00  0.00    +0.002 C 
ATOM     17  C   UNL     1      -2.647  -3.100  -6.816  0.00  0.00    +0.000 C 
ATOM     18  C   UNL     1      -1.384  -2.264  -7.034  0.00  0.00    +0.002 C 
ATOM     19  C   UNL     1      -0.321  -2.671  -6.012  0.00  0.00    +0.022 C 
ENDBRANCH  12  14
ENDBRANCH   1  10
BRANCH   1  20
ATOM     20  N   UNL     1       1.001  -1.930  -0.137  0.00  0.00    -0.250 N 
ATOM     21  C   UNL     1       1.156  -0.592  -0.111  0.00  0.00    +0.252 C 
ATOM     22  O   UNL     1       1.381   0.015  -1.141  0.00  0.00    -0.270 OA
BRANCH  20  27
ATOM     23  C   UNL     1       1.233  -3.967   2.915  0.00  0.00    +0.002 A 
ATOM     24  C   UNL     1      -0.087  -3.971   3.328  0.00  0.00    +0.002 A 
ATOM     25  C   UNL     1      -1.047  -3.300   2.594  0.00  0.00    +0.022 A 
ATOM     26  C   UNL     1      -0.690  -2.622   1.444  0.00  0.00    +0.062 A 
ATOM     27  C   UNL     1       0.636  -2.615   1.026  0.00  0.00    +0.056 A 
ATOM     28  C   UNL     1       1.597  -3.291   1.767  0.00  0.00    +0.025 A 
ATOM     29 CL   UNL     1      -1.896  -1.780   0.521  0.00  0.00    -0.082 Cl
ENDBRANCH  20  27
BRANCH  21  30
ATOM     30  C   UNL     1       1.053   0.139   1.169  0.00  0.00    +0.037 A 
ATOM     31  C   UNL     1       1.657  -0.374   2.319  0.00  0.00    +0.014 A 
ATOM     32  C   UNL     1       1.558   0.312   3.511  0.00  0.00    +0.021 A 
ATOM     33  C   UNL     1       0.862   1.509   3.569  0.00  0.00    +0.041 A 
ATOM     34  C   UNL     1       0.261   2.022   2.431  0.00  0.00    +0.021 A 
ATOM     35  C   UNL     1       0.358   1.348   1.232  0.00  0.00    +0.014 A 
ATOM     36 CL   UNL     1       0.741   2.367   5.073  0.00  0.00    -0.084 Cl
ENDBRANCH  21  30
ENDBRANCH   1  20
TORSDOF 7
