REMARK  Name = ZINC12709068
REMARK  14 active torsions:
REMARK  status: ('A' for Active; 'I' for Inactive)
REMARK    1  A    between atoms: C_1  and  C_2
REMARK    2  A    between atoms: C_2  and  N_65
REMARK    3  A    between atoms: C_3  and  C_4
REMARK    4  A    between atoms: C_3  and  N_65
REMARK    5  A    between atoms: C_5  and  C_6
REMARK    6  A    between atoms: C_5  and  N_65
REMARK    7  A    between atoms: C_6  and  N_7
REMARK    8  A    between atoms: N_7  and  C_8
REMARK    9  A    between atoms: C_8  and  C_9
REMARK   10  A    between atoms: C_13  and  O_23
REMARK   11  A    between atoms: C_14  and  O_21
REMARK   12  A    between atoms: O_21  and  C_22
REMARK   13  A    between atoms: O_23  and  C_24
REMARK   14  A    between atoms: N_27  and  C_28
REMARK                            x       y       z     vdW  Elec       q    Type
REMARK                         _______ _______ _______ _____ _____    ______ ____
ROOT
ATOM      1  N   UNL     1      -5.723   4.377  -2.699  0.00  0.00    -0.283 N 
ATOM      2  C   UNL     1      -5.799   5.353  -3.626  0.00  0.00    +0.307 C 
ATOM      3  O   UNL     1      -5.035   6.298  -3.577  0.00  0.00    -0.252 OA
ATOM      4  N   UNL     1      -6.721   5.282  -4.606  0.00  0.00    -0.269 N 
ATOM      5  H   UNL     1      -7.375   4.565  -4.605  0.00  0.00    +0.156 HD
ENDROOT
BRANCH   4   6
ATOM      6  C   UNL     1      -6.736   6.241  -5.624  0.00  0.00    +0.036 A 
ATOM      7  C   UNL     1      -6.410   7.561  -5.341  0.00  0.00    +0.023 A 
ATOM      8  C   UNL     1      -6.420   8.505  -6.349  0.00  0.00    +0.003 A 
ATOM      9  C   UNL     1      -6.765   8.140  -7.638  0.00  0.00    +0.020 A 
ATOM     10  C   UNL     1      -7.095   6.827  -7.922  0.00  0.00    +0.043 A 
ATOM     11  C   UNL     1      -7.082   5.876  -6.918  0.00  0.00    +0.043 A 
ATOM     12 CL   UNL     1      -7.527   6.372  -9.541  0.00  0.00    -0.083 Cl
ENDBRANCH   4   6
BRANCH   1  13
ATOM     13  C   UNL     1      -6.643   3.238  -2.757  0.00  0.00    +0.091 C 
BRANCH  13  14
ATOM     14  C   UNL     1      -7.901   3.557  -1.947  0.00  0.00    -0.060 C 
BRANCH  14  15
ATOM     15  N   UNL     1      -8.827   2.409  -2.033  0.00  0.00    +0.380 N 
ATOM     16  H   UNL     1      -8.963   2.163  -3.021  0.00  0.00    -0.082 HD
BRANCH  15  18
ATOM     17  C   UNL     1      -8.025   1.576   0.152  0.00  0.00    -0.017 C 
ATOM     18  C   UNL     1      -8.256   1.245  -1.324  0.00  0.00    -0.082 C 
ENDBRANCH  15  18
BRANCH  15  19
ATOM     19  C   UNL     1     -10.134   2.768  -1.443  0.00  0.00    -0.082 C 
ATOM     20  C   UNL     1     -11.168   1.723  -1.865  0.00  0.00    -0.017 C 
ENDBRANCH  15  19
ENDBRANCH  14  15
ENDBRANCH  13  14
ENDBRANCH   1  13
BRANCH   1  21
ATOM     21  C   UNL     1      -4.720   4.455  -1.634  0.00  0.00    +0.149 C 
BRANCH  21  22
ATOM     22  C   UNL     1      -3.452   3.777  -2.087  0.00  0.00    +0.035 A 
ATOM     23  C   UNL     1      -2.448   4.513  -2.628  0.00  0.00    +0.020 A 
ATOM     24  C   UNL     1      -1.233   3.825  -3.063  0.00  0.00    +0.003 A 
ATOM     25  C   UNL     1      -0.172   4.532  -3.644  0.00  0.00    +0.059 A 
ATOM     26  C   UNL     1       0.959   3.855  -4.043  0.00  0.00    +0.162 A 
ATOM     27  C   UNL     1       1.051   2.470  -3.870  0.00  0.00    +0.163 A 
ATOM     28  C   UNL     1       0.009   1.764  -3.298  0.00  0.00    +0.075 A 
ATOM     29  C   UNL     1      -1.141   2.430  -2.895  0.00  0.00    +0.053 A 
ATOM     30  N   UNL     1      -2.194   1.741  -2.327  0.00  0.00    -0.322 N 
ATOM     31  H   UNL     1      -2.129   0.781  -2.208  0.00  0.00    +0.169 HD
ATOM     32  C   UNL     1      -3.309   2.383  -1.936  0.00  0.00    +0.254 A 
ATOM     33  O   UNL     1      -4.220   1.742  -1.439  0.00  0.00    -0.268 OA
BRANCH  27  34
ATOM     34  O   UNL     1       2.172   1.814  -4.268  0.00  0.00    -0.491 OA
ATOM     35  C   UNL     1       2.203   0.400  -4.064  0.00  0.00    +0.277 C 
ENDBRANCH  27  34
BRANCH  26  36
ATOM     36  O   UNL     1       1.992   4.537  -4.608  0.00  0.00    -0.491 OA
ATOM     37  C   UNL     1       1.834   5.949  -4.755  0.00  0.00    +0.277 C 
ENDBRANCH  26  36
ENDBRANCH  21  22
ENDBRANCH   1  21
TORSDOF 10
