REMARK  Name = ZINC66802944
REMARK  9 active torsions:
REMARK  status: ('A' for Active; 'I' for Inactive)
REMARK    1  A    between atoms: C_1  and  C_2
REMARK    2  A    between atoms: C_2  and  C_3
REMARK    3  A    between atoms: C_2  and  C_4
REMARK    4  A    between atoms: C_2  and  C_5
REMARK    5  A    between atoms: N_7  and  C_8
REMARK    6  A    between atoms: C_8  and  C_9
REMARK    7  A    between atoms: C_9  and  C_10
REMARK    8  A    between atoms: N_12  and  C_13
REMARK    9  A    between atoms: C_16  and  C_19
REMARK                            x       y       z     vdW  Elec       q    Type
REMARK                         _______ _______ _______ _____ _____    ______ ____
ROOT
ATOM      1  C   UNL     1       2.963  -6.125  -5.310  0.00  0.00    +0.033 A 
ATOM      2  C   UNL     1       3.554  -5.257  -6.222  0.00  0.00    +0.024 A 
ATOM      3  C   UNL     1       4.112  -5.749  -7.381  0.00  0.00    +0.013 A 
ATOM      4  C   UNL     1       4.084  -7.120  -7.641  0.00  0.00    +0.019 A 
ATOM      5  C   UNL     1       3.490  -7.989  -6.724  0.00  0.00    +0.013 A 
ATOM      6  C   UNL     1       2.938  -7.491  -5.563  0.00  0.00    +0.024 A 
ENDROOT
BRANCH   4   7
ATOM      7  C   UNL     1       4.682  -7.651  -8.884  0.00  0.00    +0.164 A 
ATOM      8  N   UNL     1       4.464  -8.836  -9.418  0.00  0.00    -0.129 NA
ATOM      9  N   UNL     1       5.151  -8.960 -10.501  0.00  0.00    -0.134 NA
ATOM     10  C   UNL     1       5.836  -7.878 -10.717  0.00  0.00    +0.134 A 
ATOM     11  N   UNL     1       5.559  -7.009  -9.702  0.00  0.00    -0.311 N 
ATOM     12  C   UNL     1       6.128  -5.669  -9.571  0.00  0.00    +0.125 C 
ATOM     13  C   UNL     1       7.359  -5.567 -10.479  0.00  0.00    +0.022 C 
ATOM     14  C   UNL     1       7.001  -6.050 -11.887  0.00  0.00    +0.009 C 
ATOM     15  C   UNL     1       6.774  -7.569 -11.857  0.00  0.00    +0.076 C 
ENDBRANCH   4   7
BRANCH   1  18
ATOM     16  C   UNL     1       1.772  -4.428  -4.144  0.00  0.00    +0.219 C 
ATOM     17  O   UNL     1       1.772  -3.752  -5.151  0.00  0.00    -0.275 OA
ATOM     18  N   UNL     1       2.397  -5.622  -4.135  0.00  0.00    -0.285 N 
ATOM     19  H   UNL     1       2.455  -6.133  -3.312  0.00  0.00    +0.155 HD
BRANCH  16  20
ATOM     20  C   UNL     1       1.074  -3.934  -2.904  0.00  0.00    +0.115 C 
BRANCH  20  21
ATOM     21  C   UNL     1       0.451  -2.564  -3.182  0.00  0.00    +0.113 C 
BRANCH  21  24
ATOM     22  C   UNL     1      -0.853  -0.889  -1.985  0.00  0.00    +0.218 C 
ATOM     23  O   UNL     1      -0.853  -0.213  -2.992  0.00  0.00    -0.275 OA
ATOM     24  N   UNL     1      -0.228  -2.083  -1.976  0.00  0.00    -0.314 N 
ATOM     25  H   UNL     1      -0.228  -2.624  -1.171  0.00  0.00    +0.149 HD
BRANCH  22  27
ATOM     26  C   UNL     1      -2.175   0.975  -1.022  0.00  0.00    +0.020 C 
ATOM     27  C   UNL     1      -1.552  -0.395  -0.745  0.00  0.00    +0.039 C 
ATOM     28  C   UNL     1      -0.540  -0.273   0.396  0.00  0.00    +0.020 C 
ATOM     29  C   UNL     1      -2.650  -1.384  -0.350  0.00  0.00    +0.020 C 
ENDBRANCH  22  27
ENDBRANCH  21  24
ENDBRANCH  20  21
ENDBRANCH  16  20
ENDBRANCH   1  18
TORSDOF 6
