REMARK  Name = ZINC08324899
REMARK  8 active torsions:
REMARK  status: ('A' for Active; 'I' for Inactive)
REMARK    1  A    between atoms: C_1  and  C_2
REMARK    2  A    between atoms: C_3  and  C_28
REMARK    3  A    between atoms: C_4  and  C_27
REMARK    4  A    between atoms: C_7  and  C_8
REMARK    5  A    between atoms: C_8  and  C_10
REMARK    6  A    between atoms: C_10  and  N_55
REMARK    7  A    between atoms: C_13  and  N_16
REMARK    8  A    between atoms: C_28  and  C_30
REMARK                            x       y       z     vdW  Elec       q    Type
REMARK                         _______ _______ _______ _____ _____    ______ ____
ROOT
ATOM      1  C   UNL     1      -0.296   1.546  -0.164  0.00  0.00    -0.076 C 
ATOM      2  C   UNL     1       1.048   2.272  -0.265  0.00  0.00    +0.006 C 
ATOM      3  C   UNL     1       1.803   1.768  -1.498  0.00  0.00    +0.089 C 
ATOM      4  C   UNL     1       1.988   0.252  -1.389  0.00  0.00    +0.006 C 
ATOM      5  C   UNL     1       0.617  -0.416  -1.256  0.00  0.00    -0.076 C 
ATOM      6  N   UNL     1      -0.048   0.094  -0.038  0.00  0.00    +0.385 N 
ATOM      7  H   UNL     1       0.565  -0.071   0.770  0.00  0.00    -0.081 HD
ENDROOT
BRANCH   3   8
ATOM      8  N   UNL     1       3.115   2.417  -1.568  0.00  0.00    -0.289 N 
ATOM      9  C   UNL     1       3.576   3.211  -2.616  0.00  0.00    +0.070 A 
ATOM     10  C   UNL     1       3.019   3.617  -3.819  0.00  0.00    +0.028 A 
ATOM     11  C   UNL     1       3.742   4.425  -4.673  0.00  0.00    +0.002 A 
ATOM     12  C   UNL     1       5.021   4.833  -4.333  0.00  0.00    +0.002 A 
ATOM     13  C   UNL     1       5.584   4.434  -3.137  0.00  0.00    +0.028 A 
ATOM     14  C   UNL     1       4.866   3.622  -2.273  0.00  0.00    +0.067 A 
ATOM     15  N   UNL     1       5.148   3.065  -1.028  0.00  0.00    -0.306 N 
ATOM     16  H   UNL     1       5.974   3.175  -0.531  0.00  0.00    +0.170 HD
ATOM     17  C   UNL     1       4.078   2.353  -0.629  0.00  0.00    +0.328 A 
ATOM     18  O   UNL     1       3.994   1.741   0.419  0.00  0.00    -0.247 OA
ENDBRANCH   3   8
BRANCH   6  19
ATOM     19  C   UNL     1      -1.325  -0.619   0.175  0.00  0.00    +0.004 C 
BRANCH  19  20
ATOM     20  C   UNL     1      -1.865  -0.251   1.533  0.00  0.00    +0.163 C 
ATOM     21  O   UNL     1      -1.209   0.449   2.278  0.00  0.00    -0.293 OA
BRANCH  20  28
ATOM     22  C   UNL     1      -3.185   0.361   4.279  0.00  0.00    +0.047 C 
ATOM     23  C   UNL     1      -3.745  -0.464   3.149  0.00  0.00    -0.012 A 
ATOM     24  C   UNL     1      -4.995  -1.123   3.126  0.00  0.00    +0.041 A 
ATOM     25  C   UNL     1      -5.096  -1.763   1.899  0.00  0.00    +0.024 A 
ATOM     26  N   UNL     1      -3.982  -1.519   1.195  0.00  0.00    -0.355 N 
ATOM     27  H   UNL     1      -3.799  -1.851   0.303  0.00  0.00    +0.166 HD
ATOM     28  C   UNL     1      -3.137  -0.720   1.940  0.00  0.00    +0.084 A 
ATOM     29  C   UNL     1      -6.263  -2.596   1.436  0.00  0.00    +0.064 C 
BRANCH  24  30
ATOM     30  C   UNL     1      -5.995  -1.132   4.198  0.00  0.00    +0.162 C 
ATOM     31  O   UNL     1      -5.994  -2.023   5.022  0.00  0.00    -0.292 OA
ATOM     32  C   UNL     1      -7.025  -0.035   4.277  0.00  0.00    +0.091 C 
ENDBRANCH  24  30
ENDBRANCH  20  28
ENDBRANCH  19  20
ENDBRANCH   6  19
TORSDOF 5
