REMARK  Name = ZINC36483684
REMARK  7 active torsions:
REMARK  status: ('A' for Active; 'I' for Inactive)
REMARK    1  A    between atoms: C_3  and  N_8
REMARK    2  A    between atoms: N_8  and  C_9
REMARK    3  A    between atoms: C_9  and  C_11
REMARK    4  A    between atoms: C_9  and  C_21
REMARK    5  A    between atoms: C_13  and  N_18
REMARK    6  A    between atoms: N_23  and  C_24
REMARK    7  A    between atoms: C_30  and  C_32
REMARK                            x       y       z     vdW  Elec       q    Type
REMARK                         _______ _______ _______ _____ _____    ______ ____
ROOT
ATOM      1  C   UNL     1       4.900   1.315   0.040  0.00  0.00    +0.199 C 
ENDROOT
BRANCH   1   2
ATOM      2  C   UNL     1       5.135   0.443   1.247  0.00  0.00    +0.003 A 
ATOM      3  C   UNL     1       4.060  -0.074   1.946  0.00  0.00    +0.040 A 
ATOM      4  C   UNL     1       4.274  -0.873   3.053  0.00  0.00    +0.127 A 
ATOM      5  C   UNL     1       5.564  -1.155   3.463  0.00  0.00    +0.034 A 
ATOM      6  C   UNL     1       6.640  -0.639   2.765  0.00  0.00    +0.022 A 
ATOM      7  C   UNL     1       6.426   0.156   1.653  0.00  0.00    +0.047 A 
ATOM      8 CL   UNL     1       7.776   0.798   0.771  0.00  0.00    -0.083 Cl
BRANCH   4   9
ATOM      9  N   UNL     1       3.123  -1.425   3.801  0.00  0.00    +0.056 N 
ATOM     10  O   UNL     1       1.995  -1.178   3.443  0.00  0.00    -0.126 OA
ATOM     11  O   UNL     1       3.310  -2.124   4.769  0.00  0.00    -0.126 OA
ENDBRANCH   4   9
ENDBRANCH   1   2
BRANCH   1  12
ATOM     12  C   UNL     1       5.041   0.488  -1.212  0.00  0.00    +0.239 C 
ATOM     13  O   UNL     1       4.245   0.618  -2.118  0.00  0.00    -0.273 OA
ATOM     14  N   UNL     1       6.051  -0.398  -1.325  0.00  0.00    -0.311 N 
ATOM     15  H   UNL     1       6.688  -0.502  -0.600  0.00  0.00    +0.149 HD
BRANCH  14  16
ATOM     16  C   UNL     1       6.188  -1.202  -2.542  0.00  0.00    +0.073 C 
ATOM     17  C   UNL     1       5.305  -2.446  -2.432  0.00  0.00    +0.022 C 
ATOM     18  C   UNL     1       5.447  -3.286  -3.703  0.00  0.00    +0.002 C 
ATOM     19  C   UNL     1       6.908  -3.710  -3.873  0.00  0.00    +0.000 C 
ATOM     20  C   UNL     1       7.791  -2.466  -3.982  0.00  0.00    +0.002 C 
ATOM     21  C   UNL     1       7.648  -1.626  -2.711  0.00  0.00    +0.022 C 
ENDBRANCH  14  16
ENDBRANCH   1  12
BRANCH   1  22
ATOM     22  N   UNL     1       3.551   1.882   0.102  0.00  0.00    -0.249 N 
ATOM     23  C   UNL     1       3.237   2.771   1.064  0.00  0.00    +0.287 C 
ATOM     24  O   UNL     1       4.094   3.161   1.835  0.00  0.00    -0.266 OA
BRANCH  22  27
ATOM     25  C   UNL     1       1.093  -0.151  -1.727  0.00  0.00    +0.003 A 
ATOM     26  C   UNL     1       2.043   0.224  -0.797  0.00  0.00    +0.023 A 
ATOM     27  C   UNL     1       2.589   1.500  -0.839  0.00  0.00    +0.039 A 
ATOM     28  C   UNL     1       2.176   2.397  -1.815  0.00  0.00    +0.043 A 
ATOM     29  C   UNL     1       1.225   2.017  -2.743  0.00  0.00    +0.043 A 
ATOM     30  C   UNL     1       0.683   0.744  -2.698  0.00  0.00    +0.020 A 
ATOM     31 CL   UNL     1       0.707   3.137  -3.964  0.00  0.00    -0.083 Cl
ENDBRANCH  22  27
BRANCH  23  32
ATOM     32  C   UNL     1       1.863   3.269   1.183  0.00  0.00    +0.190 A 
ATOM     33  C   UNL     1       1.432   4.239   2.042  0.00  0.00    +0.054 A 
ATOM     34  C   UNL     1       0.056   4.396   1.816  0.00  0.00    +0.042 A 
ATOM     35  C   UNL     1      -0.289   3.526   0.840  0.00  0.00    +0.196 A 
ATOM     36  O   UNL     1       0.804   2.853   0.458  0.00  0.00    -0.458 OA
ENDBRANCH  23  32
ENDBRANCH   1  22
TORSDOF 7
