REMARK  Name = ZINC31749270
REMARK  12 active torsions:
REMARK  status: ('A' for Active; 'I' for Inactive)
REMARK    1  A    between atoms: C_1  and  C_2
REMARK    2  A    between atoms: C_2  and  C_3
REMARK    3  A    between atoms: C_2  and  C_4
REMARK    4  A    between atoms: C_4  and  C_5
REMARK    5  A    between atoms: C_5  and  C_7
REMARK    6  A    between atoms: C_5  and  N_22
REMARK    7  A    between atoms: N_9  and  C_10
REMARK    8  A    between atoms: C_10  and  C_11
REMARK    9  A    between atoms: C_15  and  S_17
REMARK   10  A    between atoms: S_17  and  N_20
REMARK   11  A    between atoms: N_20  and  C_21
REMARK   12  A    between atoms: C_23  and  C_25
REMARK                            x       y       z     vdW  Elec       q    Type
REMARK                         _______ _______ _______ _____ _____    ______ ____
ROOT
ATOM      1  C   UNL     1      -4.354  -5.051  -6.032  0.00  0.00    +0.159 C 
ENDROOT
BRANCH   1   2
ATOM      2  C   UNL     1      -3.349  -3.939  -6.194  0.00  0.00    +0.234 C 
ATOM      3  O   UNL     1      -2.568  -3.959  -7.121  0.00  0.00    -0.274 OA
ATOM      4  N   UNL     1      -3.319  -2.924  -5.308  0.00  0.00    -0.310 N 
ATOM      5  H   UNL     1      -4.069  -2.872  -4.505  0.00  0.00    +0.149 HD
BRANCH   4   6
ATOM      6  C   UNL     1      -2.288  -1.889  -5.415  0.00  0.00    +0.139 C 
BRANCH   6   7
ATOM      7  C   UNL     1      -2.475  -0.877  -4.314  0.00  0.00    -0.028 A 
ATOM      8  C   UNL     1      -3.279   0.228  -4.520  0.00  0.00    +0.005 A 
ATOM      9  C   UNL     1      -3.451   1.156  -3.510  0.00  0.00    +0.002 A 
ATOM     10  C   UNL     1      -2.822   0.976  -2.292  0.00  0.00    +0.028 A 
ATOM     11  C   UNL     1      -2.014  -0.127  -2.087  0.00  0.00    +0.106 A 
ATOM     12  C   UNL     1      -1.843  -1.055  -3.097  0.00  0.00    +0.033 A 
BRANCH  11  13
ATOM     13  S   UNL     1      -1.209  -0.353  -0.537  0.00  0.00    +0.058 S 
ATOM     14  O   UNL     1      -0.952  -1.745  -0.412  0.00  0.00    -0.153 OA
ATOM     15  O   UNL     1      -1.966   0.370   0.424  0.00  0.00    -0.153 OA
BRANCH  13  16
ATOM     16  N   UNL     1       0.266   0.393  -0.637  0.00  0.00    -0.193 NA
ATOM     17  C   UNL     1       0.341   1.847  -0.800  0.00  0.00    +0.127 C 
ATOM     18  H   UNL     1       1.173  -0.220  -0.747  0.00  0.00    +0.148 HD
ENDBRANCH  13  16
ENDBRANCH  11  13
ENDBRANCH   6   7
ENDBRANCH   4   6
ENDBRANCH   1   2
BRANCH   1  19
ATOM     19  N   UNL     1      -4.302  -5.930  -7.202  0.00  0.00    -0.300 N 
ATOM     20  C   UNL     1      -5.405  -6.601  -7.590  0.00  0.00    +0.246 C 
ATOM     21  O   UNL     1      -6.464  -6.408  -7.026  0.00  0.00    -0.270 OA
ATOM     22  H   UNL     1      -3.364  -6.043  -7.764  0.00  0.00    +0.150 HD
BRANCH  20  23
ATOM     23  C   UNL     1      -5.326  -7.572  -8.701  0.00  0.00    +0.055 A 
ATOM     24  C   UNL     1      -4.111  -7.796  -9.351  0.00  0.00    +0.016 A 
ATOM     25  C   UNL     1      -4.043  -8.703 -10.387  0.00  0.00    +0.021 A 
ATOM     26  C   UNL     1      -5.178  -9.392 -10.785  0.00  0.00    +0.042 A 
ATOM     27  C   UNL     1      -6.386  -9.174 -10.146  0.00  0.00    +0.040 A 
ATOM     28  C   UNL     1      -6.466  -8.273  -9.102  0.00  0.00    +0.054 A 
ATOM     29 CL   UNL     1      -7.980  -8.007  -8.296  0.00  0.00    -0.083 Cl
ATOM     30 CL   UNL     1      -5.084 -10.532 -12.091  0.00  0.00    -0.083 Cl
ENDBRANCH  20  23
ENDBRANCH   1  19
BRANCH   1  31
ATOM     31  C   UNL     1      -4.026  -5.856  -4.773  0.00  0.00    +0.034 C 
BRANCH  31  33
ATOM     32  C   UNL     1      -5.742  -4.678  -3.392  0.00  0.00    +0.007 C 
ATOM     33  C   UNL     1      -4.250  -4.984  -3.536  0.00  0.00    -0.015 C 
ATOM     34  C   UNL     1      -3.759  -5.728  -2.292  0.00  0.00    +0.007 C 
ENDBRANCH  31  33
ENDBRANCH   1  31
TORSDOF 9
