REMARK  Name = ZINC32732930
REMARK  16 active torsions:
REMARK  status: ('A' for Active; 'I' for Inactive)
REMARK    1  A    between atoms: C_1  and  C_2
REMARK    2  A    between atoms: C_2  and  C_3
REMARK    3  A    between atoms: C_6  and  C_9
REMARK    4  A    between atoms: C_9  and  C_11
REMARK    5  A    between atoms: C_9  and  N_33
REMARK    6  A    between atoms: C_11  and  N_12
REMARK    7  A    between atoms: C_13  and  C_15
REMARK    8  A    between atoms: C_15  and  C_17
REMARK    9  A    between atoms: C_15  and  N_21
REMARK   10  A    between atoms: C_17  and  C_18
REMARK   11  A    between atoms: C_18  and  S_19
REMARK   12  A    between atoms: S_19  and  C_20
REMARK   13  A    between atoms: C_22  and  C_24
REMARK   14  A    between atoms: C_28  and  N_30
REMARK   15  A    between atoms: N_33  and  C_34
REMARK   16  A    between atoms: N_33  and  C_35
REMARK                            x       y       z     vdW  Elec       q    Type
REMARK                         _______ _______ _______ _____ _____    ______ ____
ROOT
ATOM      1  N   UNL     1       3.266  -3.747   6.205  0.00  0.00    -0.315 N 
ATOM      2  C   UNL     1       3.276  -5.034   6.607  0.00  0.00    +0.233 C 
ATOM      3  O   UNL     1       2.687  -5.875   5.963  0.00  0.00    -0.274 OA
ATOM      4  H   UNL     1       3.737  -3.074   6.720  0.00  0.00    +0.149 HD
ENDROOT
BRANCH   1   5
ATOM      5  C   UNL     1       2.543  -3.366   4.989  0.00  0.00    +0.093 C 
BRANCH   5   6
ATOM      6  C   UNL     1       2.798  -1.888   4.687  0.00  0.00    -0.021 C 
BRANCH   6  10
ATOM      7  C   UNL     1       6.931  -1.317   3.769  0.00  0.00    -0.048 A 
ATOM      8  C   UNL     1       6.454  -1.011   5.030  0.00  0.00    +0.004 A 
ATOM      9  C   UNL     1       5.117  -1.195   5.327  0.00  0.00    +0.002 A 
ATOM     10  C   UNL     1       4.256  -1.685   4.362  0.00  0.00    -0.059 A 
ATOM     11  C   UNL     1       4.732  -1.990   3.101  0.00  0.00    +0.002 A 
ATOM     12  C   UNL     1       6.069  -1.802   2.803  0.00  0.00    +0.004 A 
BRANCH   7  14
ATOM     13  C   UNL     1       8.601   0.302   2.909  0.00  0.00    +0.009 C 
ATOM     14  C   UNL     1       8.389  -1.115   3.445  0.00  0.00    +0.032 C 
ENDBRANCH   7  14
ENDBRANCH   6  10
BRANCH   6  15
ATOM     15  N   UNL     1       1.980  -1.474   3.539  0.00  0.00    +0.382 N 
ATOM     16  C   UNL     1       0.558  -1.655   3.861  0.00  0.00    -0.096 C 
ATOM     17  C   UNL     1       2.238  -0.060   3.238  0.00  0.00    -0.096 C 
ATOM     18  H   UNL     1       2.217  -2.038   2.736  0.00  0.00    -0.082 HD
ENDBRANCH   6  15
ENDBRANCH   5   6
ENDBRANCH   1   5
BRANCH   2  19
ATOM     19  C   UNL     1       4.019  -5.426   7.858  0.00  0.00    +0.160 C 
BRANCH  19  20
ATOM     20  N   UNL     1       3.879  -6.868   8.077  0.00  0.00    -0.300 N 
ATOM     21  C   UNL     1       4.810  -7.535   8.786  0.00  0.00    +0.245 C 
ATOM     22  O   UNL     1       5.767  -6.941   9.244  0.00  0.00    -0.270 OA
ATOM     23  H   UNL     1       3.115  -7.342   7.712  0.00  0.00    +0.150 HD
BRANCH  21  24
ATOM     24  C   UNL     1       4.668  -8.990   9.008  0.00  0.00    +0.039 A 
ATOM     25  C   UNL     1       3.573  -9.676   8.479  0.00  0.00    +0.013 A 
ATOM     26  C   UNL     1       3.447 -11.034   8.689  0.00  0.00    +0.003 A 
ATOM     27  C   UNL     1       4.402 -11.715   9.422  0.00  0.00    +0.033 A 
ATOM     28  C   UNL     1       5.489 -11.041   9.950  0.00  0.00    +0.127 A 
ATOM     29  C   UNL     1       5.631  -9.685   9.742  0.00  0.00    +0.045 A 
BRANCH  28  30
ATOM     30  N   UNL     1       6.506 -11.778  10.733  0.00  0.00    +0.056 N 
ATOM     31  O   UNL     1       6.386 -12.968  10.912  0.00  0.00    -0.126 OA
ATOM     32  O   UNL     1       7.457 -11.191  11.194  0.00  0.00    -0.126 OA
ENDBRANCH  28  30
ENDBRANCH  21  24
ENDBRANCH  19  20
BRANCH  19  33
ATOM     33  C   UNL     1       3.440  -4.669   9.054  0.00  0.00    +0.042 C 
BRANCH  33  34
ATOM     34  C   UNL     1       4.273  -4.972  10.301  0.00  0.00    +0.071 C 
BRANCH  34  35
ATOM     35  S   UNL     1       3.586  -4.074  11.720  0.00  0.00    -0.164 S 
ATOM     36  C   UNL     1       4.672  -4.534  13.098  0.00  0.00    +0.084 C 
ENDBRANCH  34  35
ENDBRANCH  33  34
ENDBRANCH  19  33
ENDBRANCH   2  19
TORSDOF 12
