REMARK  Name = ZINC03075056
REMARK  9 active torsions:
REMARK  status: ('A' for Active; 'I' for Inactive)
REMARK    1  A    between atoms: C_1  and  C_2
REMARK    2  A    between atoms: C_6  and  C_29
REMARK    3  A    between atoms: C_7  and  O_8
REMARK    4  A    between atoms: O_8  and  C_9
REMARK    5  A    between atoms: C_9  and  C_10
REMARK    6  A    between atoms: N_12  and  N_13
REMARK    7  A    between atoms: C_14  and  C_15
REMARK    8  A    between atoms: C_18  and  C_20
REMARK    9  A    between atoms: C_24  and  N_26
REMARK                            x       y       z     vdW  Elec       q    Type
REMARK                         _______ _______ _______ _____ _____    ______ ____
ROOT
ATOM      1  N   UNL     1       2.782   8.290   0.022  0.00  0.00    -0.185 NA
ATOM      2  C   UNL     1       1.464   8.451   0.035  0.00  0.00    +0.176 C 
ENDROOT
BRANCH   2   3
ATOM      3  C   UNL     1       0.629   7.341   0.037  0.00  0.00    +0.148 A 
ATOM      4  C   UNL     1      -0.842   7.357   0.051  0.00  0.00    +0.051 A 
ATOM      5  C   UNL     1      -1.237   6.059   0.047  0.00  0.00    +0.050 A 
ATOM      6  C   UNL     1      -0.069   5.256   0.031  0.00  0.00    +0.136 A 
ATOM      7  O   UNL     1       1.017   6.047   0.032  0.00  0.00    -0.454 OA
BRANCH   6   8
ATOM      8  C   UNL     1      -0.050   3.839   0.023  0.00  0.00    +0.019 A 
ATOM      9  C   UNL     1      -1.257   3.113   0.031  0.00  0.00    +0.012 A 
ATOM     10  C   UNL     1      -1.226   1.748   0.017  0.00  0.00    +0.003 A 
ATOM     11  C   UNL     1      -0.013   1.076   0.008  0.00  0.00    +0.033 A 
ATOM     12  C   UNL     1       1.182   1.780   0.000  0.00  0.00    +0.127 A 
ATOM     13  C   UNL     1       1.176   3.147   0.008  0.00  0.00    +0.044 A 
BRANCH  12  14
ATOM     14  N   UNL     1       2.469   1.049  -0.015  0.00  0.00    +0.056 N 
ATOM     15  O   UNL     1       2.478  -0.268  -0.022  0.00  0.00    -0.126 OA
ATOM     16  O   UNL     1       3.605   1.716  -0.023  0.00  0.00    -0.126 OA
ENDBRANCH  12  14
ENDBRANCH   6   8
ENDBRANCH   2   3
BRANCH   1  19
ATOM     17  C   UNL     1       4.895   9.157   0.007  0.00  0.00    +0.270 C 
ATOM     18  O   UNL     1       5.368   8.045  -0.004  0.00  0.00    -0.270 OA
ATOM     19  N   UNL     1       3.558   9.320   0.021  0.00  0.00    -0.204 N 
ATOM     20  H   UNL     1       3.178  10.213   0.029  0.00  0.00    +0.177 HD
BRANCH  17  21
ATOM     21  C   UNL     1       5.801  10.361   0.006  0.00  0.00    +0.326 C 
BRANCH  21  22
ATOM     22  O   UNL     1       7.164   9.932  -0.010  0.00  0.00    -0.482 OA
BRANCH  22  29
ATOM     23  C   UNL     1       8.062  10.866  -2.520  0.00  0.00    +0.047 C 
ATOM     24  C   UNL     1       8.596  11.399  -1.216  0.00  0.00    -0.007 A 
ATOM     25  C   UNL     1       9.561  12.389  -1.217  0.00  0.00    +0.022 A 
ATOM     26  C   UNL     1      10.056  12.875  -0.020  0.00  0.00    +0.019 A 
ATOM     27  C   UNL     1       9.583  12.375   1.180  0.00  0.00    +0.022 A 
ATOM     28  C   UNL     1       8.615  11.390   1.186  0.00  0.00    -0.007 A 
ATOM     29  C   UNL     1       8.117  10.901  -0.013  0.00  0.00    +0.127 A 
ATOM     30  C   UNL     1       8.100  10.846   2.494  0.00  0.00    +0.047 C 
ATOM     31 BR   UNL     1      11.381  14.224  -0.025  0.00  0.00    -0.050 Br
ENDBRANCH  22  29
ENDBRANCH  21  22
ENDBRANCH  17  21
ENDBRANCH   1  19
TORSDOF 7
