REMARK  Name = ZINC40097297
REMARK  10 active torsions:
REMARK  status: ('A' for Active; 'I' for Inactive)
REMARK    1  A    between atoms: C_1  and  C_2
REMARK    2  A    between atoms: C_2  and  C_27
REMARK    3  A    between atoms: C_4  and  N_10
REMARK    4  A    between atoms: C_6  and  C_8
REMARK    5  A    between atoms: C_6  and  C_9
REMARK    6  A    between atoms: N_13  and  C_14
REMARK    7  A    between atoms: C_18  and  S_20
REMARK    8  A    between atoms: S_20  and  N_23
REMARK    9  A    between atoms: N_23  and  C_24
REMARK   10  A    between atoms: N_23  and  C_25
REMARK                            x       y       z     vdW  Elec       q    Type
REMARK                         _______ _______ _______ _____ _____    ______ ____
ROOT
ATOM      1  N   UNL     1      -3.546  -0.650   0.735  0.00  0.00    -0.296 N 
ATOM      2  C   UNL     1      -4.527  -0.266   1.575  0.00  0.00    +0.304 C 
ATOM      3  O   UNL     1      -4.314   0.595   2.406  0.00  0.00    -0.253 OA
ATOM      4  N   UNL     1      -5.746  -0.836   1.493  0.00  0.00    -0.269 N 
ATOM      5  H   UNL     1      -3.716  -1.337   0.071  0.00  0.00    +0.151 HD
ATOM      6  H   UNL     1      -5.937  -1.472   0.786  0.00  0.00    +0.156 HD
ENDROOT
BRANCH   1  10
ATOM      7  C   UNL     1      -0.227   2.002  -0.429  0.00  0.00    -0.010 C 
ATOM      8  C   UNL     1      -0.124   0.473  -0.460  0.00  0.00    -0.072 C 
ATOM      9  C   UNL     1      -1.519  -0.137  -0.532  0.00  0.00    +0.009 C 
ATOM     10  C   UNL     1      -2.219  -0.028   0.824  0.00  0.00    +0.072 C 
ATOM     11  C   UNL     1      -1.378  -0.781   1.855  0.00  0.00    +0.009 C 
ATOM     12  C   UNL     1       0.019  -0.176   1.945  0.00  0.00    -0.072 C 
ATOM     13  N   UNL     1       0.665  -0.025   0.653  0.00  0.00    +0.386 N 
ATOM     14  C   UNL     1       0.884  -1.137   2.794  0.00  0.00    -0.010 C 
ATOM     15  C   UNL     1      -0.041   1.158   2.697  0.00  0.00    -0.010 C 
ATOM     16  C   UNL     1       0.614   0.096  -1.766  0.00  0.00    -0.010 C 
ATOM     17  H   UNL     1       1.060  -0.932   0.385  0.00  0.00    -0.084 HD
ATOM     18  H   UNL     1       1.478   0.588   0.770  0.00  0.00    -0.084 HD
ENDBRANCH   1  10
BRANCH   4  19
ATOM     19  C   UNL     1      -6.735  -0.511   2.429  0.00  0.00    +0.037 A 
ATOM     20  C   UNL     1      -7.632  -1.480   2.858  0.00  0.00    +0.025 A 
ATOM     21  C   UNL     1      -8.607  -1.156   3.781  0.00  0.00    +0.024 A 
ATOM     22  C   UNL     1      -8.691   0.133   4.278  0.00  0.00    +0.067 A 
ATOM     23  C   UNL     1      -7.799   1.100   3.851  0.00  0.00    +0.125 A 
ATOM     24  C   UNL     1      -6.818   0.780   2.933  0.00  0.00    +0.053 A 
ATOM     25 CL   UNL     1      -9.917   0.536   5.438  0.00  0.00    -0.082 Cl
BRANCH  23  26
ATOM     26  S   UNL     1      -7.909   2.740   4.486  0.00  0.00    +0.062 S 
ATOM     27  O   UNL     1      -6.871   3.487   3.865  0.00  0.00    -0.153 OA
ATOM     28  O   UNL     1      -9.276   3.119   4.398  0.00  0.00    -0.153 OA
BRANCH  26  29
ATOM     29  N   UNL     1      -7.541   2.667   6.098  0.00  0.00    -0.183 NA
ATOM     30  C   UNL     1      -6.141   2.667   6.531  0.00  0.00    +0.131 C 
ATOM     31  C   UNL     1      -8.615   2.603   7.093  0.00  0.00    +0.131 C 
ENDBRANCH  26  29
ENDBRANCH  23  26
ENDBRANCH   4  19
TORSDOF 4
