REMARK  Name = ZINC18996483
REMARK  9 active torsions:
REMARK  status: ('A' for Active; 'I' for Inactive)
REMARK    1  A    between atoms: C_1  and  C_2
REMARK    2  A    between atoms: C_2  and  C_4
REMARK    3  A    between atoms: C_2  and  O_16
REMARK    4  A    between atoms: N_6  and  C_7
REMARK    5  A    between atoms: O_16  and  C_17
REMARK    6  A    between atoms: C_17  and  C_19
REMARK    7  A    between atoms: C_23  and  S_25
REMARK    8  A    between atoms: S_25  and  N_28
REMARK    9  A    between atoms: N_28  and  C_29
REMARK                            x       y       z     vdW  Elec       q    Type
REMARK                         _______ _______ _______ _____ _____    ______ ____
ROOT
ATOM      1  O   UNL     1       1.343   2.006  -0.017  0.00  0.00    -0.449 OA
ENDROOT
BRANCH   1   3
ATOM      2  C   UNL     1      -0.757   2.000  -1.250  0.00  0.00    +0.062 C 
ATOM      3  C   UNL     1      -0.019   1.503  -0.005  0.00  0.00    +0.259 C 
BRANCH   3   4
ATOM      4  C   UNL     1       0.002  -0.004  -0.002  0.00  0.00    +0.258 C 
ATOM      5  O   UNL     1       1.061  -0.596  -0.008  0.00  0.00    -0.271 OA
ATOM      6  N   UNL     1      -1.156  -0.694   0.009  0.00  0.00    -0.281 N 
ATOM      7  H   UNL     1      -2.000  -0.224   0.096  0.00  0.00    +0.155 HD
BRANCH   6   8
ATOM      8  C   UNL     1      -1.140  -2.089  -0.104  0.00  0.00    +0.053 A 
ATOM      9  C   UNL     1      -0.072  -2.725  -0.724  0.00  0.00    +0.046 A 
ATOM     10  C   UNL     1      -0.058  -4.103  -0.830  0.00  0.00    +0.061 A 
ATOM     11  C   UNL     1      -1.111  -4.849  -0.328  0.00  0.00    +0.061 A 
ATOM     12  C   UNL     1      -2.178  -4.218   0.285  0.00  0.00    +0.043 A 
ATOM     13  C   UNL     1      -2.196  -2.840   0.398  0.00  0.00    +0.064 A 
ATOM     14 CL   UNL     1      -3.536  -2.049   1.168  0.00  0.00    -0.082 Cl
ATOM     15 CL   UNL     1      -1.092  -6.579  -0.469  0.00  0.00    -0.082 Cl
ATOM     16 CL   UNL     1       1.280  -4.898  -1.599  0.00  0.00    -0.082 Cl
ENDBRANCH   6   8
ENDBRANCH   3   4
ENDBRANCH   1   3
BRANCH   1  17
ATOM     17  C   UNL     1       1.561   3.195   0.578  0.00  0.00    +0.340 C 
ATOM     18  O   UNL     1       0.639   3.794   1.093  0.00  0.00    -0.245 OA
BRANCH  17  19
ATOM     19  C   UNL     1       2.922   3.768   0.605  0.00  0.00    +0.061 A 
ATOM     20  C   UNL     1       3.985   3.081   0.014  0.00  0.00    +0.015 A 
ATOM     21  C   UNL     1       5.253   3.623   0.042  0.00  0.00    +0.003 A 
ATOM     22  C   UNL     1       5.474   4.845   0.654  0.00  0.00    +0.028 A 
ATOM     23  C   UNL     1       4.426   5.531   1.241  0.00  0.00    +0.106 A 
ATOM     24  C   UNL     1       3.151   5.003   1.216  0.00  0.00    +0.043 A 
BRANCH  23  25
ATOM     25  S   UNL     1       4.718   7.085   2.017  0.00  0.00    +0.059 S 
ATOM     26  O   UNL     1       3.677   7.267   2.967  0.00  0.00    -0.153 OA
ATOM     27  O   UNL     1       6.092   7.107   2.379  0.00  0.00    -0.153 OA
BRANCH  25  28
ATOM     28  N   UNL     1       4.514   8.255   0.862  0.00  0.00    -0.187 NA
ATOM     29  H   UNL     1       5.268   8.799   0.585  0.00  0.00    +0.148 HD
BRANCH  28  30
ATOM     30  C   UNL     1       3.196   8.468   0.260  0.00  0.00    +0.077 C 
ATOM     31  C   UNL     1       3.150   8.897  -1.208  0.00  0.00    +0.022 C 
ATOM     32  C   UNL     1       2.810   9.903  -0.106  0.00  0.00    +0.022 C 
ENDBRANCH  28  30
ENDBRANCH  25  28
ENDBRANCH  23  25
ENDBRANCH  17  19
ENDBRANCH   1  17
TORSDOF 8
