REMARK  Name = ZINC05024806
REMARK  10 active torsions:
REMARK  status: ('A' for Active; 'I' for Inactive)
REMARK    1  A    between atoms: C_1  and  C_2
REMARK    2  A    between atoms: C_2  and  C_3
REMARK    3  A    between atoms: C_3  and  C_4
REMARK    4  A    between atoms: C_4  and  O_5
REMARK    5  A    between atoms: O_5  and  C_6
REMARK    6  A    between atoms: C_6  and  C_8
REMARK    7  A    between atoms: C_9  and  N_27
REMARK    8  A    between atoms: C_11  and  C_26
REMARK    9  A    between atoms: C_12  and  C_23
REMARK   10  A    between atoms: C_23  and  C_25
REMARK                            x       y       z     vdW  Elec       q    Type
REMARK                         _______ _______ _______ _____ _____    ______ ____
ROOT
ATOM      1  C   UNL     1       0.958   3.836  -1.204  0.00  0.00    +0.117 C 
ATOM      2  C   UNL     1       1.397   5.122  -1.241  0.00  0.00    +0.195 C 
ATOM      3  O   UNL     1       1.561   5.845  -0.121  0.00  0.00    -0.446 OA
ATOM      4  C   UNL     1       1.655   5.225   1.063  0.00  0.00    +0.112 C 
ATOM      5  C   UNL     1       1.238   3.959   1.244  0.00  0.00    +0.057 C 
ATOM      6  C   UNL     1       0.645   3.176   0.108  0.00  0.00    +0.141 C 
ATOM      7  C   UNL     1      -0.846   3.033   0.285  0.00  0.00    -0.002 A 
ATOM      8  C   UNL     1      -1.875   3.944   0.359  0.00  0.00    +0.007 A 
ATOM      9  C   UNL     1      -3.177   3.503   0.526  0.00  0.00    +0.000 A 
ATOM     10  C   UNL     1      -3.438   2.148   0.618  0.00  0.00    +0.002 A 
ATOM     11  C   UNL     1      -2.408   1.233   0.545  0.00  0.00    +0.023 A 
ATOM     12  C   UNL     1      -1.096   1.669   0.371  0.00  0.00    +0.038 A 
ATOM     13  N   UNL     1       0.098   0.952   0.277  0.00  0.00    -0.284 N 
ATOM     14  C   UNL     1       1.163   1.757   0.119  0.00  0.00    +0.237 C 
ATOM     15  O   UNL     1       2.320   1.411   0.007  0.00  0.00    -0.274 OA
ATOM     16  C   UNL     1       2.247   5.971   2.231  0.00  0.00    +0.086 C 
ATOM     17  H   UNL     1       0.153  -0.016   0.316  0.00  0.00    +0.155 HD
ENDROOT
BRANCH   5  18
ATOM     18  C   UNL     1       1.358   3.362   2.513  0.00  0.00    +0.161 C 
ATOM     19  O   UNL     1       2.458   3.128   2.972  0.00  0.00    -0.293 OA
ATOM     20  C   UNL     1       0.122   3.012   3.301  0.00  0.00    +0.091 C 
ENDBRANCH   5  18
BRANCH   2  21
ATOM     21  N   UNL     1       1.679   5.696  -2.451  0.00  0.00    -0.329 N 
ATOM     22  H   UNL     1       2.078   5.165  -3.158  0.00  0.00    +0.145 HD
ATOM     23  H   UNL     1       1.479   6.633  -2.603  0.00  0.00    +0.145 HD
ENDBRANCH   2  21
BRANCH   1  24
ATOM     24  C   UNL     1       0.797   3.119  -2.400  0.00  0.00    +0.342 C 
ATOM     25  O   UNL     1       1.131   3.620  -3.459  0.00  0.00    -0.245 OA
BRANCH  24  26
ATOM     26  O   UNL     1       0.273   1.875  -2.377  0.00  0.00    -0.461 OA
BRANCH  26  27
ATOM     27  C   UNL     1       0.138   1.205  -3.632  0.00  0.00    +0.232 C 
BRANCH  27  28
ATOM     28  C   UNL     1      -0.470  -0.181  -3.406  0.00  0.00    +0.041 C 
BRANCH  28  30
ATOM     29  C   UNL     1      -1.223  -2.285  -4.524  0.00  0.00    +0.004 C 
ATOM     30  C   UNL     1      -0.615  -0.899  -4.749  0.00  0.00    -0.000 C 
ENDBRANCH  28  30
ENDBRANCH  27  28
ENDBRANCH  26  27
ENDBRANCH  24  26
ENDBRANCH   1  24
TORSDOF 7
