REMARK  Name = ZINC63751822
REMARK  7 active torsions:
REMARK  status: ('A' for Active; 'I' for Inactive)
REMARK    1  A    between atoms: C_1  and  C_2
REMARK    2  A    between atoms: C_5  and  C_8
REMARK    3  A    between atoms: C_8  and  C_9
REMARK    4  A    between atoms: N_11  and  C_12
REMARK    5  A    between atoms: C_15  and  S_18
REMARK    6  A    between atoms: S_18  and  C_19
REMARK    7  A    between atoms: C_19  and  C_20
REMARK                            x       y       z     vdW  Elec       q    Type
REMARK                         _______ _______ _______ _____ _____    ______ ____
ROOT
ATOM      1  C   UNL     1       3.091  -6.478   0.040  0.00  0.00    +0.033 A 
ATOM      2  C   UNL     1       4.094  -5.522   0.141  0.00  0.00    +0.024 A 
ATOM      3  C   UNL     1       5.415  -5.913   0.221  0.00  0.00    +0.016 A 
ATOM      4  C   UNL     1       5.743  -7.263   0.200  0.00  0.00    +0.008 A 
ATOM      5  C   UNL     1       4.739  -8.220   0.100  0.00  0.00    +0.016 A 
ATOM      6  C   UNL     1       3.418  -7.828   0.025  0.00  0.00    +0.024 A 
ENDROOT
BRANCH   1   9
ATOM      7  C   UNL     1       0.791  -6.824   0.546  0.00  0.00    +0.222 C 
ATOM      8  O   UNL     1       1.077  -7.879   1.071  0.00  0.00    -0.275 OA
ATOM      9  N   UNL     1       1.750  -6.081  -0.041  0.00  0.00    -0.285 N 
ATOM     10  H   UNL     1       1.512  -5.271  -0.519  0.00  0.00    +0.155 HD
BRANCH   7  11
ATOM     11  C   UNL     1      -0.638  -6.344   0.549  0.00  0.00    +0.131 C 
BRANCH  11  16
ATOM     12  C   UNL     1      -3.963 -10.199   3.283  0.00  0.00    +0.044 C 
ATOM     13  C   UNL     1      -3.096  -9.194   2.570  0.00  0.00    -0.050 A 
ATOM     14  C   UNL     1      -2.504  -8.165   3.279  0.00  0.00    +0.003 A 
ATOM     15  C   UNL     1      -1.709  -7.243   2.625  0.00  0.00    +0.004 A 
ATOM     16  C   UNL     1      -1.504  -7.350   1.262  0.00  0.00    -0.039 A 
ATOM     17  C   UNL     1      -2.095  -8.379   0.553  0.00  0.00    +0.004 A 
ATOM     18  C   UNL     1      -2.887  -9.304   1.208  0.00  0.00    +0.003 A 
ENDBRANCH  11  16
ENDBRANCH   7  11
ENDBRANCH   1   9
BRANCH   4  19
ATOM     19  S   UNL     1       7.429  -7.763   0.301  0.00  0.00    -0.123 S 
BRANCH  19  20
ATOM     20  C   UNL     1       7.355  -9.574   0.238  0.00  0.00    +0.108 C 
BRANCH  20  21
ATOM     21  C   UNL     1       8.772 -10.146   0.319  0.00  0.00    +0.176 C 
ATOM     22  C   UNL     1       8.659 -11.652   0.365  0.00  0.00    +0.240 C 
ATOM     23  O   UNL     1       8.021 -12.195   1.245  0.00  0.00    -0.273 OA
ATOM     24  N   UNL     1       9.271 -12.379  -0.572  0.00  0.00    -0.282 N 
ATOM     25  C   UNL     1       9.972 -11.813  -1.540  0.00  0.00    +0.057 A 
ATOM     26  C   UNL     1      10.607 -12.612  -2.517  0.00  0.00    +0.025 A 
ATOM     27  C   UNL     1      11.326 -12.038  -3.510  0.00  0.00    +0.002 A 
ATOM     28  C   UNL     1      11.483 -10.648  -3.629  0.00  0.00    +0.002 A 
ATOM     29  C   UNL     1      10.918  -9.792  -2.748  0.00  0.00    +0.027 A 
ATOM     30  C   UNL     1      10.120 -10.339  -1.639  0.00  0.00    +0.057 A 
ATOM     31  N   UNL     1       9.559  -9.548  -0.772  0.00  0.00    -0.372 N 
ATOM     32  H   UNL     1       9.659  -8.586  -0.842  0.00  0.00    +0.160 HD
ATOM     33  H   UNL     1       9.200 -13.346  -0.543  0.00  0.00    +0.155 HD
ENDBRANCH  20  21
ENDBRANCH  19  20
ENDBRANCH   4  19
TORSDOF 6
