REMARK  Name = ZINC07564700
REMARK  6 active torsions:
REMARK  status: ('A' for Active; 'I' for Inactive)
REMARK    1  A    between atoms: C_1  and  C_2
REMARK    2  A    between atoms: C_2  and  C_4
REMARK    3  A    between atoms: C_2  and  S_16
REMARK    4  A    between atoms: C_4  and  C_6
REMARK    5  A    between atoms: S_16  and  C_17
REMARK    6  A    between atoms: C_20  and  C_22
REMARK                            x       y       z     vdW  Elec       q    Type
REMARK                         _______ _______ _______ _____ _____    ______ ____
ROOT
ATOM      1  C   UNL     1       4.056   2.429   1.284  0.00  0.00    +0.028 C 
ATOM      2  C   UNL     1       3.637   3.119  -0.016  0.00  0.00    +0.124 C 
ENDROOT
BRANCH   2   3
ATOM      3  C   UNL     1       4.358   4.437  -0.140  0.00  0.00    +0.178 C 
ATOM      4  O   UNL     1       3.822   5.460   0.236  0.00  0.00    -0.291 OA
BRANCH   3   5
ATOM      5  C   UNL     1       5.661   4.483  -0.694  0.00  0.00    +0.043 A 
ATOM      6  C   UNL     1       6.401   3.416  -1.158  0.00  0.00    +0.095 A 
ATOM      7  N   UNL     1       7.590   3.855  -1.613  0.00  0.00    -0.360 N 
ATOM      8  H   UNL     1       8.280   3.287  -1.991  0.00  0.00    +0.165 HD
ATOM      9  C   UNL     1       7.695   5.223  -1.465  0.00  0.00    +0.047 A 
ATOM     10  C   UNL     1       6.501   5.681  -0.887  0.00  0.00    +0.010 A 
ATOM     11  C   UNL     1       6.328   7.036  -0.621  0.00  0.00    +0.011 A 
ATOM     12  C   UNL     1       7.334   7.926  -0.929  0.00  0.00    +0.001 A 
ATOM     13  C   UNL     1       8.515   7.476  -1.500  0.00  0.00    +0.002 A 
ATOM     14  C   UNL     1       8.699   6.137  -1.768  0.00  0.00    +0.026 A 
ENDBRANCH   3   5
ENDBRANCH   2   3
BRANCH   2  15
ATOM     15  S   UNL     1       1.850   3.408   0.003  0.00  0.00    -0.055 S 
BRANCH  15  16
ATOM     16  C   UNL     1       1.272   1.744  -0.001  0.00  0.00    +0.278 A 
ATOM     17  N   UNL     1       2.016   0.663  -0.014  0.00  0.00    -0.101 NA
ATOM     18  N   UNL     1       1.261  -0.379  -0.012  0.00  0.00    -0.103 NA
ATOM     19  C   UNL     1       0.002  -0.004   0.002  0.00  0.00    +0.284 A 
ATOM     20  O   UNL     1      -0.016   1.348   0.009  0.00  0.00    -0.408 OA
BRANCH  19  21
ATOM     21  C   UNL     1      -1.170  -0.891   0.008  0.00  0.00    +0.191 A 
ATOM     22  C   UNL     1      -1.143  -2.254   0.000  0.00  0.00    +0.055 A 
ATOM     23  C   UNL     1      -2.483  -2.686   0.011  0.00  0.00    +0.042 A 
ATOM     24  C   UNL     1      -3.255  -1.581   0.024  0.00  0.00    +0.196 A 
ATOM     25  O   UNL     1      -2.459  -0.498   0.028  0.00  0.00    -0.458 OA
ENDBRANCH  19  21
ENDBRANCH  15  16
ENDBRANCH   2  15
TORSDOF 5
