REMARK  Name = ZINC39710443
REMARK  10 active torsions:
REMARK  status: ('A' for Active; 'I' for Inactive)
REMARK    1  A    between atoms: C_1  and  C_2
REMARK    2  A    between atoms: C_2  and  C_3
REMARK    3  A    between atoms: C_10  and  C_15
REMARK    4  A    between atoms: C_15  and  C_17
REMARK    5  A    between atoms: C_15  and  N_27
REMARK    6  A    between atoms: N_22  and  C_23
REMARK    7  A    between atoms: C_23  and  C_24
REMARK    8  A    between atoms: C_23  and  C_25
REMARK    9  A    between atoms: C_23  and  C_26
REMARK   10  A    between atoms: N_30  and  C_33
REMARK                            x       y       z     vdW  Elec       q    Type
REMARK                         _______ _______ _______ _____ _____    ______ ____
ROOT
ATOM      1  C   UNL     1       5.644  -0.902  -4.182  0.00  0.00    -0.009 C 
ENDROOT
BRANCH   1   9
ATOM      2  C   UNL     1       1.000  -0.100  -0.740  0.00  0.00    -0.047 A 
ATOM      3  C   UNL     1       0.129  -0.563  -1.727  0.00  0.00    +0.005 A 
ATOM      4  C   UNL     1       0.561  -1.198  -2.847  0.00  0.00    +0.024 A 
ATOM      5  C   UNL     1       1.935  -1.418  -3.059  0.00  0.00    +0.040 A 
ATOM      6  N   UNL     1       2.348  -2.042  -4.162  0.00  0.00    -0.285 N 
ATOM      7  C   UNL     1       3.622  -2.281  -4.423  0.00  0.00    +0.223 C 
ATOM      8  O   UNL     1       3.938  -2.855  -5.447  0.00  0.00    -0.275 OA
ATOM      9  C   UNL     1       4.684  -1.837  -3.442  0.00  0.00    +0.088 C 
ATOM     10  C   UNL     1       4.220  -1.125  -2.186  0.00  0.00    -0.006 C 
ATOM     11  C   UNL     1       2.878  -0.939  -2.033  0.00  0.00    -0.007 A 
ATOM     12  C   UNL     1       2.345  -0.258  -0.853  0.00  0.00    +0.013 A 
ATOM     13  H   UNL     1       1.682  -2.335  -4.803  0.00  0.00    +0.155 HD
BRANCH   2  15
ATOM     14  C   UNL     1       0.341   2.098   0.199  0.00  0.00    +0.009 C 
ATOM     15  C   UNL     1       0.439   0.596   0.472  0.00  0.00    +0.032 C 
ENDBRANCH   2  15
ENDBRANCH   1   9
BRANCH   1  16
ATOM     16  N   UNL     1       6.241  -1.615  -5.320  0.00  0.00    +0.387 N 
ATOM     17  C   UNL     1       7.324  -0.803  -5.889  0.00  0.00    -0.059 C 
ATOM     18  C   UNL     1       7.871  -1.491  -7.145  0.00  0.00    +0.086 C 
ATOM     19  N   UNL     1       8.262  -2.865  -6.791  0.00  0.00    -0.333 N 
ATOM     20  C   UNL     1       7.288  -3.698  -6.069  0.00  0.00    +0.086 C 
ATOM     21  C   UNL     1       6.769  -2.906  -4.864  0.00  0.00    -0.059 C 
ATOM     22  H   UNL     1       5.535  -1.771  -6.024  0.00  0.00    -0.081 HD
BRANCH  19  23
ATOM     23  C   UNL     1       9.521  -3.363  -7.131  0.00  0.00    +0.030 A 
ATOM     24  C   UNL     1       9.830  -4.696  -6.894  0.00  0.00    +0.023 A 
ATOM     25  C   UNL     1      11.076  -5.186  -7.233  0.00  0.00    +0.002 A 
ATOM     26  C   UNL     1      12.017  -4.350  -7.806  0.00  0.00    +0.000 A 
ATOM     27  C   UNL     1      11.713  -3.022  -8.044  0.00  0.00    +0.002 A 
ATOM     28  C   UNL     1      10.467  -2.527  -7.713  0.00  0.00    +0.023 A 
ENDBRANCH  19  23
ENDBRANCH   1  16
BRANCH   1  29
ATOM     29  C   UNL     1       4.876   0.319  -4.691  0.00  0.00    +0.205 C 
ATOM     30  N   UNL     1       4.021  -0.049  -5.827  0.00  0.00    -0.152 NA
ATOM     31  N   UNL     1       4.374   0.594  -6.817  0.00  0.00    -0.070 NA
ATOM     32  N   UNL     1       5.447   1.446  -6.556  0.00  0.00    -0.179 N 
ATOM     33  N   UNL     1       5.811   1.325  -5.238  0.00  0.00    -0.183 NA
ATOM     34  H   UNL     1       5.868   2.033  -7.204  0.00  0.00    +0.191 HD
BRANCH  33  35
ATOM     35  C   UNL     1       5.678   2.607  -4.533  0.00  0.00    +0.035 C 
ATOM     36  C   UNL     1       5.960   2.401  -3.043  0.00  0.00    +0.029 C 
ATOM     37  C   UNL     1       6.678   3.611  -5.108  0.00  0.00    +0.029 C 
ATOM     38  C   UNL     1       4.256   3.143  -4.713  0.00  0.00    +0.029 C 
ENDBRANCH  33  35
ENDBRANCH   1  29
TORSDOF 6
