REMARK  Name = ZINC09692268
REMARK  11 active torsions:
REMARK  status: ('A' for Active; 'I' for Inactive)
REMARK    1  A    between atoms: C_1  and  C_2
REMARK    2  A    between atoms: C_2  and  C_3
REMARK    3  A    between atoms: C_12  and  S_14
REMARK    4  A    between atoms: S_14  and  N_17
REMARK    5  A    between atoms: N_17  and  C_18
REMARK    6  A    between atoms: C_18  and  C_20
REMARK    7  A    between atoms: C_18  and  C_27
REMARK    8  A    between atoms: C_20  and  C_21
REMARK    9  A    between atoms: N_29  and  C_30
REMARK   10  A    between atoms: C_30  and  C_31
REMARK   11  A    between atoms: C_31  and  C_32
REMARK                            x       y       z     vdW  Elec       q    Type
REMARK                         _______ _______ _______ _____ _____    ______ ____
ROOT
ATOM      1  C   UNL     1      -0.997   1.758  -3.630  0.00  0.00    +0.166 C 
ENDROOT
BRANCH   1   2
ATOM      2  C   UNL     1      -0.268   1.258  -2.409  0.00  0.00    +0.232 C 
ATOM      3  O   UNL     1       0.726   0.575  -2.534  0.00  0.00    -0.274 OA
ATOM      4  N   UNL     1      -0.721   1.571  -1.179  0.00  0.00    -0.314 N 
ATOM      5  H   UNL     1      -1.516   2.118  -1.079  0.00  0.00    +0.149 HD
BRANCH   4   6
ATOM      6  C   UNL     1      -0.013   1.086   0.008  0.00  0.00    +0.109 C 
BRANCH   6   7
ATOM      7  C   UNL     1      -0.729   1.579   1.267  0.00  0.00    +0.054 C 
BRANCH   7   8
ATOM      8  C   UNL     1       0.000   1.080   2.488  0.00  0.00    -0.046 A 
ATOM      9  C   UNL     1      -0.347  -0.133   3.052  0.00  0.00    +0.004 A 
ATOM     10  C   UNL     1       0.325  -0.593   4.169  0.00  0.00    +0.000 A 
ATOM     11  C   UNL     1       1.337   0.164   4.728  0.00  0.00    +0.000 A 
ATOM     12  C   UNL     1       1.680   1.380   4.167  0.00  0.00    +0.000 A 
ATOM     13  C   UNL     1       1.012   1.838   3.046  0.00  0.00    +0.004 A 
ENDBRANCH   7   8
ENDBRANCH   6   7
ENDBRANCH   4   6
ENDBRANCH   1   2
BRANCH   1  14
ATOM     14  N   UNL     1      -0.311   1.285  -4.835  0.00  0.00    -0.178 NA
ATOM     15  H   UNL     1       0.110   0.411  -4.843  0.00  0.00    +0.149 HD
BRANCH  14  16
ATOM     16  S   UNL     1      -0.255   2.243  -6.185  0.00  0.00    +0.059 S 
ATOM     17  O   UNL     1       0.491   1.527  -7.160  0.00  0.00    -0.153 OA
ATOM     18  O   UNL     1      -1.583   2.692  -6.420  0.00  0.00    -0.153 OA
BRANCH  16  28
ATOM     19  C   UNL     1       2.811   8.145  -4.358  0.00  0.00    +0.220 C 
ATOM     20  O   UNL     1       1.659   8.418  -4.090  0.00  0.00    -0.275 OA
ATOM     21  N   UNL     1       3.116   6.935  -4.865  0.00  0.00    -0.271 N 
ATOM     22  C   UNL     1       4.465   6.491  -5.226  0.00  0.00    +0.118 C 
ATOM     23  C   UNL     1       4.292   5.057  -5.751  0.00  0.00    +0.056 C 
ATOM     24  C   UNL     1       2.807   4.789  -5.643  0.00  0.00    -0.023 A 
ATOM     25  C   UNL     1       2.192   5.918  -5.124  0.00  0.00    +0.040 A 
ATOM     26  C   UNL     1       0.810   5.908  -4.931  0.00  0.00    +0.026 A 
ATOM     27  C   UNL     1       0.070   4.792  -5.260  0.00  0.00    +0.030 A 
ATOM     28  C   UNL     1       0.693   3.669  -5.772  0.00  0.00    +0.106 A 
ATOM     29  C   UNL     1       2.062   3.671  -5.966  0.00  0.00    +0.034 A 
BRANCH  19  31
ATOM     30  C   UNL     1       3.288  10.440  -3.547  0.00  0.00    +0.013 C 
ATOM     31  C   UNL     1       3.899   9.161  -4.124  0.00  0.00    +0.093 C 
ENDBRANCH  19  31
ENDBRANCH  16  28
ENDBRANCH  14  16
ENDBRANCH   1  14
BRANCH   1  32
ATOM     32  C   UNL     1      -2.432   1.228  -3.619  0.00  0.00    +0.065 C 
BRANCH  32  33
ATOM     33  C   UNL     1      -3.197   1.825  -4.772  0.00  0.00    -0.045 A 
ATOM     34  C   UNL     1      -3.885   3.012  -4.605  0.00  0.00    +0.004 A 
ATOM     35  C   UNL     1      -4.582   3.562  -5.665  0.00  0.00    +0.000 A 
ATOM     36  C   UNL     1      -4.600   2.920  -6.888  0.00  0.00    +0.000 A 
ATOM     37  C   UNL     1      -3.916   1.730  -7.054  0.00  0.00    +0.000 A 
ATOM     38  C   UNL     1      -3.215   1.182  -5.996  0.00  0.00    +0.004 A 
ENDBRANCH  32  33
ENDBRANCH   1  32
TORSDOF 10
