REMARK  Name = ZINC05503488
REMARK  6 active torsions:
REMARK  status: ('A' for Active; 'I' for Inactive)
REMARK    1  A    between atoms: C_1  and  C_2
REMARK    2  A    between atoms: C_4  and  O_22
REMARK    3  A    between atoms: C_6  and  O_21
REMARK    4  A    between atoms: C_8  and  O_20
REMARK    5  A    between atoms: C_10  and  S_13
REMARK    6  A    between atoms: S_13  and  C_14
REMARK                            x       y       z     vdW  Elec       q    Type
REMARK                         _______ _______ _______ _____ _____    ______ ____
ROOT
ATOM      1  C   UNL     1      -0.753   1.593  -1.231  0.00  0.00    +0.040 C 
ATOM      2  C   UNL     1      -0.013   1.086   0.008  0.00  0.00    +0.148 C 
ATOM      3  C   UNL     1      -0.728   1.580   1.268  0.00  0.00    +0.174 C 
ATOM      4  C   UNL     1       0.053   1.119   2.503  0.00  0.00    +0.177 C 
ATOM      5  C   UNL     1       1.490   1.639   2.408  0.00  0.00    +0.185 C 
ATOM      6  C   UNL     1       2.120   1.143   1.104  0.00  0.00    +0.214 C 
ATOM      7  O   UNL     1       1.328   1.581  -0.002  0.00  0.00    -0.357 OA
ENDROOT
BRANCH   5   8
ATOM      8  O   UNL     1       1.482   3.068   2.421  0.00  0.00    -0.386 OA
ATOM      9  H   UNL     1       2.361   3.467   2.359  0.00  0.00    +0.210 HD
ENDBRANCH   5   8
BRANCH   4  10
ATOM     10  O   UNL     1      -0.567   1.637   3.681  0.00  0.00    -0.386 OA
ATOM     11  H   UNL     1      -0.120   1.390   4.502  0.00  0.00    +0.210 HD
ENDBRANCH   4  10
BRANCH   3  12
ATOM     12  O   UNL     1      -2.050   1.039   1.310  0.00  0.00    -0.387 OA
ATOM     13  H   UNL     1      -2.600   1.287   0.554  0.00  0.00    +0.210 HD
ENDBRANCH   3  12
BRANCH   6  14
ATOM     14  S   UNL     1       3.795   1.812   0.950  0.00  0.00    -0.054 S 
BRANCH  14  15
ATOM     15  C   UNL     1       4.320   0.985  -0.515  0.00  0.00    +0.169 A 
ATOM     16  N   UNL     1       5.537   1.117  -1.111  0.00  0.00    -0.339 N 
ATOM     17  H   UNL     1       6.291   1.696  -0.801  0.00  0.00    +0.167 HD
ATOM     18  C   UNL     1       5.532   0.302  -2.220  0.00  0.00    +0.104 A 
ATOM     19  C   UNL     1       4.328  -0.292  -2.265  0.00  0.00    +0.131 A 
ATOM     20  N   UNL     1       3.607   0.133  -1.214  0.00  0.00    -0.230 NA
ENDBRANCH  14  15
ENDBRANCH   6  14
TORSDOF 5
