REMARK  Name = ZINC58847950
REMARK  8 active torsions:
REMARK  status: ('A' for Active; 'I' for Inactive)
REMARK    1  A    between atoms: C_1  and  C_2
REMARK    2  A    between atoms: C_3  and  N_9
REMARK    3  A    between atoms: N_9  and  S_10
REMARK    4  A    between atoms: S_10  and  C_13
REMARK    5  A    between atoms: C_26  and  C_29
REMARK    6  A    between atoms: C_32  and  C_35
REMARK    7  A    between atoms: C_35  and  O_37
REMARK    8  A    between atoms: O_37  and  C_38
REMARK                            x       y       z     vdW  Elec       q    Type
REMARK                         _______ _______ _______ _____ _____    ______ ____
ROOT
ATOM      1  C   UNL     1      -2.462  -0.671  -3.458  0.00  0.00    +0.109 A 
ATOM      2  C   UNL     1      -3.050  -1.762  -2.845  0.00  0.00    +0.030 A 
ATOM      3  C   UNL     1      -4.413  -1.773  -2.626  0.00  0.00    +0.025 A 
ATOM      4  C   UNL     1      -5.192  -0.689  -3.017  0.00  0.00    +0.031 A 
ATOM      5  C   UNL     1      -4.602   0.412  -3.620  0.00  0.00    -0.018 A 
ATOM      6  C   UNL     1      -3.232   0.410  -3.838  0.00  0.00    +0.034 A 
ATOM      7  C   UNL     1      -5.398   1.609  -4.017  0.00  0.00    +0.049 C 
ATOM      8  C   UNL     1      -5.637   1.663  -5.504  0.00  0.00    -0.023 C 
ATOM      9  C   UNL     1      -6.827   2.149  -5.754  0.00  0.00    -0.030 C 
ATOM     10  C   UNL     1      -7.555   2.481  -4.470  0.00  0.00    +0.033 C 
ATOM     11  C   UNL     1      -6.790   1.680  -3.392  0.00  0.00    +0.029 C 
ATOM     12  C   UNL     1      -7.460   0.330  -3.241  0.00  0.00    +0.105 C 
ATOM     13  N   UNL     1      -6.565  -0.722  -2.806  0.00  0.00    -0.336 N 
ATOM     14  H   UNL     1      -6.945  -1.499  -2.367  0.00  0.00    +0.147 HD
ENDROOT
BRANCH  12  15
ATOM     15  C   UNL     1      -8.082  -0.046  -4.561  0.00  0.00    -0.027 A 
ATOM     16  C   UNL     1      -7.294  -0.580  -5.566  0.00  0.00    +0.006 A 
ATOM     17  C   UNL     1      -7.856  -0.926  -6.777  0.00  0.00    +0.015 A 
ATOM     18  C   UNL     1      -9.224  -0.738  -6.987  0.00  0.00    +0.059 A 
ATOM     19  C   UNL     1     -10.013  -0.198  -5.970  0.00  0.00    +0.015 A 
ATOM     20  C   UNL     1      -9.438   0.139  -4.761  0.00  0.00    +0.006 A 
BRANCH  18  21
ATOM     21  C   UNL     1      -9.833  -1.106  -8.282  0.00  0.00    +0.339 C 
ATOM     22  O   UNL     1      -9.144  -1.574  -9.166  0.00  0.00    -0.245 OA
BRANCH  21  23
ATOM     23  O   UNL     1     -11.152  -0.922  -8.482  0.00  0.00    -0.464 OA
ATOM     24  C   UNL     1     -11.674  -1.301  -9.758  0.00  0.00    +0.280 C 
ENDBRANCH  21  23
ENDBRANCH  18  21
ENDBRANCH  12  15
BRANCH   1  25
ATOM     25  S   UNL     1      -0.724  -0.657  -3.748  0.00  0.00    +0.072 S 
ATOM     26  O   UNL     1      -0.499   0.246  -4.822  0.00  0.00    -0.150 OA
ATOM     27  O   UNL     1      -0.310  -2.016  -3.795  0.00  0.00    -0.150 OA
BRANCH  25  28
ATOM     28  N   UNL     1      -0.010   0.010  -2.411  0.00  0.00    -0.216 N 
ATOM     29  H   UNL     1       0.516   0.820  -2.496  0.00  0.00    +0.174 HD
BRANCH  28  32
ATOM     30  C   UNL     1      -0.206   1.688  -0.123  0.00  0.00    +0.047 C 
ATOM     31  C   UNL     1      -0.265   0.186  -0.018  0.00  0.00    -0.010 A 
ATOM     32  C   UNL     1      -0.165  -0.595  -1.162  0.00  0.00    +0.052 A 
ATOM     33  C   UNL     1      -0.219  -1.980  -1.061  0.00  0.00    +0.025 A 
ATOM     34  C   UNL     1      -0.372  -2.575   0.176  0.00  0.00    +0.003 A 
ATOM     35  C   UNL     1      -0.472  -1.796   1.313  0.00  0.00    +0.020 A 
ATOM     36  C   UNL     1      -0.412  -0.416   1.217  0.00  0.00    +0.046 A 
ATOM     37 CL   UNL     1      -0.530   0.559   2.649  0.00  0.00    -0.083 Cl
ENDBRANCH  28  32
ENDBRANCH  25  28
ENDBRANCH   1  25
TORSDOF 6
