REMARK  Name = ZINC22278360
REMARK  7 active torsions:
REMARK  status: ('A' for Active; 'I' for Inactive)
REMARK    1  A    between atoms: C_4  and  C_7
REMARK    2  A    between atoms: C_7  and  N_8
REMARK    3  A    between atoms: C_9  and  C_11
REMARK    4  A    between atoms: C_11  and  N_12
REMARK    5  A    between atoms: N_15  and  C_18
REMARK    6  A    between atoms: C_18  and  C_19
REMARK    7  A    between atoms: C_29  and  C_31
REMARK                            x       y       z     vdW  Elec       q    Type
REMARK                         _______ _______ _______ _____ _____    ______ ____
ROOT
ATOM      1  N   UNL     1       2.536   7.193  -6.986  0.00  0.00    +0.387 N 
ATOM      2  C   UNL     1       3.267   8.089  -6.078  0.00  0.00    -0.063 C 
ATOM      3  C   UNL     1       3.723   7.302  -4.847  0.00  0.00    +0.066 C 
ATOM      4  N   UNL     1       2.550   6.722  -4.178  0.00  0.00    -0.298 NA
ATOM      5  C   UNL     1       1.819   5.826  -5.086  0.00  0.00    +0.066 C 
ATOM      6  C   UNL     1       1.363   6.613  -6.317  0.00  0.00    -0.063 C 
ATOM      7  H   UNL     1       3.210   6.370  -7.266  0.00  0.00    -0.081 HD
ENDROOT
BRANCH   1   8
ATOM      8  C   UNL     1       2.147   7.894  -8.217  0.00  0.00    +0.019 C 
BRANCH   8  10
ATOM      9  N   UNL     1       3.279   9.020 -10.107  0.00  0.00    -0.313 N 
ATOM     10  C   UNL     1       3.382   8.258  -9.000  0.00  0.00    +0.197 C 
ATOM     11  O   UNL     1       4.470   7.864  -8.635  0.00  0.00    -0.278 OA
ATOM     12  H   UNL     1       2.293   9.377 -10.438  0.00  0.00    +0.149 HD
BRANCH   9  13
ATOM     13  C   UNL     1       4.480   9.373 -10.868  0.00  0.00    +0.139 C 
BRANCH  13  17
ATOM     14  C   UNL     1       3.384  11.787 -14.217  0.00  0.00    +0.000 A 
ATOM     15  C   UNL     1       3.695  12.382 -13.009  0.00  0.00    +0.000 A 
ATOM     16  C   UNL     1       4.049  11.601 -11.925  0.00  0.00    +0.005 A 
ATOM     17  C   UNL     1       4.093  10.225 -12.050  0.00  0.00    -0.030 A 
ATOM     18  C   UNL     1       3.788   9.630 -13.260  0.00  0.00    +0.005 A 
ATOM     19  C   UNL     1       3.429  10.411 -14.342  0.00  0.00    +0.000 A 
ENDBRANCH  13  17
ENDBRANCH   9  13
ENDBRANCH   8  10
ENDBRANCH   1   8
BRANCH   4  20
ATOM     20  C   UNL     1       2.939   6.021  -2.947  0.00  0.00    +0.180 C 
BRANCH  20  21
ATOM     21  C   UNL     1       1.703   5.654  -2.166  0.00  0.00    +0.230 C 
ATOM     22  O   UNL     1       0.607   5.948  -2.593  0.00  0.00    -0.274 OA
ATOM     23  N   UNL     1       1.817   4.999  -0.994  0.00  0.00    -0.288 N 
ATOM     24  C   UNL     1       3.142   4.638  -0.467  0.00  0.00    +0.114 C 
ATOM     25  C   UNL     1       3.369   5.413   0.840  0.00  0.00    +0.062 C 
ATOM     26  C   UNL     1       2.114   5.368   1.648  0.00  0.00    -0.003 A 
ATOM     27  C   UNL     1       0.862   5.035   1.231  0.00  0.00    -0.012 A 
ATOM     28  C   UNL     1      -0.149   5.077   2.190  0.00  0.00    +0.013 A 
ATOM     29  C   UNL     1       0.140   5.434   3.462  0.00  0.00    +0.046 A 
ATOM     30  S   UNL     1       1.898   5.736   3.370  0.00  0.00    -0.101 S 
ATOM     31  C   UNL     1       0.620   4.637  -0.224  0.00  0.00    +0.144 C 
BRANCH  31  32
ATOM     32  C   UNL     1       0.385   3.151  -0.314  0.00  0.00    +0.015 A 
ATOM     33  C   UNL     1      -0.783   2.478  -0.449  0.00  0.00    +0.013 A 
ATOM     34  C   UNL     1      -0.758   1.097  -0.516  0.00  0.00    +0.008 A 
ATOM     35  C   UNL     1       0.434   0.457  -0.435  0.00  0.00    +0.045 A 
ATOM     36  S   UNL     1       1.575   1.820  -0.271  0.00  0.00    -0.099 S 
ENDBRANCH  31  32
ENDBRANCH  20  21
ENDBRANCH   4  20
TORSDOF 7
