REMARK  Name = ZINC14005538
REMARK  9 active torsions:
REMARK  status: ('A' for Active; 'I' for Inactive)
REMARK    1  A    between atoms: C_1  and  C_2
REMARK    2  A    between atoms: C_2  and  N_3
REMARK    3  A    between atoms: N_3  and  C_4
REMARK    4  A    between atoms: C_14  and  C_16
REMARK    5  A    between atoms: C_19  and  N_22
REMARK    6  A    between atoms: N_22  and  C_23
REMARK    7  A    between atoms: C_23  and  N_25
REMARK    8  A    between atoms: C_26  and  C_28
REMARK    9  A    between atoms: C_29  and  C_30
REMARK                            x       y       z     vdW  Elec       q    Type
REMARK                         _______ _______ _______ _____ _____    ______ ____
ROOT
ATOM      1  C   UNL     1      -4.466   4.712  -1.174  0.00  0.00    +0.037 A 
ATOM      2  C   UNL     1      -4.820   5.494  -0.071  0.00  0.00    +0.015 A 
ATOM      3  C   UNL     1      -6.034   6.142  -0.049  0.00  0.00    +0.024 A 
ATOM      4  C   UNL     1      -6.914   6.010  -1.119  0.00  0.00    +0.033 A 
ATOM      5  C   UNL     1      -6.568   5.228  -2.217  0.00  0.00    +0.024 A 
ATOM      6  C   UNL     1      -5.353   4.582  -2.248  0.00  0.00    +0.015 A 
ENDROOT
BRANCH   1   8
ATOM      7  N   UNL     1      -2.089   4.583  -0.617  0.00  0.00    -0.267 N 
ATOM      8  C   UNL     1      -3.163   4.021  -1.203  0.00  0.00    +0.251 C 
ATOM      9  O   UNL     1      -3.059   2.943  -1.757  0.00  0.00    -0.270 OA
BRANCH   7  10
ATOM     10  C   UNL     1      -2.247   5.703   0.201  0.00  0.00    +0.044 A 
ATOM     11  C   UNL     1      -2.333   6.962  -0.353  0.00  0.00    +0.024 A 
ATOM     12  C   UNL     1      -2.485   8.086   0.454  0.00  0.00    +0.002 A 
ATOM     13  C   UNL     1      -2.564   7.973   1.809  0.00  0.00    +0.008 A 
ATOM     14  C   UNL     1      -2.486   6.707   2.413  0.00  0.00    -0.016 A 
ATOM     15  C   UNL     1      -2.326   5.556   1.602  0.00  0.00    +0.004 A 
ATOM     16  C   UNL     1      -2.249   4.292   2.207  0.00  0.00    +0.010 A 
ATOM     17  C   UNL     1      -2.329   4.187   3.563  0.00  0.00    +0.001 A 
ATOM     18  C   UNL     1      -2.487   5.318   4.361  0.00  0.00    +0.001 A 
ATOM     19  C   UNL     1      -2.565   6.560   3.809  0.00  0.00    +0.008 A 
ENDBRANCH   7  10
BRANCH   7  21
ATOM     20  C   UNL     1      -0.516   2.873   0.148  0.00  0.00    +0.025 C 
ATOM     21  C   UNL     1      -0.754   4.020  -0.837  0.00  0.00    +0.110 C 
ENDBRANCH   7  21
ENDBRANCH   1   8
BRANCH   4  22
ATOM     22  N   UNL     1      -8.145   6.663  -1.092  0.00  0.00    -0.297 N 
ATOM     23  H   UNL     1      -8.211   7.558  -0.724  0.00  0.00    +0.154 HD
BRANCH  22  24
ATOM     24  C   UNL     1      -9.244   6.051  -1.576  0.00  0.00    +0.141 C 
ATOM     25  S   UNL     1      -9.161   4.417  -2.081  0.00  0.00    -0.018 S 
BRANCH  24  26
ATOM     26  N   UNL     1     -10.408   6.725  -1.663  0.00  0.00    -0.264 N 
ATOM     27  C   UNL     1     -11.506   6.113  -2.148  0.00  0.00    +0.242 C 
ATOM     28  O   UNL     1     -11.447   4.952  -2.507  0.00  0.00    -0.270 OA
ATOM     29  H   UNL     1     -10.454   7.650  -1.377  0.00  0.00    +0.157 HD
BRANCH  27  30
ATOM     30  C   UNL     1     -12.769   6.844  -2.242  0.00  0.00    +0.068 C 
ATOM     31  C   UNL     1     -13.869   6.231  -2.727  0.00  0.00    +0.013 C 
BRANCH  31  32
ATOM     32  C   UNL     1     -15.139   6.966  -2.822  0.00  0.00    -0.025 A 
ATOM     33  C   UNL     1     -15.212   8.300  -2.405  0.00  0.00    +0.011 A 
ATOM     34  C   UNL     1     -16.403   8.985  -2.502  0.00  0.00    +0.039 A 
ATOM     35  C   UNL     1     -17.532   8.352  -3.001  0.00  0.00    +0.123 A 
ATOM     36  C   UNL     1     -17.468   7.029  -3.411  0.00  0.00    +0.039 A 
ATOM     37  C   UNL     1     -16.281   6.334  -3.325  0.00  0.00    +0.011 A 
ATOM     38  F   UNL     1     -18.699   9.027  -3.087  0.00  0.00    -0.205 F 
ENDBRANCH  31  32
ENDBRANCH  27  30
ENDBRANCH  24  26
ENDBRANCH  22  24
ENDBRANCH   4  22
TORSDOF 8
