REMARK  Name = ZINC08762878
REMARK  7 active torsions:
REMARK  status: ('A' for Active; 'I' for Inactive)
REMARK    1  A    between atoms: C_1  and  O_2
REMARK    2  A    between atoms: O_2  and  C_3
REMARK    3  A    between atoms: C_6  and  C_9
REMARK    4  A    between atoms: C_9  and  C_10
REMARK    5  A    between atoms: C_10  and  C_25
REMARK    6  A    between atoms: N_16  and  C_19
REMARK    7  A    between atoms: C_25  and  N_75
REMARK                            x       y       z     vdW  Elec       q    Type
REMARK                         _______ _______ _______ _____ _____    ______ ____
ROOT
ATOM      1  C   UNL     1      -2.689   7.219  -0.035  0.00  0.00    +0.113 C 
ATOM      2  C   UNL     1      -1.211   7.558  -0.082  0.00  0.00    +0.234 C 
ATOM      3  O   UNL     1      -0.832   8.704  -0.200  0.00  0.00    -0.274 OA
ATOM      4  N   UNL     1      -0.333   6.537   0.013  0.00  0.00    -0.239 N 
ATOM      5  C   UNL     1      -0.734   5.268   0.144  0.00  0.00    +0.315 C 
ATOM      6  O   UNL     1       0.124   4.411   0.222  0.00  0.00    -0.252 OA
ATOM      7  N   UNL     1      -2.011   4.873   0.195  0.00  0.00    -0.222 N 
ATOM      8  C   UNL     1      -3.035   5.749   0.111  0.00  0.00    +0.237 C 
ATOM      9  O   UNL     1      -4.187   5.376   0.153  0.00  0.00    -0.274 OA
ATOM     10  H   UNL     1       0.618   6.730  -0.015  0.00  0.00    +0.159 HD
ENDROOT
BRANCH   7  11
ATOM     11  C   UNL     1      -2.308   3.445   0.340  0.00  0.00    +0.086 C 
ATOM     12  C   UNL     1      -1.730   2.680  -0.852  0.00  0.00    +0.023 C 
ATOM     13  C   UNL     1      -2.040   1.190  -0.700  0.00  0.00    +0.002 C 
ATOM     14  C   UNL     1      -1.413   0.667   0.594  0.00  0.00    +0.000 C 
ATOM     15  C   UNL     1      -1.991   1.433   1.786  0.00  0.00    +0.002 C 
ATOM     16  C   UNL     1      -1.681   2.923   1.634  0.00  0.00    +0.023 C 
ENDBRANCH   7  11
BRANCH   1  17
ATOM     17  C   UNL     1      -3.314   7.978   1.137  0.00  0.00    +0.058 C 
BRANCH  17  21
ATOM     18  C   UNL     1      -1.415   6.792   4.777  0.00  0.00    +0.120 A 
ATOM     19  C   UNL     1      -0.915   7.862   4.049  0.00  0.00    +0.046 A 
ATOM     20  C   UNL     1      -1.531   8.243   2.873  0.00  0.00    +0.007 A 
ATOM     21  C   UNL     1      -2.645   7.560   2.421  0.00  0.00    -0.046 A 
ATOM     22  C   UNL     1      -3.148   6.497   3.148  0.00  0.00    +0.007 A 
ATOM     23  C   UNL     1      -2.533   6.108   4.322  0.00  0.00    +0.046 A 
BRANCH  18  25
ATOM     24  C   UNL     1      -1.381   5.305   6.632  0.00  0.00    +0.277 C 
ATOM     25  O   UNL     1      -0.811   6.415   5.935  0.00  0.00    -0.495 OA
ENDBRANCH  18  25
ENDBRANCH  17  21
ENDBRANCH   1  17
BRANCH   1  26
ATOM     26  C   UNL     1      -3.335   7.726  -1.325  0.00  0.00    -0.053 C 
BRANCH  26  40
ATOM     27  C   UNL     1      -2.868   8.036  -3.679  0.00  0.00    -0.074 C 
ATOM     28  C   UNL     1      -2.028   7.581  -4.862  0.00  0.00    -0.007 C 
ATOM     29  C   UNL     1      -2.208   6.081  -5.113  0.00  0.00    +0.011 C 
ATOM     30  C   UNL     1      -1.835   5.349  -3.818  0.00  0.00    +0.020 C 
ATOM     31  C   UNL     1      -2.799   5.815  -2.714  0.00  0.00    -0.069 C 
ATOM     32  C   UNL     1      -0.439   5.753  -3.403  0.00  0.00    +0.023 A 
ATOM     33  C   UNL     1       0.276   4.863  -2.665  0.00  0.00    +0.022 A 
ATOM     34  C   UNL     1       1.551   5.192  -2.192  0.00  0.00    +0.007 A 
ATOM     35  C   UNL     1       2.055   6.430  -2.466  0.00  0.00    +0.070 A 
ATOM     36  C   UNL     1       1.293   7.322  -3.232  0.00  0.00    +0.251 A 
ATOM     37  O   UNL     1       1.715   8.448  -3.442  0.00  0.00    -0.268 OA
ATOM     38  N   UNL     1       0.093   6.950  -3.742  0.00  0.00    -0.312 N 
ATOM     39  C   UNL     1      -0.553   7.886  -4.662  0.00  0.00    +0.126 C 
ATOM     40  N   UNL     1      -2.535   7.251  -2.472  0.00  0.00    +0.381 N 
ATOM     41  H   UNL     1      -1.539   7.376  -2.258  0.00  0.00    -0.082 HD
ENDBRANCH  26  40
ENDBRANCH   1  26
TORSDOF 6
