REMARK  Name = ZINC13308970
REMARK  10 active torsions:
REMARK  status: ('A' for Active; 'I' for Inactive)
REMARK    1  A    between atoms: C_1  and  C_2
REMARK    2  A    between atoms: C_2  and  C_3
REMARK    3  A    between atoms: C_3  and  C_5
REMARK    4  A    between atoms: C_3  and  C_6
REMARK    5  A    between atoms: C_9  and  S_12
REMARK    6  A    between atoms: S_12  and  N_15
REMARK    7  A    between atoms: N_18  and  S_21
REMARK    8  A    between atoms: S_21  and  C_24
REMARK    9  A    between atoms: C_26  and  C_31
REMARK   10  A    between atoms: C_29  and  C_30
REMARK                            x       y       z     vdW  Elec       q    Type
REMARK                         _______ _______ _______ _____ _____    ______ ____
ROOT
ATOM      1  N   UNL     1       3.182   1.980   4.335  0.00  0.00    -0.174 NA
ATOM      2  C   UNL     1       3.587   1.218   3.146  0.00  0.00    +0.126 C 
ATOM      3  C   UNL     1       4.220   2.184   2.137  0.00  0.00    +0.126 C 
ATOM      4  N   UNL     1       3.327   3.339   1.968  0.00  0.00    -0.174 NA
ATOM      5  C   UNL     1       2.927   4.104   3.158  0.00  0.00    +0.126 C 
ATOM      6  C   UNL     1       2.289   3.135   4.167  0.00  0.00    +0.126 C 
ENDROOT
BRANCH   1   7
ATOM      7  S   UNL     1       3.722   1.545   5.839  0.00  0.00    +0.061 S 
ATOM      8  O   UNL     1       2.779   2.053   6.772  0.00  0.00    -0.153 OA
ATOM      9  O   UNL     1       4.057   0.166   5.767  0.00  0.00    -0.153 OA
BRANCH   7  13
ATOM     10  C   UNL     1       7.592   3.778   6.568  0.00  0.00    -0.044 A 
ATOM     11  C   UNL     1       6.387   4.344   6.939  0.00  0.00    +0.006 A 
ATOM     12  C   UNL     1       5.205   3.662   6.717  0.00  0.00    +0.029 A 
ATOM     13  C   UNL     1       5.229   2.414   6.122  0.00  0.00    +0.105 A 
ATOM     14  C   UNL     1       6.434   1.846   5.756  0.00  0.00    +0.029 A 
ATOM     15  C   UNL     1       7.615   2.530   5.974  0.00  0.00    +0.006 A 
BRANCH  10  16
ATOM     16  C   UNL     1       8.880   4.522   6.810  0.00  0.00    +0.016 C 
ATOM     17  C   UNL     1       9.783   3.693   7.727  0.00  0.00    +0.012 C 
BRANCH  16  19
ATOM     18  C   UNL     1      10.833   5.622   5.706  0.00  0.00    +0.004 C 
ATOM     19  C   UNL     1       9.590   4.760   5.476  0.00  0.00    +0.004 C 
ENDBRANCH  16  19
ENDBRANCH  10  16
ENDBRANCH   7  13
ENDBRANCH   1   7
BRANCH   4  20
ATOM     20  S   UNL     1       2.787   3.774   0.465  0.00  0.00    +0.061 S 
ATOM     21  O   UNL     1       3.740   3.283  -0.467  0.00  0.00    -0.153 OA
ATOM     22  O   UNL     1       2.436   5.149   0.541  0.00  0.00    -0.153 OA
BRANCH  20  23
ATOM     23  C   UNL     1       1.293   2.889   0.171  0.00  0.00    +0.109 A 
ATOM     24  C   UNL     1       1.261   1.887  -0.778  0.00  0.00    +0.044 A 
ATOM     25  C   UNL     1       0.076   1.187  -1.009  0.00  0.00    +0.065 A 
ATOM     26  C   UNL     1      -1.069   1.501  -0.273  0.00  0.00    +0.015 A 
ATOM     27  C   UNL     1      -1.024   2.508   0.668  0.00  0.00    +0.006 A 
ATOM     28  C   UNL     1       0.153   3.199   0.892  0.00  0.00    -0.024 A 
ATOM     29  C   UNL     1       0.196   4.294   1.927  0.00  0.00    +0.046 C 
BRANCH  25  30
ATOM     30  C   UNL     1       0.034   0.114  -2.023  0.00  0.00    +0.387 C 
ATOM     31  O   UNL     1       1.033  -0.161  -2.659  0.00  0.00    -0.241 OA
ATOM     32  O   UNL     1      -1.111  -0.561  -2.244  0.00  0.00    -0.241 OA
ENDBRANCH  25  30
ENDBRANCH  20  23
ENDBRANCH   4  20
TORSDOF 7
