REMARK  Name = ZINC63716189
REMARK  4 active torsions:
REMARK  status: ('A' for Active; 'I' for Inactive)
REMARK    1  A    between atoms: C_1  and  C_2
REMARK    2  A    between atoms: C_5  and  N_12
REMARK    3  A    between atoms: C_13  and  C_15
REMARK    4  A    between atoms: C_18  and  C_23
REMARK                            x       y       z     vdW  Elec       q    Type
REMARK                         _______ _______ _______ _____ _____    ______ ____
ROOT
ATOM      1  N   UNL     1      -0.165  -4.176  -0.074  0.00  0.00    -0.280 N 
ATOM      2  C   UNL     1      -0.042  -4.838  -1.242  0.00  0.00    +0.254 C 
ATOM      3  O   UNL     1       0.146  -4.220  -2.275  0.00  0.00    -0.270 OA
ATOM      4  H   UNL     1      -0.254  -4.670   0.755  0.00  0.00    +0.155 HD
ENDROOT
BRANCH   1   9
ATOM      5  C   UNL     1      -0.126   1.518  -0.065  0.00  0.00    +0.044 C 
ATOM      6  C   UNL     1      -0.142   0.011  -0.058  0.00  0.00    -0.040 A 
ATOM      7  C   UNL     1       0.516  -0.683  -1.030  0.00  0.00    +0.006 A 
ATOM      8  C   UNL     1       0.511  -2.072  -1.039  0.00  0.00    +0.026 A 
ATOM      9  C   UNL     1      -0.163  -2.777  -0.059  0.00  0.00    +0.059 A 
ATOM     10  C   UNL     1      -0.843  -2.084   0.947  0.00  0.00    +0.087 A 
ATOM     11  C   UNL     1      -0.830  -0.678   0.951  0.00  0.00    +0.024 A 
ATOM     12  C   UNL     1      -1.586  -0.264   2.075  0.00  0.00    +0.143 A 
ATOM     13  N   UNL     1      -2.017  -1.320   2.700  0.00  0.00    -0.181 NA
ATOM     14  N   UNL     1      -1.587  -2.474   2.031  0.00  0.00    -0.275 N 
ATOM     15  H   UNL     1      -1.775  -3.388   2.295  0.00  0.00    +0.189 HD
ENDBRANCH   1   9
BRANCH   2  16
ATOM     16  C   UNL     1      -0.133  -6.302  -1.270  0.00  0.00    +0.101 A 
ATOM     17  C   UNL     1      -0.132  -6.988  -2.489  0.00  0.00    +0.020 A 
ATOM     18  C   UNL     1      -0.219  -8.370  -2.487  0.00  0.00    +0.030 A 
ATOM     19  C   UNL     1      -0.307  -9.055  -1.282  0.00  0.00    +0.085 A 
ATOM     20  N   UNL     1      -0.309  -8.379  -0.092  0.00  0.00    -0.319 N 
ATOM     21  H   UNL     1      -0.371  -8.874   0.740  0.00  0.00    +0.169 HD
ATOM     22  C   UNL     1      -0.219  -7.036  -0.061  0.00  0.00    +0.261 A 
ATOM     23  O   UNL     1      -0.216  -6.451   1.008  0.00  0.00    -0.267 OA
BRANCH  19  24
ATOM     24  C   UNL     1      -0.400 -10.517  -1.285  0.00  0.00    +0.151 A 
ATOM     25  C   UNL     1      -0.497 -11.318  -0.182  0.00  0.00    +0.051 A 
ATOM     26  C   UNL     1      -0.561 -12.641  -0.648  0.00  0.00    +0.042 A 
ATOM     27  C   UNL     1      -0.501 -12.590  -1.997  0.00  0.00    +0.196 A 
ATOM     28  O   UNL     1      -0.410 -11.308  -2.378  0.00  0.00    -0.461 OA
ENDBRANCH  19  24
ENDBRANCH   2  16
TORSDOF 3
