REMARK  Name = ZINC22281508
REMARK  11 active torsions:
REMARK  status: ('A' for Active; 'I' for Inactive)
REMARK    1  A    between atoms: C_1  and  C_2
REMARK    2  A    between atoms: C_2  and  C_3
REMARK    3  A    between atoms: C_6  and  C_9
REMARK    4  A    between atoms: C_9  and  N_10
REMARK    5  A    between atoms: C_11  and  N_15
REMARK    6  A    between atoms: C_16  and  C_18
REMARK    7  A    between atoms: C_22  and  S_24
REMARK    8  A    between atoms: S_24  and  N_27
REMARK    9  A    between atoms: N_27  and  C_28
REMARK   10  A    between atoms: C_28  and  C_29
REMARK   11  A    between atoms: C_28  and  C_30
REMARK                            x       y       z     vdW  Elec       q    Type
REMARK                         _______ _______ _______ _____ _____    ______ ____
ROOT
ATOM      1  N   UNL     1      -1.244  -2.111   0.003  0.00  0.00    -0.267 N 
ATOM      2  C   UNL     1      -1.266  -0.764   0.011  0.00  0.00    +0.249 C 
ATOM      3  O   UNL     1      -2.328  -0.173   0.024  0.00  0.00    -0.270 OA
ATOM      4  H   UNL     1      -0.283  -2.646  -0.009  0.00  0.00    +0.157 HD
ENDROOT
BRANCH   2   5
ATOM      5  C   UNL     1       0.002  -0.004   0.002  0.00  0.00    +0.039 A 
ATOM      6  C   UNL     1       1.224  -0.679  -0.013  0.00  0.00    +0.013 A 
ATOM      7  C   UNL     1       2.404   0.035  -0.021  0.00  0.00    +0.003 A 
ATOM      8  C   UNL     1       2.378   1.419  -0.013  0.00  0.00    +0.028 A 
ATOM      9  C   UNL     1       1.170   2.095   0.002  0.00  0.00    +0.106 A 
ATOM     10  C   UNL     1      -0.017   1.391   0.010  0.00  0.00    +0.041 A 
BRANCH   9  11
ATOM     11  S   UNL     1       1.149   3.856   0.011  0.00  0.00    +0.059 S 
ATOM     12  O   UNL     1       2.384   4.280  -0.549  0.00  0.00    -0.153 OA
ATOM     13  O   UNL     1      -0.106   4.250  -0.526  0.00  0.00    -0.153 OA
BRANCH  11  14
ATOM     14  N   UNL     1       1.158   4.338   1.596  0.00  0.00    -0.187 NA
ATOM     15  H   UNL     1       0.230   4.722   2.046  0.00  0.00    +0.148 HD
BRANCH  14  16
ATOM     16  C   UNL     1       2.319   4.052   2.442  0.00  0.00    +0.070 C 
ATOM     17  C   UNL     1       2.529   5.204   3.426  0.00  0.00    +0.025 C 
ATOM     18  C   UNL     1       2.078   2.756   3.217  0.00  0.00    +0.025 C 
ENDBRANCH  14  16
ENDBRANCH  11  14
ENDBRANCH   9  11
ENDBRANCH   2   5
BRANCH   1  20
ATOM     19  N   UNL     1      -2.566  -4.180   0.005  0.00  0.00    -0.246 N 
ATOM     20  C   UNL     1      -2.440  -2.828   0.011  0.00  0.00    +0.124 A 
ATOM     21  C   UNL     1      -3.695  -2.300   0.032  0.00  0.00    +0.065 A 
ATOM     22  C   UNL     1      -4.605  -3.360   0.031  0.00  0.00    +0.136 A 
ATOM     23  N   UNL     1      -3.934  -4.482   0.018  0.00  0.00    -0.178 NA
BRANCH  19  24
ATOM     24  C   UNL     1      -1.468  -5.149  -0.012  0.00  0.00    +0.180 C 
BRANCH  24  28
ATOM     25  C   UNL     1      -0.358  -6.113   3.999  0.00  0.00    -0.048 A 
ATOM     26  C   UNL     1      -1.330  -6.855   3.353  0.00  0.00    +0.004 A 
ATOM     27  C   UNL     1      -1.689  -6.543   2.056  0.00  0.00    +0.006 A 
ATOM     28  C   UNL     1      -1.076  -5.489   1.403  0.00  0.00    -0.026 A 
ATOM     29  C   UNL     1      -0.101  -4.751   2.047  0.00  0.00    +0.006 A 
ATOM     30  C   UNL     1       0.256  -5.060   3.346  0.00  0.00    +0.004 A 
BRANCH  25  32
ATOM     31  C   UNL     1       1.179  -7.466   5.398  0.00  0.00    +0.009 C 
ATOM     32  C   UNL     1       0.033  -6.453   5.414  0.00  0.00    +0.032 C 
ENDBRANCH  25  32
ENDBRANCH  24  28
ENDBRANCH  19  24
ENDBRANCH   1  20
TORSDOF 8
