REMARK  Name = ZINC11997646
REMARK  11 active torsions:
REMARK  status: ('A' for Active; 'I' for Inactive)
REMARK    1  A    between atoms: C_1  and  C_2
REMARK    2  A    between atoms: C_3  and  C_23
REMARK    3  A    between atoms: C_5  and  C_7
REMARK    4  A    between atoms: C_11  and  N_13
REMARK    5  A    between atoms: C_14  and  C_16
REMARK    6  A    between atoms: C_22  and  N_64
REMARK    7  A    between atoms: C_23  and  N_24
REMARK    8  A    between atoms: C_25  and  C_27
REMARK    9  A    between atoms: C_30  and  C_32
REMARK   10  A    between atoms: C_32  and  O_33
REMARK   11  A    between atoms: O_33  and  C_34
REMARK                            x       y       z     vdW  Elec       q    Type
REMARK                         _______ _______ _______ _____ _____    ______ ____
ROOT
ATOM      1  C   UNL     1       7.091  -1.718   0.530  0.00  0.00    +0.088 C 
ATOM      2  C   UNL     1       6.407  -0.382   0.407  0.00  0.00    +0.127 A 
ATOM      3  C   UNL     1       7.008   0.821   0.356  0.00  0.00    +0.100 A 
ATOM      4  N   UNL     1       6.051   1.754   0.243  0.00  0.00    -0.212 NA
ATOM      5  C   UNL     1       4.882   1.158   0.232  0.00  0.00    +0.228 A 
ATOM      6  O   UNL     1       5.078  -0.169   0.329  0.00  0.00    -0.440 OA
ENDROOT
BRANCH   5   7
ATOM      7  C   UNL     1       3.570   1.831   0.123  0.00  0.00    +0.039 A 
ATOM      8  C   UNL     1       3.503   3.222   0.028  0.00  0.00    +0.013 A 
ATOM      9  C   UNL     1       2.277   3.848  -0.073  0.00  0.00    +0.003 A 
ATOM     10  C   UNL     1       1.114   3.101  -0.086  0.00  0.00    +0.023 A 
ATOM     11  C   UNL     1       1.170   1.717   0.015  0.00  0.00    +0.034 A 
ATOM     12  C   UNL     1       2.396   1.078   0.116  0.00  0.00    +0.036 A 
BRANCH  11  13
ATOM     13  N   UNL     1      -0.011   0.966   0.007  0.00  0.00    -0.285 N 
ATOM     14  C   UNL     1      -1.123   1.452   0.594  0.00  0.00    +0.218 C 
ATOM     15  O   UNL     1      -1.122   2.573   1.059  0.00  0.00    -0.275 OA
ATOM     16  H   UNL     1      -0.031   0.097  -0.424  0.00  0.00    +0.155 HD
BRANCH  14  17
ATOM     17  C   UNL     1      -2.366   0.605   0.673  0.00  0.00    +0.059 C 
ATOM     18  C   UNL     1      -3.474   1.387   1.382  0.00  0.00    +0.009 C 
ATOM     19  C   UNL     1      -4.714   0.498   1.511  0.00  0.00    -0.018 C 
ATOM     20  C   UNL     1      -4.345  -0.775   2.276  0.00  0.00    -0.079 C 
ATOM     21  C   UNL     1      -2.065  -0.672   1.462  0.00  0.00    -0.067 C 
ATOM     22  C   UNL     1      -2.998  -2.785   2.188  0.00  0.00    -0.096 C 
ATOM     23  N   UNL     1      -3.291  -1.495   1.529  0.00  0.00    +0.378 N 
ATOM     24  H   UNL     1      -3.623  -1.676   0.575  0.00  0.00    -0.082 HD
ENDBRANCH  14  17
ENDBRANCH  11  13
ENDBRANCH   5   7
BRANCH   3  25
ATOM     25  C   UNL     1       8.492   1.074   0.411  0.00  0.00    +0.163 C 
BRANCH  25  26
ATOM     26  N   UNL     1       9.040   1.065  -0.948  0.00  0.00    -0.305 N 
ATOM     27  C   UNL     1      10.357   1.271  -1.145  0.00  0.00    +0.251 C 
ATOM     28  O   UNL     1      11.092   1.465  -0.195  0.00  0.00    -0.270 OA
ATOM     29  H   UNL     1       8.454   0.910  -1.705  0.00  0.00    +0.149 HD
BRANCH  27  30
ATOM     30  C   UNL     1      10.905   1.262  -2.505  0.00  0.00    +0.074 A 
ATOM     31  C   UNL     1      12.213   1.450  -2.921  0.00  0.00    +0.021 A 
ATOM     32  C   UNL     1      12.455   1.390  -4.271  0.00  0.00    +0.014 A 
ATOM     33  C   UNL     1      11.421   1.154  -5.120  0.00  0.00    +0.016 A 
ATOM     34  S   UNL     1      10.062   0.997  -4.055  0.00  0.00    -0.086 S 
BRANCH  33  35
ATOM     35  C   UNL     1      11.449   1.046  -6.623  0.00  0.00    +0.201 C 
BRANCH  35  36
ATOM     36  O   UNL     1      11.681  -0.312  -6.999  0.00  0.00    -0.378 OA
ATOM     37  C   UNL     1      11.726  -0.525  -8.412  0.00  0.00    +0.194 C 
ENDBRANCH  35  36
ENDBRANCH  33  35
ENDBRANCH  27  30
ENDBRANCH  25  26
ENDBRANCH   3  25
TORSDOF 8
