REMARK  Name = ZINC56174435
REMARK  8 active torsions:
REMARK  status: ('A' for Active; 'I' for Inactive)
REMARK    1  A    between atoms: C_1  and  C_2
REMARK    2  A    between atoms: C_2  and  C_3
REMARK    3  A    between atoms: C_2  and  C_4
REMARK    4  A    between atoms: C_2  and  N_5
REMARK    5  A    between atoms: C_6  and  C_8
REMARK    6  A    between atoms: C_13  and  N_14
REMARK    7  A    between atoms: C_15  and  C_17
REMARK    8  A    between atoms: C_21  and  N_27
REMARK                            x       y       z     vdW  Elec       q    Type
REMARK                         _______ _______ _______ _____ _____    ______ ____
ROOT
ATOM      1  N   UNL     1       4.608   0.720  -2.075  0.00  0.00    -0.280 N 
ATOM      2  C   UNL     1       5.441   1.653  -2.576  0.00  0.00    +0.265 C 
ATOM      3  O   UNL     1       5.558   1.780  -3.781  0.00  0.00    -0.268 OA
ATOM      4  H   UNL     1       4.455   0.669  -1.119  0.00  0.00    +0.155 HD
ENDROOT
BRANCH   2   5
ATOM      5  C   UNL     1       6.206   2.518  -1.668  0.00  0.00    +0.103 A 
ATOM      6  C   UNL     1       7.070   3.495  -2.051  0.00  0.00    +0.041 A 
ATOM      7  C   UNL     1       7.596   4.090  -0.879  0.00  0.00    +0.003 A 
ATOM      8  C   UNL     1       8.512   5.126  -0.654  0.00  0.00    +0.042 A 
ATOM      9  C   UNL     1       8.829   5.486   0.624  0.00  0.00    +0.127 A 
ATOM     10  C   UNL     1       8.253   4.833   1.706  0.00  0.00    +0.035 A 
ATOM     11  C   UNL     1       7.350   3.812   1.511  0.00  0.00    +0.028 A 
ATOM     12  C   UNL     1       7.010   3.427   0.216  0.00  0.00    +0.047 A 
ATOM     13  N   UNL     1       6.159   2.472  -0.288  0.00  0.00    -0.351 N 
ATOM     14  H   UNL     1       5.616   1.865   0.238  0.00  0.00    +0.166 HD
BRANCH   9  15
ATOM     15  N   UNL     1       9.797   6.580   0.858  0.00  0.00    +0.056 N 
ATOM     16  O   UNL     1      10.302   7.152  -0.080  0.00  0.00    -0.126 OA
ATOM     17  O   UNL     1      10.083   6.903   1.988  0.00  0.00    -0.126 OA
ENDBRANCH   9  15
ENDBRANCH   2   5
BRANCH   1  23
ATOM     18  C   UNL     1       2.667  -0.614  -2.643  0.00  0.00    +0.058 A 
ATOM     19  C   UNL     1       2.032  -1.504  -3.512  0.00  0.00    +0.015 A 
ATOM     20  C   UNL     1       2.687  -1.946  -4.641  0.00  0.00    +0.001 A 
ATOM     21  C   UNL     1       3.973  -1.513  -4.920  0.00  0.00    +0.002 A 
ATOM     22  C   UNL     1       4.613  -0.633  -4.070  0.00  0.00    +0.024 A 
ATOM     23  C   UNL     1       3.966  -0.172  -2.930  0.00  0.00    +0.046 A 
BRANCH  18  25
ATOM     24  N   UNL     1       0.688  -0.484  -1.211  0.00  0.00    -0.307 N 
ATOM     25  C   UNL     1       1.972  -0.137  -1.432  0.00  0.00    +0.246 C 
ATOM     26  O   UNL     1       2.557   0.570  -0.634  0.00  0.00    -0.270 OA
ATOM     27  H   UNL     1       0.222  -1.047  -1.848  0.00  0.00    +0.150 HD
BRANCH  24  29
ATOM     28  C   UNL     1      -0.026   1.520  -0.004  0.00  0.00    +0.031 C 
ATOM     29  C   UNL     1      -0.002  -0.010  -0.009  0.00  0.00    +0.026 C 
ATOM     30  C   UNL     1       0.736  -0.511   1.234  0.00  0.00    +0.031 C 
ATOM     31  C   UNL     1      -1.436  -0.543  -0.000  0.00  0.00    +0.031 C 
ENDBRANCH  24  29
ENDBRANCH  18  25
ENDBRANCH   1  23
TORSDOF 5
