REMARK  Name = ZINC20057153
REMARK  8 active torsions:
REMARK  status: ('A' for Active; 'I' for Inactive)
REMARK    1  A    between atoms: C_2  and  C_3
REMARK    2  A    between atoms: C_3  and  N_4
REMARK    3  A    between atoms: N_4  and  C_5
REMARK    4  A    between atoms: C_5  and  N_7
REMARK    5  A    between atoms: N_10  and  C_13
REMARK    6  A    between atoms: C_25  and  N_27
REMARK    7  A    between atoms: N_27  and  S_28
REMARK    8  A    between atoms: S_28  and  C_31
REMARK                            x       y       z     vdW  Elec       q    Type
REMARK                         _______ _______ _______ _____ _____    ______ ____
ROOT
ATOM      1  C   UNL     1      -3.514   1.092   6.933  0.00  0.00    +0.110 C 
ATOM      2  C   UNL     1      -2.961   1.260   8.327  0.00  0.00    -0.020 A 
ATOM      3  C   UNL     1      -1.888   0.761   8.999  0.00  0.00    +0.006 A 
ATOM      4  C   UNL     1      -1.651   1.129  10.325  0.00  0.00    +0.001 A 
ATOM      5  C   UNL     1      -2.466   1.991  11.000  0.00  0.00    +0.008 A 
ATOM      6  C   UNL     1      -3.582   2.527  10.338  0.00  0.00    -0.017 A 
ATOM      7  C   UNL     1      -3.801   2.141   9.003  0.00  0.00    -0.008 A 
ATOM      8  C   UNL     1      -4.875   2.609   8.252  0.00  0.00    -0.019 A 
ATOM      9  C   UNL     1      -5.741   3.475   8.847  0.00  0.00    +0.006 A 
ATOM     10  C   UNL     1      -5.543   3.872  10.171  0.00  0.00    +0.001 A 
ATOM     11  C   UNL     1      -4.495   3.422  10.920  0.00  0.00    +0.008 A 
ATOM     12  C   UNL     1      -4.776   1.980   6.883  0.00  0.00    +0.128 C 
ENDROOT
BRANCH   1  16
ATOM     13  N   UNL     1      -0.079   2.194   4.788  0.00  0.00    -0.310 N 
ATOM     14  C   UNL     1      -0.716   0.921   4.416  0.00  0.00    +0.122 C 
ATOM     15  C   UNL     1      -1.602   0.466   5.586  0.00  0.00    +0.104 C 
ATOM     16  N   UNL     1      -2.533   1.546   5.938  0.00  0.00    -0.291 NA
ATOM     17  C   UNL     1      -1.813   2.736   6.413  0.00  0.00    +0.104 C 
ATOM     18  C   UNL     1      -0.935   3.282   5.282  0.00  0.00    +0.122 C 
BRANCH  13  19
ATOM     19  C   UNL     1       1.254   2.360   4.674  0.00  0.00    +0.133 C 
ATOM     20  S   UNL     1       2.213   1.126   3.975  0.00  0.00    -0.019 S 
BRANCH  19  21
ATOM     21  N   UNL     1       1.831   3.497   5.109  0.00  0.00    -0.323 N 
ATOM     22  H   UNL     1       1.207   4.323   5.481  0.00  0.00    +0.148 HD
BRANCH  21  23
ATOM     23  C   UNL     1       3.290   3.633   5.088  0.00  0.00    +0.130 C 
BRANCH  23  25
ATOM     24  C   UNL     1       4.518   5.081   6.623  0.00  0.00    +0.005 C 
ATOM     25  C   UNL     1       3.676   4.987   5.623  0.00  0.00    -0.016 C 
ENDBRANCH  23  25
ENDBRANCH  21  23
ENDBRANCH  19  21
ENDBRANCH  13  19
ENDBRANCH   1  16
BRANCH  12  26
ATOM     26  N   UNL     1      -4.628   3.016   5.858  0.00  0.00    -0.181 NA
ATOM     27  H   UNL     1      -3.688   3.581   5.779  0.00  0.00    +0.149 HD
BRANCH  26  28
ATOM     28  S   UNL     1      -5.945   3.511   4.984  0.00  0.00    +0.059 S 
ATOM     29  O   UNL     1      -5.489   4.528   4.104  0.00  0.00    -0.153 OA
ATOM     30  O   UNL     1      -6.589   2.333   4.519  0.00  0.00    -0.153 OA
BRANCH  28  31
ATOM     31  C   UNL     1      -7.058   4.282   6.112  0.00  0.00    +0.105 A 
ATOM     32  C   UNL     1      -8.027   3.530   6.749  0.00  0.00    +0.030 A 
ATOM     33  C   UNL     1      -8.898   4.133   7.638  0.00  0.00    +0.022 A 
ATOM     34  C   UNL     1      -8.806   5.492   7.880  0.00  0.00    +0.041 A 
ATOM     35  C   UNL     1      -7.839   6.246   7.238  0.00  0.00    +0.022 A 
ATOM     36  C   UNL     1      -6.966   5.640   6.354  0.00  0.00    +0.030 A 
ATOM     37 CL   UNL     1      -9.903   6.253   8.990  0.00  0.00    -0.084 Cl
ENDBRANCH  28  31
ENDBRANCH  26  28
ENDBRANCH  12  26
TORSDOF 8
