REMARK  Name = ZINC36585793
REMARK  14 active torsions:
REMARK  status: ('A' for Active; 'I' for Inactive)
REMARK    1  A    between atoms: C_1  and  C_2
REMARK    2  A    between atoms: C_2  and  C_3
REMARK    3  A    between atoms: C_2  and  C_4
REMARK    4  A    between atoms: C_2  and  N_5
REMARK    5  A    between atoms: C_6  and  C_8
REMARK    6  A    between atoms: C_8  and  C_10
REMARK    7  A    between atoms: C_8  and  N_17
REMARK    8  A    between atoms: C_13  and  O_16
REMARK    9  A    between atoms: N_17  and  C_30
REMARK   10  A    between atoms: C_18  and  C_20
REMARK   11  A    between atoms: C_22  and  N_27
REMARK   12  A    between atoms: C_30  and  C_31
REMARK   13  A    between atoms: C_30  and  C_32
REMARK   14  A    between atoms: C_30  and  C_33
REMARK                            x       y       z     vdW  Elec       q    Type
REMARK                         _______ _______ _______ _____ _____    ______ ____
ROOT
ATOM      1  C   UNL     1       6.786  -0.322  -0.192  0.00  0.00    +0.193 C 
ENDROOT
BRANCH   1   2
ATOM      2  C   UNL     1       7.909   0.011   0.757  0.00  0.00    -0.018 A 
ATOM      3  C   UNL     1       8.434   1.290   0.782  0.00  0.00    +0.009 A 
ATOM      4  C   UNL     1       9.463   1.597   1.651  0.00  0.00    +0.046 A 
ATOM      5  C   UNL     1       9.969   0.623   2.499  0.00  0.00    +0.117 A 
ATOM      6  C   UNL     1       9.439  -0.659   2.472  0.00  0.00    +0.046 A 
ATOM      7  C   UNL     1       8.407  -0.961   1.605  0.00  0.00    +0.009 A 
BRANCH   5   8
ATOM      8  O   UNL     1      10.982   0.923   3.354  0.00  0.00    -0.507 OA
ATOM      9  H   UNL     1      10.685   1.240   4.218  0.00  0.00    +0.292 HD
ENDBRANCH   5   8
ENDBRANCH   1   2
BRANCH   1  11
ATOM     10  N   UNL     1       5.556  -1.809   1.355  0.00  0.00    -0.309 N 
ATOM     11  C   UNL     1       5.557  -0.696   0.596  0.00  0.00    +0.239 C 
ATOM     12  O   UNL     1       4.569   0.005   0.545  0.00  0.00    -0.273 OA
ATOM     13  H   UNL     1       6.346  -2.369   1.396  0.00  0.00    +0.149 HD
BRANCH  10  15
ATOM     14  C   UNL     1       3.184  -2.377   1.163  0.00  0.00    +0.031 C 
ATOM     15  C   UNL     1       4.360  -2.172   2.121  0.00  0.00    +0.026 C 
ATOM     16  C   UNL     1       4.026  -1.051   3.107  0.00  0.00    +0.031 C 
ATOM     17  C   UNL     1       4.622  -3.467   2.891  0.00  0.00    +0.031 C 
ENDBRANCH  10  15
ENDBRANCH   1  11
BRANCH   1  18
ATOM     18  N   UNL     1       6.494   0.843  -1.030  0.00  0.00    -0.277 N 
ATOM     19  C   UNL     1       6.305   2.051  -0.464  0.00  0.00    +0.252 C 
ATOM     20  O   UNL     1       5.991   2.130   0.708  0.00  0.00    -0.270 OA
BRANCH  19  21
ATOM     21  C   UNL     1       6.480   3.277  -1.265  0.00  0.00    +0.086 A 
ATOM     22  C   UNL     1       5.746   3.460  -2.440  0.00  0.00    +0.049 A 
ATOM     23  C   UNL     1       5.914   4.607  -3.184  0.00  0.00    +0.127 A 
ATOM     24  C   UNL     1       6.809   5.582  -2.772  0.00  0.00    +0.036 A 
ATOM     25  C   UNL     1       7.540   5.415  -1.614  0.00  0.00    +0.054 A 
ATOM     26  C   UNL     1       7.379   4.269  -0.849  0.00  0.00    +0.191 A 
ATOM     27  O   UNL     1       8.094   4.105   0.292  0.00  0.00    -0.287 OA
BRANCH  23  28
ATOM     28  N   UNL     1       5.136   4.799  -4.428  0.00  0.00    +0.056 N 
ATOM     29  O   UNL     1       4.290   3.995  -4.742  0.00  0.00    -0.126 OA
ATOM     30  O   UNL     1       5.348   5.759  -5.132  0.00  0.00    -0.126 OA
ENDBRANCH  23  28
ENDBRANCH  19  21
BRANCH  18  31
ATOM     31  C   UNL     1       6.407   0.695  -2.485  0.00  0.00    +0.030 C 
ATOM     32  C   UNL     1       7.088  -0.608  -2.907  0.00  0.00    +0.031 C 
ATOM     33  C   UNL     1       4.936   0.661  -2.907  0.00  0.00    +0.031 C 
ATOM     34  C   UNL     1       7.104   1.877  -3.161  0.00  0.00    +0.031 C 
ENDBRANCH  18  31
ENDBRANCH   1  18
TORSDOF 8
