REMARK  Name = ZINC14649227
REMARK  9 active torsions:
REMARK  status: ('A' for Active; 'I' for Inactive)
REMARK    1  A    between atoms: C_1  and  C_2
REMARK    2  A    between atoms: C_2  and  C_3
REMARK    3  A    between atoms: C_3  and  C_4
REMARK    4  A    between atoms: C_4  and  O_5
REMARK    5  A    between atoms: O_5  and  C_6
REMARK    6  A    between atoms: C_11  and  C_12
REMARK    7  A    between atoms: N_14  and  C_15
REMARK    8  A    between atoms: C_18  and  S_21
REMARK    9  A    between atoms: S_21  and  N_24
REMARK                            x       y       z     vdW  Elec       q    Type
REMARK                         _______ _______ _______ _____ _____    ______ ____
ROOT
ATOM      1  C   UNL     1       2.410  -2.733  -0.137  0.00  0.00    +0.252 C 
ATOM      2  O   UNL     1       3.455  -2.112  -0.144  0.00  0.00    -0.270 OA
ATOM      3  N   UNL     1       1.238  -2.079  -0.020  0.00  0.00    -0.281 N 
ATOM      4  H   UNL     1       0.409  -2.578   0.053  0.00  0.00    +0.155 HD
ENDROOT
BRANCH   1  10
ATOM      5  C   UNL     1       3.642  -4.888  -0.377  0.00  0.00    +0.133 A 
ATOM      6  C   UNL     1       3.645  -6.271  -0.487  0.00  0.00    +0.047 A 
ATOM      7  C   UNL     1       2.454  -6.969  -0.478  0.00  0.00    +0.019 A 
ATOM      8  C   UNL     1       1.248  -6.296  -0.358  0.00  0.00    +0.019 A 
ATOM      9  C   UNL     1       1.227  -4.922  -0.242  0.00  0.00    +0.032 A 
ATOM     10  C   UNL     1       2.425  -4.204  -0.256  0.00  0.00    +0.080 A 
ATOM     11 BR   UNL     1      -0.375  -7.266  -0.346  0.00  0.00    -0.050 Br
BRANCH   5  12
ATOM     12  O   UNL     1       4.812  -4.201  -0.386  0.00  0.00    -0.491 OA
BRANCH  12  13
ATOM     13  C   UNL     1       6.012  -4.966  -0.512  0.00  0.00    +0.229 C 
BRANCH  13  14
ATOM     14  C   UNL     1       7.220  -4.027  -0.503  0.00  0.00    +0.041 C 
BRANCH  14  16
ATOM     15  C   UNL     1       9.712  -3.906  -0.629  0.00  0.00    +0.004 C 
ATOM     16  C   UNL     1       8.505  -4.846  -0.639  0.00  0.00    -0.000 C 
ENDBRANCH  14  16
ENDBRANCH  13  14
ENDBRANCH  12  13
ENDBRANCH   5  12
ENDBRANCH   1  10
BRANCH   3  17
ATOM     17  C   UNL     1       1.216  -0.681  -0.005  0.00  0.00    +0.034 A 
ATOM     18  C   UNL     1       0.161   0.005  -0.594  0.00  0.00    +0.025 A 
ATOM     19  C   UNL     1       0.142   1.386  -0.577  0.00  0.00    +0.030 A 
ATOM     20  C   UNL     1       1.172   2.086   0.025  0.00  0.00    +0.105 A 
ATOM     21  C   UNL     1       2.224   1.406   0.612  0.00  0.00    +0.030 A 
ATOM     22  C   UNL     1       2.248   0.025   0.598  0.00  0.00    +0.025 A 
BRANCH  20  23
ATOM     23  S   UNL     1       1.145   3.848   0.044  0.00  0.00    +0.056 S 
ATOM     24  O   UNL     1       2.493   4.273   0.188  0.00  0.00    -0.153 OA
ATOM     25  O   UNL     1       0.330   4.253  -1.047  0.00  0.00    -0.153 OA
BRANCH  23  26
ATOM     26  N   UNL     1       0.353   4.310   1.423  0.00  0.00    -0.204 NA
ATOM     27  H   UNL     1       0.010   3.638   2.034  0.00  0.00    +0.144 HD
ATOM     28  H   UNL     1       0.231   5.252   1.620  0.00  0.00    +0.144 HD
ENDBRANCH  23  26
ENDBRANCH  20  23
ENDBRANCH   3  17
TORSDOF 8
