REMARK  Name = ZINC39657769
REMARK  8 active torsions:
REMARK  status: ('A' for Active; 'I' for Inactive)
REMARK    1  A    between atoms: C_4  and  S_31
REMARK    2  A    between atoms: C_5  and  C_7
REMARK    3  A    between atoms: C_7  and  N_8
REMARK    4  A    between atoms: C_9  and  C_11
REMARK    5  A    between atoms: C_22  and  C_24
REMARK    6  A    between atoms: S_31  and  C_32
REMARK    7  A    between atoms: C_37  and  C_38
REMARK    8  A    between atoms: C_38  and  O_39
REMARK                            x       y       z     vdW  Elec       q    Type
REMARK                         _______ _______ _______ _____ _____    ______ ____
ROOT
ATOM      1  N   UNL     1       2.317  -4.129   0.703  0.00  0.00    -0.311 N 
ATOM      2  C   UNL     1       1.241  -4.288   1.498  0.00  0.00    +0.218 C 
ATOM      3  O   UNL     1       0.146  -3.938   1.114  0.00  0.00    -0.275 OA
ATOM      4  H   UNL     1       3.194  -4.409   1.010  0.00  0.00    +0.149 HD
ENDROOT
BRANCH   2   5
ATOM      5  C   UNL     1       1.400  -4.901   2.866  0.00  0.00    +0.100 C 
ATOM      6  C   UNL     1       0.210  -4.511   3.771  0.00  0.00    +0.121 C 
ATOM      7  N   UNL     1      -0.741  -5.641   3.648  0.00  0.00    -0.300 N 
ATOM      8  C   UNL     1       0.122  -6.847   3.625  0.00  0.00    +0.115 C 
ATOM      9  C   UNL     1       1.341  -6.435   2.775  0.00  0.00    -0.004 C 
ATOM     10  C   UNL     1       2.615  -7.048   3.348  0.00  0.00    -0.010 C 
ATOM     11  C   UNL     1       2.558  -8.570   3.194  0.00  0.00    -0.082 C 
ATOM     12  N   UNL     1       2.421  -8.915   1.773  0.00  0.00    +0.379 N 
ATOM     13  C   UNL     1       1.148  -8.401   1.254  0.00  0.00    -0.082 C 
ATOM     14  C   UNL     1       1.145  -6.872   1.327  0.00  0.00    -0.010 C 
ATOM     15  C   UNL     1      -2.085  -5.586   3.575  0.00  0.00    +0.219 C 
ATOM     16  O   UNL     1      -2.646  -4.512   3.523  0.00  0.00    -0.275 OA
ATOM     17  H   UNL     1       3.184  -8.507   1.254  0.00  0.00    -0.086 HD
ATOM     18  H   UNL     1       2.445  -9.918   1.668  0.00  0.00    -0.086 HD
BRANCH  15  19
ATOM     19  C   UNL     1      -2.892  -6.859   3.558  0.00  0.00    +0.079 C 
ATOM     20  C   UNL     1      -4.388  -6.520   3.541  0.00  0.00    +0.017 C 
ATOM     21  C   UNL     1      -5.175  -7.818   3.344  0.00  0.00    +0.027 C 
ATOM     22  C   UNL     1      -4.699  -8.863   4.309  0.00  0.00    -0.031 C 
ATOM     23  C   UNL     1      -3.575  -8.802   4.947  0.00  0.00    -0.030 C 
ATOM     24  C   UNL     1      -2.590  -7.676   4.816  0.00  0.00    +0.039 C 
ENDBRANCH  15  19
ENDBRANCH   2   5
BRANCH   1  25
ATOM     25  C   UNL     1       2.164  -3.533  -0.627  0.00  0.00    +0.140 C 
BRANCH  25  30
ATOM     26  C   UNL     1       5.447  -2.222  -1.952  0.00  0.00    +0.000 A 
ATOM     27  C   UNL     1       5.976  -3.348  -2.557  0.00  0.00    +0.001 A 
ATOM     28  C   UNL     1       5.273  -4.537  -2.541  0.00  0.00    +0.015 A 
ATOM     29  C   UNL     1       4.034  -4.601  -1.914  0.00  0.00    +0.017 A 
ATOM     30  C   UNL     1       3.507  -3.468  -1.307  0.00  0.00    -0.017 A 
ATOM     31  C   UNL     1       4.215  -2.283  -1.328  0.00  0.00    +0.006 A 
BRANCH  29  32
ATOM     32  S   UNL     1       3.134  -6.116  -1.891  0.00  0.00    -0.089 S 
BRANCH  32  33
ATOM     33  C   UNL     1       4.090  -7.195  -2.904  0.00  0.00    +0.018 A 
ATOM     34  C   UNL     1       4.900  -8.163  -2.320  0.00  0.00    +0.015 A 
ATOM     35  C   UNL     1       5.647  -9.007  -3.117  0.00  0.00    +0.001 A 
ATOM     36  C   UNL     1       5.590  -8.891  -4.494  0.00  0.00    +0.000 A 
ATOM     37  C   UNL     1       4.785  -7.930  -5.078  0.00  0.00    +0.007 A 
ATOM     38  C   UNL     1       4.031  -7.085  -4.287  0.00  0.00    -0.008 A 
BRANCH  38  39
ATOM     39  C   UNL     1       3.150  -6.042  -4.925  0.00  0.00    +0.192 C 
BRANCH  39  40
ATOM     40  O   UNL     1       3.262  -6.128  -6.347  0.00  0.00    -0.390 OA
ATOM     41  H   UNL     1       2.720  -5.485  -6.824  0.00  0.00    +0.210 HD
ENDBRANCH  39  40
ENDBRANCH  38  39
ENDBRANCH  32  33
ENDBRANCH  29  32
ENDBRANCH  25  30
ENDBRANCH   1  25
TORSDOF 8
