REMARK  Name = ZINC02295133
REMARK  12 active torsions:
REMARK  status: ('A' for Active; 'I' for Inactive)
REMARK    1  A    between atoms: C_1  and  C_2
REMARK    2  A    between atoms: C_2  and  O_3
REMARK    3  A    between atoms: O_3  and  C_4
REMARK    4  A    between atoms: C_4  and  C_6
REMARK    5  A    between atoms: C_7  and  C_34
REMARK    6  A    between atoms: N_8  and  C_21
REMARK    7  A    between atoms: C_12  and  O_20
REMARK    8  A    between atoms: C_16  and  O_19
REMARK    9  A    between atoms: C_21  and  C_22
REMARK   10  A    between atoms: C_22  and  C_24
REMARK   11  A    between atoms: C_22  and  O_33
REMARK   12  A    between atoms: C_27  and  N_30
REMARK                            x       y       z     vdW  Elec       q    Type
REMARK                         _______ _______ _______ _____ _____    ______ ____
ROOT
ATOM      1  C   UNL     1      -1.349   2.909  -2.832  0.00  0.00    +0.087 A 
ATOM      2  C   UNL     1      -0.532   2.779  -1.745  0.00  0.00    +0.031 A 
ATOM      3  N   UNL     1      -0.721   1.571  -1.179  0.00  0.00    -0.340 N 
ATOM      4  C   UNL     1      -1.669   0.854  -1.874  0.00  0.00    +0.058 A 
ATOM      5  C   UNL     1      -2.111   1.650  -2.932  0.00  0.00    +0.018 A 
ATOM      6  C   UNL     1      -3.090   1.182  -3.822  0.00  0.00    +0.056 A 
ATOM      7  C   UNL     1      -3.634  -0.056  -3.668  0.00  0.00    +0.125 A 
ATOM      8  C   UNL     1      -3.216  -0.889  -2.605  0.00  0.00    +0.026 A 
ATOM      9  C   UNL     1      -2.228  -0.432  -1.700  0.00  0.00    +0.013 A 
ATOM     10  C   UNL     1      -1.818  -1.263  -0.647  0.00  0.00    +0.056 A 
ATOM     11  C   UNL     1      -2.381  -2.512  -0.509  0.00  0.00    +0.118 A 
ATOM     12  C   UNL     1      -3.355  -2.957  -1.406  0.00  0.00    +0.046 A 
ATOM     13  C   UNL     1      -3.769  -2.168  -2.435  0.00  0.00    +0.016 A 
ATOM     14  C   UNL     1       0.434   3.826  -1.255  0.00  0.00    +0.064 C 
ENDROOT
BRANCH   1  15
ATOM     15  C   UNL     1      -1.450   4.071  -3.723  0.00  0.00    +0.341 C 
ATOM     16  O   UNL     1      -0.739   4.146  -4.707  0.00  0.00    -0.245 OA
BRANCH  15  17
ATOM     17  O   UNL     1      -2.331   5.054  -3.451  0.00  0.00    -0.461 OA
BRANCH  17  19
ATOM     18  C   UNL     1      -3.427   7.181  -3.906  0.00  0.00    +0.048 C 
ATOM     19  C   UNL     1      -2.376   6.173  -4.376  0.00  0.00    +0.229 C 
ENDBRANCH  17  19
ENDBRANCH  15  17
ENDBRANCH   1  15
BRANCH  11  20
ATOM     20  O   UNL     1      -1.986  -3.319   0.510  0.00  0.00    -0.507 OA
ATOM     21  H   UNL     1      -1.240  -3.895   0.290  0.00  0.00    +0.292 HD
ENDBRANCH  11  20
BRANCH   7  22
ATOM     22  O   UNL     1      -4.582  -0.493  -4.539  0.00  0.00    -0.506 OA
ATOM     23  H   UNL     1      -4.224  -0.961  -5.307  0.00  0.00    +0.292 HD
ENDBRANCH   7  22
BRANCH   3  24
ATOM     24  C   UNL     1      -0.013   1.086   0.008  0.00  0.00    +0.158 C 
BRANCH  24  25
ATOM     25  C   UNL     1      -0.870   1.335   1.251  0.00  0.00    +0.164 C 
BRANCH  25  26
ATOM     26  C   UNL     1      -0.197   0.727   2.455  0.00  0.00    -0.017 A 
ATOM     27  C   UNL     1       0.773   1.437   3.137  0.00  0.00    +0.008 A 
ATOM     28  C   UNL     1       1.386   0.881   4.244  0.00  0.00    +0.033 A 
ATOM     29  C   UNL     1       1.036  -0.390   4.663  0.00  0.00    +0.126 A 
ATOM     30  C   UNL     1       0.071  -1.102   3.977  0.00  0.00    +0.033 A 
ATOM     31  C   UNL     1      -0.546  -0.544   2.873  0.00  0.00    +0.008 A 
BRANCH  29  32
ATOM     32  N   UNL     1       1.697  -0.987   5.845  0.00  0.00    +0.056 N 
ATOM     33  O   UNL     1       1.389  -2.106   6.214  0.00  0.00    -0.126 OA
ATOM     34  O   UNL     1       2.548  -0.359   6.449  0.00  0.00    -0.126 OA
ENDBRANCH  29  32
ENDBRANCH  25  26
BRANCH  25  35
ATOM     35  O   UNL     1      -1.022   2.741   1.450  0.00  0.00    -0.385 OA
ATOM     36  H   UNL     1      -0.188   3.213   1.580  0.00  0.00    +0.210 HD
ENDBRANCH  25  35
ENDBRANCH  24  25
ENDBRANCH   3  24
TORSDOF 10
