REMARK  Name = ZINC48132319
REMARK  8 active torsions:
REMARK  status: ('A' for Active; 'I' for Inactive)
REMARK    1  A    between atoms: C_1  and  N_2
REMARK    2  A    between atoms: N_2  and  C_3
REMARK    3  A    between atoms: C_5  and  C_10
REMARK    4  A    between atoms: C_10  and  N_11
REMARK    5  A    between atoms: N_14  and  C_15
REMARK    6  A    between atoms: C_15  and  C_16
REMARK    7  A    between atoms: C_16  and  S_17
REMARK    8  A    between atoms: S_17  and  C_18
REMARK                            x       y       z     vdW  Elec       q    Type
REMARK                         _______ _______ _______ _____ _____    ______ ____
ROOT
ATOM      1  N   UNL     1      -1.587  -2.894   0.520  0.00  0.00    -0.295 N 
ATOM      2  C   UNL     1      -1.915  -3.530   1.663  0.00  0.00    +0.300 C 
ATOM      3  O   UNL     1      -1.051  -4.060   2.333  0.00  0.00    -0.253 OA
ATOM      4  N   UNL     1      -3.202  -3.578   2.062  0.00  0.00    -0.299 N 
ATOM      5  H   UNL     1      -2.277  -2.471  -0.015  0.00  0.00    +0.151 HD
ATOM      6  H   UNL     1      -3.892  -3.155   1.526  0.00  0.00    +0.150 HD
ENDROOT
BRANCH   1   7
ATOM      7  C   UNL     1      -0.189  -2.842   0.087  0.00  0.00    +0.144 C 
BRANCH   7  12
ATOM      8  C   UNL     1      -1.567   0.417   0.463  0.00  0.00    +0.130 C 
ATOM      9  N   UNL     1      -0.246   0.001  -0.013  0.00  0.00    -0.323 N 
ATOM     10  C   UNL     1       0.948   0.312   0.777  0.00  0.00    +0.130 C 
ATOM     11  C   UNL     1      -0.125  -0.689  -1.214  0.00  0.00    +0.103 A 
ATOM     12  C   UNL     1      -0.093  -2.080  -1.210  0.00  0.00    +0.008 A 
ATOM     13  C   UNL     1       0.027  -2.753  -2.412  0.00  0.00    +0.010 A 
ATOM     14  C   UNL     1       0.113  -2.010  -3.582  0.00  0.00    +0.018 A 
ATOM     15  C   UNL     1       0.075  -0.632  -3.513  0.00  0.00    +0.084 A 
ATOM     16  N   UNL     1      -0.046  -0.016  -2.352  0.00  0.00    -0.349 N 
ATOM     17  H   UNL     1      -0.074   0.953  -2.331  0.00  0.00    +0.167 HD
ENDBRANCH   7  12
ENDBRANCH   1   7
BRANCH   4  18
ATOM     18  C   UNL     1      -3.558  -4.269   3.303  0.00  0.00    +0.116 C 
BRANCH  18  19
ATOM     19  C   UNL     1      -5.070  -4.176   3.523  0.00  0.00    +0.093 C 
BRANCH  19  20
ATOM     20  S   UNL     1      -5.511  -5.032   5.060  0.00  0.00    -0.124 S 
BRANCH  20  21
ATOM     21  C   UNL     1      -7.259  -4.837   5.169  0.00  0.00    +0.008 A 
ATOM     22  C   UNL     1      -7.946  -4.148   4.177  0.00  0.00    +0.016 A 
ATOM     23  C   UNL     1      -9.316  -3.998   4.266  0.00  0.00    +0.021 A 
ATOM     24  C   UNL     1     -10.005  -4.532   5.340  0.00  0.00    +0.041 A 
ATOM     25  C   UNL     1      -9.323  -5.220   6.330  0.00  0.00    +0.021 A 
ATOM     26  C   UNL     1      -7.954  -5.378   6.244  0.00  0.00    +0.016 A 
ATOM     27 CL   UNL     1     -11.727  -4.341   5.448  0.00  0.00    -0.084 Cl
ENDBRANCH  20  21
ENDBRANCH  19  20
ENDBRANCH  18  19
ENDBRANCH   4  18
TORSDOF 6
