REMARK  Name = ZINC36821320
REMARK  8 active torsions:
REMARK  status: ('A' for Active; 'I' for Inactive)
REMARK    1  A    between atoms: C_1  and  C_2
REMARK    2  A    between atoms: C_9  and  C_16
REMARK    3  A    between atoms: C_11  and  O_12
REMARK    4  A    between atoms: C_16  and  S_17
REMARK    5  A    between atoms: S_17  and  C_18
REMARK    6  A    between atoms: C_21  and  C_29
REMARK    7  A    between atoms: N_22  and  C_23
REMARK    8  A    between atoms: C_29  and  N_30
REMARK                            x       y       z     vdW  Elec       q    Type
REMARK                         _______ _______ _______ _____ _____    ______ ____
ROOT
ATOM      1  S   UNL     1       2.039  -7.185  -3.234  0.00  0.00    -0.081 S 
ENDROOT
BRANCH   1   2
ATOM      2  C   UNL     1       2.046  -8.128  -4.723  0.00  0.00    +0.196 A 
ATOM      3  N   UNL     1       1.046  -8.270  -5.562  0.00  0.00    -0.122 NA
ATOM      4  N   UNL     1       1.400  -9.025  -6.540  0.00  0.00    -0.135 NA
ATOM      5  C   UNL     1       2.636  -9.408  -6.387  0.00  0.00    +0.122 A 
ATOM      6  N   UNL     1       3.096  -8.846  -5.226  0.00  0.00    -0.276 N 
BRANCH   6   7
ATOM      7  C   UNL     1       4.375  -8.981  -4.668  0.00  0.00    +0.050 A 
ATOM      8  C   UNL     1       5.477  -8.437  -5.314  0.00  0.00    +0.026 A 
ATOM      9  C   UNL     1       6.736  -8.571  -4.762  0.00  0.00    +0.002 A 
ATOM     10  C   UNL     1       6.900  -9.247  -3.567  0.00  0.00    +0.000 A 
ATOM     11  C   UNL     1       5.804  -9.790  -2.921  0.00  0.00    +0.002 A 
ATOM     12  C   UNL     1       4.542  -9.654  -3.465  0.00  0.00    +0.026 A 
ENDBRANCH   6   7
BRANCH   5  13
ATOM     13  C   UNL     1       3.416 -10.300  -7.319  0.00  0.00    -0.001 C 
BRANCH  13  14
ATOM     14  N   UNL     1       3.152 -11.706  -6.986  0.00  0.00    +0.384 N 
ATOM     15  C   UNL     1       1.756 -12.064  -7.345  0.00  0.00    -0.078 C 
ATOM     16  C   UNL     1       1.808 -13.606  -7.477  0.00  0.00    -0.020 C 
ATOM     17  C   UNL     1       3.192 -13.851  -8.122  0.00  0.00    -0.020 C 
ATOM     18  C   UNL     1       4.016 -12.592  -7.796  0.00  0.00    -0.078 C 
ATOM     19  H   UNL     1       3.312 -11.867  -6.003  0.00  0.00    -0.081 HD
ENDBRANCH  13  14
ENDBRANCH   5  13
ENDBRANCH   1   2
BRANCH   1  20
ATOM     20  C   UNL     1       0.362  -6.498  -3.158  0.00  0.00    +0.113 C 
BRANCH  20  29
ATOM     21  C   UNL     1       0.243   2.093  -1.131  0.00  0.00    +0.109 C 
ATOM     22  C   UNL     1       0.398   0.594  -1.089  0.00  0.00    +0.214 C 
ATOM     23  O   UNL     1       0.715   0.044  -0.049  0.00  0.00    -0.276 OA
ATOM     24  N   UNL     1       0.192  -0.121  -2.177  0.00  0.00    -0.286 N 
ATOM     25  C   UNL     1       0.198  -1.481  -2.109  0.00  0.00    +0.037 A 
ATOM     26  C   UNL     1       0.333  -2.239  -3.285  0.00  0.00    +0.024 A 
ATOM     27  C   UNL     1       0.341  -3.596  -3.231  0.00  0.00    +0.013 A 
ATOM     28  C   UNL     1       0.213  -4.250  -1.992  0.00  0.00    +0.022 A 
ATOM     29  C   UNL     1       0.219  -5.659  -1.914  0.00  0.00    -0.020 A 
ATOM     30  C   UNL     1       0.091  -6.251  -0.674  0.00  0.00    +0.092 A 
ATOM     31  C   UNL     1      -0.040  -5.462   0.460  0.00  0.00    +0.285 A 
ATOM     32  O   UNL     1      -0.045  -4.127   0.382  0.00  0.00    -0.425 OA
ATOM     33  C   UNL     1       0.076  -3.496  -0.805  0.00  0.00    +0.141 A 
ATOM     34  C   UNL     1       0.075  -2.114  -0.871  0.00  0.00    +0.070 A 
ATOM     35  H   UNL     1       0.036   0.322  -3.026  0.00  0.00    +0.155 HD
BRANCH  31  36
ATOM     36  O   UNL     1      -0.164  -6.052   1.664  0.00  0.00    -0.480 OA
ATOM     37  H   UNL     1      -0.250  -5.431   2.400  0.00  0.00    +0.295 HD
ENDBRANCH  31  36
ENDBRANCH  20  29
ENDBRANCH   1  20
TORSDOF 7
