REMARK  Name = ZINC03262832
REMARK  13 active torsions:
REMARK  status: ('A' for Active; 'I' for Inactive)
REMARK    1  A    between atoms: C_1  and  C_2
REMARK    2  A    between atoms: C_5  and  N_8
REMARK    3  A    between atoms: C_9  and  C_11
REMARK    4  A    between atoms: C_11  and  N_65
REMARK    5  A    between atoms: C_12  and  C_13
REMARK    6  A    between atoms: C_12  and  N_65
REMARK    7  A    between atoms: C_13  and  C_14
REMARK    8  A    between atoms: C_17  and  S_20
REMARK    9  A    between atoms: S_20  and  N_23
REMARK   10  A    between atoms: C_24  and  C_25
REMARK   11  A    between atoms: C_24  and  N_65
REMARK   12  A    between atoms: N_27  and  C_28
REMARK   13  A    between atoms: C_31  and  C_34
REMARK                            x       y       z     vdW  Elec       q    Type
REMARK                         _______ _______ _______ _____ _____    ______ ____
ROOT
ATOM      1  N   UNL     1       3.653   1.907   0.551  0.00  0.00    +0.391 N 
ATOM      2  H   UNL     1       3.430   2.651  -0.120  0.00  0.00    -0.080 HD
ENDROOT
BRANCH   1   3
ATOM      3  C   UNL     1       2.534   0.942   0.587  0.00  0.00    +0.020 C 
BRANCH   3   5
ATOM      4  N   UNL     1       0.078   1.030   0.865  0.00  0.00    -0.287 N 
ATOM      5  C   UNL     1       1.248   1.696   0.812  0.00  0.00    +0.201 C 
ATOM      6  O   UNL     1       1.268   2.901   0.945  0.00  0.00    -0.278 OA
ATOM      7  H   UNL     1       0.053   0.076   0.692  0.00  0.00    +0.155 HD
BRANCH   4  12
ATOM      8  C   UNL     1      -4.715   3.816   2.075  0.00  0.00    +0.044 C 
ATOM      9  C   UNL     1      -3.442   3.076   1.753  0.00  0.00    -0.050 A 
ATOM     10  C   UNL     1      -2.455   3.692   1.006  0.00  0.00    +0.005 A 
ATOM     11  C   UNL     1      -1.288   3.017   0.709  0.00  0.00    +0.023 A 
ATOM     12  C   UNL     1      -1.104   1.718   1.163  0.00  0.00    +0.033 A 
ATOM     13  C   UNL     1      -2.099   1.099   1.909  0.00  0.00    +0.023 A 
ATOM     14  C   UNL     1      -3.262   1.782   2.207  0.00  0.00    +0.005 A 
ENDBRANCH   4  12
ENDBRANCH   3   5
ENDBRANCH   1   3
BRANCH   1  15
ATOM     15  C   UNL     1       3.844   2.508   1.888  0.00  0.00    -0.073 C 
BRANCH  15  16
ATOM     16  C   UNL     1       4.248   1.438   2.904  0.00  0.00    +0.016 C 
BRANCH  16  17
ATOM     17  C   UNL     1       4.311   2.050   4.280  0.00  0.00    -0.049 A 
ATOM     18  C   UNL     1       5.494   2.596   4.740  0.00  0.00    +0.005 A 
ATOM     19  C   UNL     1       5.551   3.161   6.000  0.00  0.00    +0.029 A 
ATOM     20  C   UNL     1       4.426   3.172   6.804  0.00  0.00    +0.105 A 
ATOM     21  C   UNL     1       3.244   2.621   6.346  0.00  0.00    +0.029 A 
ATOM     22  C   UNL     1       3.186   2.060   5.084  0.00  0.00    +0.005 A 
BRANCH  20  23
ATOM     23  S   UNL     1       4.499   3.889   8.412  0.00  0.00    +0.056 S 
ATOM     24  O   UNL     1       5.571   4.822   8.392  0.00  0.00    -0.153 OA
ATOM     25  O   UNL     1       3.171   4.261   8.752  0.00  0.00    -0.153 OA
BRANCH  23  26
ATOM     26  N   UNL     1       4.938   2.688   9.464  0.00  0.00    -0.204 NA
ATOM     27  H   UNL     1       5.443   2.903  10.264  0.00  0.00    +0.144 HD
ATOM     28  H   UNL     1       4.689   1.768   9.281  0.00  0.00    +0.144 HD
ENDBRANCH  23  26
ENDBRANCH  20  23
ENDBRANCH  16  17
ENDBRANCH  15  16
ENDBRANCH   1  15
BRANCH   1  29
ATOM     29  C   UNL     1       4.893   1.227   0.120  0.00  0.00    +0.020 C 
BRANCH  29  30
ATOM     30  C   UNL     1       5.908   2.272  -0.265  0.00  0.00    +0.201 C 
ATOM     31  O   UNL     1       5.653   3.449  -0.120  0.00  0.00    -0.278 OA
ATOM     32  N   UNL     1       7.100   1.898  -0.772  0.00  0.00    -0.287 N 
ATOM     33  H   UNL     1       7.279   0.962  -0.950  0.00  0.00    +0.155 HD
BRANCH  32  34
ATOM     34  C   UNL     1       8.078   2.861  -1.042  0.00  0.00    +0.033 A 
ATOM     35  C   UNL     1       7.710   4.114  -1.516  0.00  0.00    +0.023 A 
ATOM     36  C   UNL     1       8.678   5.064  -1.776  0.00  0.00    +0.005 A 
ATOM     37  C   UNL     1      10.013   4.766  -1.575  0.00  0.00    -0.050 A 
ATOM     38  C   UNL     1      10.383   3.518  -1.108  0.00  0.00    +0.005 A 
ATOM     39  C   UNL     1       9.420   2.565  -0.841  0.00  0.00    +0.023 A 
ATOM     40  C   UNL     1      11.067   5.803  -1.865  0.00  0.00    +0.044 C 
ENDBRANCH  32  34
ENDBRANCH  29  30
ENDBRANCH   1  29
TORSDOF 11
