REMARK  Name = ZINC13982812
REMARK  9 active torsions:
REMARK  status: ('A' for Active; 'I' for Inactive)
REMARK    1  A    between atoms: C_1  and  N_2
REMARK    2  A    between atoms: N_2  and  C_3
REMARK    3  A    between atoms: N_2  and  S_9
REMARK    4  A    between atoms: S_9  and  C_12
REMARK    5  A    between atoms: C_15  and  N_18
REMARK    6  A    between atoms: N_18  and  C_19
REMARK    7  A    between atoms: C_19  and  N_21
REMARK    8  A    between atoms: C_22  and  C_24
REMARK    9  A    between atoms: C_27  and  C_30
REMARK                            x       y       z     vdW  Elec       q    Type
REMARK                         _______ _______ _______ _____ _____    ______ ____
ROOT
ATOM      1  N   UNL     1       7.439  -4.270  -0.141  0.00  0.00    -0.297 N 
ATOM      2  H   UNL     1       7.290  -3.513  -0.729  0.00  0.00    +0.154 HD
ENDROOT
BRANCH   1   6
ATOM      3  C   UNL     1      11.183  -6.089   0.007  0.00  0.00    +0.109 A 
ATOM      4  C   UNL     1      10.042  -6.865  -0.072  0.00  0.00    +0.030 A 
ATOM      5  C   UNL     1       8.799  -6.266  -0.121  0.00  0.00    +0.025 A 
ATOM      6  C   UNL     1       8.696  -4.881  -0.091  0.00  0.00    +0.033 A 
ATOM      7  C   UNL     1       9.845  -4.104  -0.018  0.00  0.00    +0.025 A 
ATOM      8  C   UNL     1      11.084  -4.710   0.037  0.00  0.00    +0.030 A 
BRANCH   3   9
ATOM      9  S   UNL     1      12.767  -6.858   0.069  0.00  0.00    +0.074 S 
ATOM     10  O   UNL     1      13.646  -5.930   0.690  0.00  0.00    -0.150 OA
ATOM     11  O   UNL     1      12.562  -8.170   0.576  0.00  0.00    -0.150 OA
BRANCH   9  13
ATOM     12  C   UNL     1      14.156  -6.014  -2.093  0.00  0.00    +0.157 C 
ATOM     13  N   UNL     1      13.289  -7.031  -1.494  0.00  0.00    -0.206 N 
BRANCH  13  14
ATOM     14  C   UNL     1      12.902  -8.146  -2.240  0.00  0.00    +0.051 A 
ATOM     15  C   UNL     1      13.249  -9.423  -1.815  0.00  0.00    +0.025 A 
ATOM     16  C   UNL     1      12.860 -10.524  -2.553  0.00  0.00    +0.002 A 
ATOM     17  C   UNL     1      12.136 -10.356  -3.719  0.00  0.00    +0.000 A 
ATOM     18  C   UNL     1      11.793  -9.087  -4.147  0.00  0.00    +0.002 A 
ATOM     19  C   UNL     1      12.174  -7.982  -3.411  0.00  0.00    +0.025 A 
ENDBRANCH  13  14
ENDBRANCH   9  13
ENDBRANCH   3   9
ENDBRANCH   1   6
BRANCH   1  20
ATOM     20  C   UNL     1       6.434  -4.734   0.629  0.00  0.00    +0.141 C 
ATOM     21  S   UNL     1       6.664  -6.135   1.585  0.00  0.00    -0.018 S 
BRANCH  20  22
ATOM     22  N   UNL     1       5.248  -4.094   0.646  0.00  0.00    -0.264 N 
ATOM     23  C   UNL     1       4.243  -4.557   1.415  0.00  0.00    +0.250 C 
ATOM     24  O   UNL     1       4.406  -5.552   2.094  0.00  0.00    -0.270 OA
ATOM     25  H   UNL     1       5.117  -3.300   0.104  0.00  0.00    +0.157 HD
BRANCH  23  26
ATOM     26  C   UNL     1       2.943  -3.856   1.433  0.00  0.00    +0.037 A 
ATOM     27  C   UNL     1       1.901  -4.336   2.231  0.00  0.00    +0.013 A 
ATOM     28  C   UNL     1       0.690  -3.681   2.248  0.00  0.00    +0.009 A 
ATOM     29  C   UNL     1       0.503  -2.539   1.468  0.00  0.00    -0.018 A 
ATOM     30  C   UNL     1       1.542  -2.062   0.667  0.00  0.00    +0.009 A 
ATOM     31  C   UNL     1       2.755  -2.712   0.653  0.00  0.00    +0.013 A 
BRANCH  29  32
ATOM     32  C   UNL     1      -0.802  -1.836   1.486  0.00  0.00    -0.018 A 
ATOM     33  C   UNL     1      -0.992  -0.695   0.708  0.00  0.00    +0.008 A 
ATOM     34  C   UNL     1      -2.207  -0.041   0.733  0.00  0.00    +0.001 A 
ATOM     35  C   UNL     1      -3.239  -0.522   1.519  0.00  0.00    +0.000 A 
ATOM     36  C   UNL     1      -3.056  -1.654   2.293  0.00  0.00    +0.001 A 
ATOM     37  C   UNL     1      -1.843  -2.313   2.280  0.00  0.00    +0.008 A 
ENDBRANCH  29  32
ENDBRANCH  23  26
ENDBRANCH  20  22
ENDBRANCH   1  20
TORSDOF 8
