REMARK  Name = ZINC08856112
REMARK  9 active torsions:
REMARK  status: ('A' for Active; 'I' for Inactive)
REMARK    1  A    between atoms: C_1  and  C_2
REMARK    2  A    between atoms: C_2  and  C_3
REMARK    3  A    between atoms: C_3  and  C_4
REMARK    4  A    between atoms: N_6  and  C_31
REMARK    5  A    between atoms: C_9  and  C_10
REMARK    6  A    between atoms: N_11  and  C_12
REMARK    7  A    between atoms: C_12  and  C_13
REMARK    8  A    between atoms: C_13  and  N_78
REMARK    9  A    between atoms: C_19  and  C_21
REMARK                            x       y       z     vdW  Elec       q    Type
REMARK                         _______ _______ _______ _____ _____    ______ ____
ROOT
ATOM      1  C   UNL     1      -0.148   5.151   1.688  0.00  0.00    -0.055 C 
ENDROOT
BRANCH   1   9
ATOM      2  C   UNL     1       1.123   3.208   1.003  0.00  0.00    -0.059 C 
ATOM      3  C   UNL     1       1.225   2.120  -0.071  0.00  0.00    +0.089 C 
ATOM      4  N   UNL     1      -0.022   1.341  -0.068  0.00  0.00    -0.305 N 
ATOM      5  C   UNL     1      -1.298   2.070  -0.150  0.00  0.00    +0.089 C 
ATOM      6  C   UNL     1      -1.300   3.160   0.933  0.00  0.00    -0.059 C 
ATOM      7  C   UNL     1       0.002  -0.004   0.002  0.00  0.00    +0.222 C 
ATOM      8  O   UNL     1       1.061  -0.594  -0.033  0.00  0.00    -0.275 OA
ATOM      9  N   UNL     1      -0.099   4.004   0.758  0.00  0.00    +0.383 N 
ATOM     10  H   UNL     1      -0.078   4.357  -0.206  0.00  0.00    -0.082 HD
BRANCH   7  11
ATOM     11  C   UNL     1      -1.287  -0.776   0.124  0.00  0.00    +0.048 C 
ATOM     12  C   UNL     1      -2.030  -0.331   1.385  0.00  0.00    +0.019 C 
ATOM     13  C   UNL     1      -3.338  -1.115   1.509  0.00  0.00    -0.009 C 
ATOM     14  C   UNL     1      -3.030  -2.611   1.599  0.00  0.00    +0.007 C 
ATOM     15  C   UNL     1      -2.287  -3.055   0.338  0.00  0.00    -0.009 C 
ATOM     16  C   UNL     1      -0.979  -2.272   0.214  0.00  0.00    +0.019 C 
ATOM     17  C   UNL     1      -3.160  -2.788  -0.889  0.00  0.00    +0.007 C 
ATOM     18  C   UNL     1      -3.468  -1.292  -0.980  0.00  0.00    -0.009 C 
ATOM     19  C   UNL     1      -4.211  -0.847   0.282  0.00  0.00    +0.007 C 
ATOM     20  C   UNL     1      -2.160  -0.508  -1.103  0.00  0.00    +0.019 C 
ENDBRANCH   7  11
ENDBRANCH   1   9
BRANCH   1  21
ATOM     21  C   UNL     1      -1.294   6.075   1.271  0.00  0.00    +0.122 C 
BRANCH  21  23
ATOM     22  C   UNL     1      -2.279   8.184   1.993  0.00  0.00    +0.096 C 
ATOM     23  N   UNL     1      -1.343   7.230   2.171  0.00  0.00    -0.297 NA
BRANCH  22  29
ATOM     24  C   UNL     1      -1.446   9.557   3.988  0.00  0.00    +0.055 C 
ATOM     25  N   UNL     1      -1.830  10.682   4.509  0.00  0.00    -0.180 NA
ATOM     26  N   UNL     1      -2.922  11.213   3.823  0.00  0.00    -0.160 N 
ATOM     27  C   UNL     1      -3.267  10.402   2.803  0.00  0.00    +0.253 C 
ATOM     28  O   UNL     1      -4.176  10.569   2.007  0.00  0.00    -0.272 OA
ATOM     29  C   UNL     1      -2.325   9.276   2.843  0.00  0.00    +0.163 C 
BRANCH  26  30
ATOM     30  C   UNL     1      -3.568  12.413   4.148  0.00  0.00    +0.060 A 
ATOM     31  C   UNL     1      -4.646  12.850   3.390  0.00  0.00    +0.028 A 
ATOM     32  C   UNL     1      -5.285  14.030   3.715  0.00  0.00    +0.040 A 
ATOM     33  C   UNL     1      -4.843  14.785   4.788  0.00  0.00    +0.124 A 
ATOM     34  C   UNL     1      -3.764  14.354   5.542  0.00  0.00    +0.040 A 
ATOM     35  C   UNL     1      -3.126  13.171   5.224  0.00  0.00    +0.028 A 
ATOM     36  F   UNL     1      -5.465  15.943   5.101  0.00  0.00    -0.205 F 
ENDBRANCH  26  30
BRANCH  24  37
ATOM     37  C   UNL     1      -0.305   8.697   4.466  0.00  0.00    +0.053 C 
BRANCH  37  39
ATOM     38  C   UNL     1       1.509   8.479   6.171  0.00  0.00    +0.004 C 
ATOM     39  C   UNL     1       0.350   9.351   5.685  0.00  0.00    +0.003 C 
ENDBRANCH  37  39
ENDBRANCH  24  37
ENDBRANCH  22  29
ENDBRANCH  21  23
ENDBRANCH   1  21
TORSDOF 8
