REMARK  Name = ZINC10971401
REMARK  6 active torsions:
REMARK  status: ('A' for Active; 'I' for Inactive)
REMARK    1  A    between atoms: C_1  and  C_2
REMARK    2  A    between atoms: N_10  and  N_14
REMARK    3  A    between atoms: C_15  and  C_17
REMARK    4  A    between atoms: C_17  and  N_18
REMARK    5  A    between atoms: C_21  and  C_25
REMARK    6  A    between atoms: C_21  and  C_26
REMARK                            x       y       z     vdW  Elec       q    Type
REMARK                         _______ _______ _______ _____ _____    ______ ____
ROOT
ATOM      1  C   UNL     1       4.540   1.240  -1.162  0.00  0.00    +0.215 C 
ENDROOT
BRANCH   1   2
ATOM      2  N   UNL     1       5.102   1.439  -2.501  0.00  0.00    -0.215 N 
ATOM      3  C   UNL     1       5.065   0.515  -3.482  0.00  0.00    +0.251 C 
ATOM      4  O   UNL     1       4.580  -0.594  -3.425  0.00  0.00    -0.272 OA
ATOM      5  C   UNL     1       5.755   1.153  -4.671  0.00  0.00    +0.135 C 
ATOM      6  N   UNL     1       6.143   2.485  -4.173  0.00  0.00    -0.281 N 
ATOM      7  C   UNL     1       5.719   2.557  -2.898  0.00  0.00    +0.310 C 
ATOM      8  O   UNL     1       5.879   3.530  -2.188  0.00  0.00    -0.252 OA
ATOM      9  C   UNL     1       4.792   1.281  -5.853  0.00  0.00    +0.047 C 
ATOM     10  H   UNL     1       6.613   3.174  -4.668  0.00  0.00    +0.152 HD
BRANCH   5  11
ATOM     11  C   UNL     1       6.974   0.359  -5.065  0.00  0.00    -0.015 A 
ATOM     12  C   UNL     1       6.974  -1.018  -4.934  0.00  0.00    +0.006 A 
ATOM     13  C   UNL     1       8.092  -1.744  -5.296  0.00  0.00    +0.004 A 
ATOM     14  C   UNL     1       9.213  -1.098  -5.790  0.00  0.00    -0.044 A 
ATOM     15  C   UNL     1       9.213   0.278  -5.920  0.00  0.00    -0.044 A 
ATOM     16  C   UNL     1       8.089   1.004  -5.562  0.00  0.00    +0.010 A 
ATOM     17  C   UNL     1      10.542   0.740  -6.477  0.00  0.00    +0.036 C 
ATOM     18  C   UNL     1      11.504  -0.448  -6.262  0.00  0.00    +0.009 C 
ATOM     19  C   UNL     1      10.543  -1.655  -6.250  0.00  0.00    +0.036 C 
ENDBRANCH   5  11
ENDBRANCH   1   2
BRANCH   1  21
ATOM     20  N   UNL     1       2.382   1.612  -0.012  0.00  0.00    -0.222 N 
ATOM     21  C   UNL     1       3.105   1.700  -1.146  0.00  0.00    +0.248 C 
ATOM     22  O   UNL     1       2.601   2.149  -2.153  0.00  0.00    -0.273 OA
ATOM     23  H   UNL     1       2.785   1.253   0.794  0.00  0.00    +0.174 HD
BRANCH  20  33
ATOM     24  C   UNL     1      -4.005  -1.208   0.013  0.00  0.00    +0.007 C 
ATOM     25  C   UNL     1      -3.457   0.221   0.018  0.00  0.00    -0.014 C 
ATOM     26  C   UNL     1      -2.608   0.445  -1.234  0.00  0.00    +0.006 C 
ATOM     27  C   UNL     1      -2.069   1.879  -1.234  0.00  0.00    +0.035 C 
ATOM     28  C   UNL     1      -1.230   2.107   0.018  0.00  0.00    +0.114 C 
ATOM     29  C   UNL     1      -2.059   1.866   1.275  0.00  0.00    +0.035 C 
ATOM     30  C   UNL     1      -2.597   0.433   1.266  0.00  0.00    +0.006 C 
ATOM     31  C   UNL     1      -0.014   1.208   0.009  0.00  0.00    +0.263 C 
ATOM     32  O   UNL     1       0.002  -0.004   0.002  0.00  0.00    -0.271 OA
ATOM     33  N   UNL     1       1.048   2.039   0.003  0.00  0.00    -0.137 N 
ATOM     34  C   UNL     1       0.670   3.324   0.013  0.00  0.00    +0.326 C 
ATOM     35  O   UNL     1       1.447   4.257   0.010  0.00  0.00    -0.251 OA
ATOM     36  N   UNL     1      -0.670   3.464   0.026  0.00  0.00    -0.284 N 
ATOM     37  H   UNL     1      -1.166   4.297   0.035  0.00  0.00    +0.151 HD
ENDBRANCH  20  33
ENDBRANCH   1  21
TORSDOF 4
