REMARK  Name = ZINC13988043
REMARK  5 active torsions:
REMARK  status: ('A' for Active; 'I' for Inactive)
REMARK    1  A    between atoms: C_1  and  C_2
REMARK    2  A    between atoms: C_3  and  C_17
REMARK    3  A    between atoms: C_4  and  C_10
REMARK    4  A    between atoms: N_19  and  C_20
REMARK    5  A    between atoms: C_24  and  N_26
REMARK                            x       y       z     vdW  Elec       q    Type
REMARK                         _______ _______ _______ _____ _____    ______ ____
ROOT
ATOM      1  C   UNL     1       1.111   5.746   2.247  0.00  0.00    +0.061 C 
ATOM      2  C   UNL     1       1.691   4.748   1.278  0.00  0.00    +0.019 C 
ATOM      3  C   UNL     1       1.166   3.507   1.210  0.00  0.00    +0.056 C 
ATOM      4  C   UNL     1       1.778   2.535   0.222  0.00  0.00    +0.142 C 
ATOM      5  N   UNL     1       2.904   3.029  -0.589  0.00  0.00    -0.288 N 
ATOM      6  C   UNL     1       3.318   4.298  -0.407  0.00  0.00    +0.304 C 
ATOM      7  O   UNL     1       4.247   4.715  -1.071  0.00  0.00    -0.252 OA
ATOM      8  N   UNL     1       2.740   5.115   0.482  0.00  0.00    -0.273 N 
ATOM      9  H   UNL     1       3.337   2.453  -1.239  0.00  0.00    +0.151 HD
ATOM     10  H   UNL     1       3.084   6.018   0.567  0.00  0.00    +0.156 HD
ENDROOT
BRANCH   4  11
ATOM     11  C   UNL     1       2.252   1.329   0.990  0.00  0.00    -0.022 A 
ATOM     12  C   UNL     1       3.486   1.347   1.614  0.00  0.00    +0.006 A 
ATOM     13  C   UNL     1       3.922   0.241   2.319  0.00  0.00    +0.001 A 
ATOM     14  C   UNL     1       3.124  -0.884   2.401  0.00  0.00    +0.015 A 
ATOM     15  C   UNL     1       1.889  -0.904   1.777  0.00  0.00    +0.018 A 
ATOM     16  C   UNL     1       1.454   0.204   1.071  0.00  0.00    +0.021 A 
ATOM     17 BR   UNL     1       0.798  -2.444   1.888  0.00  0.00    -0.050 Br
ENDBRANCH   4  11
BRANCH   3  18
ATOM     18  C   UNL     1       0.079   3.126   2.034  0.00  0.00    +0.248 C 
ATOM     19  O   UNL     1      -1.051   3.104   1.580  0.00  0.00    -0.270 OA
ATOM     20  N   UNL     1       0.294   2.788   3.321  0.00  0.00    -0.282 N 
ATOM     21  H   UNL     1       1.181   2.876   3.703  0.00  0.00    +0.155 HD
BRANCH  20  22
ATOM     22  C   UNL     1      -0.760   2.309   4.104  0.00  0.00    +0.036 A 
ATOM     23  C   UNL     1      -2.046   2.799   3.915  0.00  0.00    +0.023 A 
ATOM     24  C   UNL     1      -3.086   2.325   4.690  0.00  0.00    +0.004 A 
ATOM     25  C   UNL     1      -2.848   1.362   5.654  0.00  0.00    +0.033 A 
ATOM     26  C   UNL     1      -1.569   0.873   5.846  0.00  0.00    +0.128 A 
ATOM     27  C   UNL     1      -0.526   1.339   5.070  0.00  0.00    +0.056 A 
BRANCH  26  28
ATOM     28  N   UNL     1      -1.319  -0.158   6.879  0.00  0.00    +0.056 N 
ATOM     29  O   UNL     1      -2.239  -0.574   7.559  0.00  0.00    -0.126 OA
ATOM     30  O   UNL     1      -0.193  -0.589   7.048  0.00  0.00    -0.126 OA
ENDBRANCH  26  28
ENDBRANCH  20  22
ENDBRANCH   3  18
TORSDOF 4
