REMARK  Name = ZINC11443476
REMARK  12 active torsions:
REMARK  status: ('A' for Active; 'I' for Inactive)
REMARK    1  A    between atoms: C_1  and  C_2
REMARK    2  A    between atoms: C_2  and  C_3
REMARK    3  A    between atoms: C_3  and  C_4
REMARK    4  A    between atoms: C_6  and  O_26
REMARK    5  A    between atoms: C_8  and  S_10
REMARK    6  A    between atoms: S_10  and  C_11
REMARK    7  A    between atoms: C_11  and  C_13
REMARK    8  A    between atoms: C_11  and  C_14
REMARK    9  A    between atoms: N_16  and  C_17
REMARK   10  A    between atoms: C_20  and  N_23
REMARK   11  A    between atoms: N_23  and  C_24
REMARK   12  A    between atoms: N_23  and  C_25
REMARK                            x       y       z     vdW  Elec       q    Type
REMARK                         _______ _______ _______ _____ _____    ______ ____
ROOT
ATOM      1  C   UNL     1      -0.355  -0.138  -1.300  0.00  0.00    +0.137 C 
ATOM      2  C   UNL     1       0.141  -0.845  -2.563  0.00  0.00    +0.029 C 
ENDROOT
BRANCH   1   3
ATOM      3  C   UNL     1      -1.716  -0.669  -0.929  0.00  0.00    +0.230 C 
ATOM      4  O   UNL     1      -2.715  -0.088  -1.298  0.00  0.00    -0.274 OA
ATOM      5  N   UNL     1      -1.823  -1.790  -0.189  0.00  0.00    -0.285 N 
ATOM      6  H   UNL     1      -1.029  -2.295   0.044  0.00  0.00    +0.155 HD
BRANCH   5   7
ATOM      7  C   UNL     1      -3.083  -2.226   0.244  0.00  0.00    +0.034 A 
ATOM      8  C   UNL     1      -4.059  -1.298   0.583  0.00  0.00    +0.025 A 
ATOM      9  C   UNL     1      -5.302  -1.728   1.005  0.00  0.00    +0.025 A 
ATOM     10  C   UNL     1      -5.572  -3.087   1.100  0.00  0.00    +0.029 A 
ATOM     11  C   UNL     1      -4.593  -4.014   0.767  0.00  0.00    +0.025 A 
ATOM     12  C   UNL     1      -3.352  -3.584   0.340  0.00  0.00    +0.025 A 
BRANCH  10  13
ATOM     13  N   UNL     1      -6.830  -3.521   1.532  0.00  0.00    -0.336 N 
ATOM     14  C   UNL     1      -7.105  -4.955   1.659  0.00  0.00    +0.129 C 
ATOM     15  C   UNL     1      -7.871  -2.544   1.856  0.00  0.00    +0.129 C 
ENDBRANCH  10  13
ENDBRANCH   5   7
ENDBRANCH   1   3
BRANCH   1  16
ATOM     16  S   UNL     1      -0.465   1.642  -1.608  0.00  0.00    -0.073 S 
BRANCH  16  21
ATOM     17  C   UNL     1       2.865   3.581  -2.321  0.00  0.00    +0.049 A 
ATOM     18  C   UNL     1       3.828   2.592  -2.248  0.00  0.00    +0.090 A 
ATOM     19  C   UNL     1       3.422   1.287  -1.969  0.00  0.00    +0.216 A 
ATOM     20  N   UNL     1       2.132   1.040  -1.778  0.00  0.00    -0.187 NA
ATOM     21  C   UNL     1       1.238   2.014  -1.861  0.00  0.00    +0.192 A 
ATOM     22  N   UNL     1       1.595   3.264  -2.125  0.00  0.00    -0.227 NA
BRANCH  19  23
ATOM     23  O   UNL     1       4.333   0.287  -1.889  0.00  0.00    -0.492 OA
ATOM     24  H   UNL     1       4.692   0.152  -1.001  0.00  0.00    +0.294 HD
ENDBRANCH  19  23
BRANCH  17  25
ATOM     25  C   UNL     1       3.257   5.005  -2.619  0.00  0.00    +0.055 C 
BRANCH  25  27
ATOM     26  C   UNL     1       2.868   6.954  -4.134  0.00  0.00    +0.004 C 
ATOM     27  C   UNL     1       2.469   5.508  -3.831  0.00  0.00    +0.003 C 
ENDBRANCH  25  27
ENDBRANCH  17  25
ENDBRANCH  16  21
ENDBRANCH   1  16
TORSDOF 8
