REMARK  Name = ZINC12879617
REMARK  2 active torsions:
REMARK  status: ('A' for Active; 'I' for Inactive)
REMARK    1  A    between atoms: C_1  and  C_2
REMARK    2  A    between atoms: N_23  and  C_26
REMARK                            x       y       z     vdW  Elec       q    Type
REMARK                         _______ _______ _______ _____ _____    ______ ____
ROOT
ATOM      1  C   UNL     1      -3.696   4.482  -0.941  0.00  0.00    +0.046 C 
ATOM      2  C   UNL     1      -2.591   3.622  -1.499  0.00  0.00    -0.028 A 
ATOM      3  C   UNL     1      -2.423   3.519  -2.865  0.00  0.00    +0.025 A 
ATOM      4  C   UNL     1      -1.412   2.732  -3.387  0.00  0.00    +0.042 A 
ATOM      5  C   UNL     1      -0.565   2.044  -2.534  0.00  0.00    +0.024 A 
ATOM      6  C   UNL     1      -0.731   2.143  -1.171  0.00  0.00    -0.026 A 
ATOM      7  C   UNL     1      -1.744   2.933  -0.635  0.00  0.00    +0.039 A 
ATOM      8  N   UNL     1      -1.713   2.876   0.760  0.00  0.00    -0.286 N 
ATOM      9  C   UNL     1      -0.724   2.083   1.215  0.00  0.00    +0.212 C 
ATOM     10  O   UNL     1      -0.460   1.847   2.375  0.00  0.00    -0.277 OA
ATOM     11  C   UNL     1      -0.009   1.546   0.004  0.00  0.00    +0.053 C 
ATOM     12  C   UNL     1       1.472   1.940   0.009  0.00  0.00    +0.089 C 
ATOM     13  C   UNL     1       2.213   0.685   0.546  0.00  0.00    +0.074 C 
ATOM     14  C   UNL     1       1.106  -0.350   0.818  0.00  0.00    -0.054 C 
ATOM     15  C   UNL     1       0.297  -0.403  -1.394  0.00  0.00    -0.076 C 
ATOM     16  C   UNL     1       0.993  -1.762  -1.184  0.00  0.00    -0.020 C 
ATOM     17  C   UNL     1       1.538  -1.717   0.257  0.00  0.00    -0.016 C 
ATOM     18  C   UNL     1       3.051   0.228  -0.627  0.00  0.00    +0.228 C 
ATOM     19  O   UNL     1       3.790  -0.732  -0.628  0.00  0.00    -0.275 OA
ATOM     20  N   UNL     1       2.849   1.050  -1.664  0.00  0.00    -0.210 N 
ATOM     21  C   UNL     1       1.985   2.043  -1.426  0.00  0.00    +0.229 C 
ATOM     22  O   UNL     1       1.662   2.897  -2.223  0.00  0.00    -0.275 OA
ATOM     23 CL   UNL     1      -1.205   2.608  -5.106  0.00  0.00    -0.084 Cl
ATOM     24  H   UNL     1      -2.332   3.352   1.336  0.00  0.00    +0.155 HD
ATOM     25  N   UNL     1       0.015   0.080  -0.027  0.00  0.00    +0.395 N 
ATOM     26  H   UNL     1      -0.879  -0.298   0.307  0.00  0.00    -0.079 HD
ENDROOT
BRANCH  20  27
ATOM     27  C   UNL     1       3.492   0.883  -2.900  0.00  0.00    +0.048 A 
ATOM     28  C   UNL     1       2.758   0.522  -4.021  0.00  0.00    +0.028 A 
ATOM     29  C   UNL     1       3.389   0.362  -5.239  0.00  0.00    +0.051 A 
ATOM     30  C   UNL     1       4.759   0.551  -5.344  0.00  0.00    +0.162 A 
ATOM     31  C   UNL     1       5.497   0.909  -4.223  0.00  0.00    +0.164 A 
ATOM     32  C   UNL     1       4.862   1.073  -3.001  0.00  0.00    +0.073 A 
ATOM     33  O   UNL     1       6.841   1.107  -4.308  0.00  0.00    -0.485 OA
ATOM     34  C   UNL     1       7.499   0.573  -5.462  0.00  0.00    +0.270 C 
ATOM     35  C   UNL     1       6.673   0.944  -6.700  0.00  0.00    +0.270 C 
ATOM     36  O   UNL     1       5.365   0.380  -6.552  0.00  0.00    -0.485 OA
ENDBRANCH  20  27
TORSDOF 1
