REMARK  Name = ZINC38971559
REMARK  6 active torsions:
REMARK  status: ('A' for Active; 'I' for Inactive)
REMARK    1  A    between atoms: C_1  and  C_2
REMARK    2  A    between atoms: C_6  and  S_8
REMARK    3  A    between atoms: S_8  and  N_11
REMARK    4  A    between atoms: C_13  and  N_23
REMARK    5  A    between atoms: N_23  and  C_24
REMARK    6  A    between atoms: C_28  and  C_30
REMARK                            x       y       z     vdW  Elec       q    Type
REMARK                         _______ _______ _______ _____ _____    ______ ____
ROOT
ATOM      1  N   UNL     1       1.490  -3.473   3.101  0.00  0.00    -0.110 NA
ATOM      2  C   UNL     1       1.892  -3.979   4.229  0.00  0.00    +0.192 C 
ATOM      3  C   UNL     1       3.364  -4.016   4.573  0.00  0.00    +0.237 C 
ATOM      4  N   UNL     1       3.754  -4.601   5.865  0.00  0.00    -0.359 N 
ATOM      5  C   UNL     1       2.818  -5.059   6.649  0.00  0.00    +0.063 A 
ATOM      6  C   UNL     1       3.155  -5.653   7.950  0.00  0.00    +0.027 A 
ATOM      7  C   UNL     1       2.157  -6.116   8.735  0.00  0.00    +0.002 A 
ATOM      8  C   UNL     1       0.812  -6.043   8.339  0.00  0.00    +0.002 A 
ATOM      9  C   UNL     1       0.425  -5.511   7.159  0.00  0.00    +0.030 A 
ATOM     10  C   UNL     1       1.389  -4.995   6.256  0.00  0.00    +0.089 A 
ATOM     11  N   UNL     1       1.006  -4.473   5.109  0.00  0.00    -0.226 NA
ATOM     12  H   UNL     1       4.687  -4.646   6.128  0.00  0.00    +0.162 HD
ENDROOT
BRANCH   1  13
ATOM     13  S   UNL     1      -0.126  -3.434   2.740  0.00  0.00    +0.100 S 
ATOM     14  O   UNL     1      -0.728  -2.544   3.670  0.00  0.00    -0.146 OA
ATOM     15  O   UNL     1      -0.543  -4.785   2.599  0.00  0.00    -0.146 OA
BRANCH  13  21
ATOM     16  C   UNL     1      -0.734   0.760  -0.319  0.00  0.00    +0.044 C 
ATOM     17  C   UNL     1      -0.567  -0.733  -0.201  0.00  0.00    -0.049 A 
ATOM     18  C   UNL     1      -0.541  -1.517  -1.339  0.00  0.00    +0.003 A 
ATOM     19  C   UNL     1      -0.388  -2.887  -1.231  0.00  0.00    +0.002 A 
ATOM     20  C   UNL     1      -0.262  -3.472   0.015  0.00  0.00    +0.029 A 
ATOM     21  C   UNL     1      -0.287  -2.688   1.152  0.00  0.00    +0.113 A 
ATOM     22  C   UNL     1      -0.435  -1.317   1.044  0.00  0.00    +0.032 A 
ENDBRANCH  13  21
ENDBRANCH   1  13
BRANCH   3  23
ATOM     23  N   UNL     1       4.051  -4.765   3.518  0.00  0.00    -0.318 N 
ATOM     24  H   UNL     1       3.668  -5.590   3.180  0.00  0.00    +0.148 HD
BRANCH  23  25
ATOM     25  C   UNL     1       5.259  -4.291   2.997  0.00  0.00    +0.030 A 
ATOM     26  C   UNL     1       5.830  -4.909   1.892  0.00  0.00    +0.024 A 
ATOM     27  C   UNL     1       7.023  -4.439   1.380  0.00  0.00    +0.022 A 
ATOM     28  C   UNL     1       7.649  -3.353   1.966  0.00  0.00    +0.053 A 
ATOM     29  C   UNL     1       7.082  -2.735   3.067  0.00  0.00    +0.075 A 
ATOM     30  C   UNL     1       5.887  -3.198   3.580  0.00  0.00    +0.036 A 
ATOM     31 CL   UNL     1       9.149  -2.765   1.320  0.00  0.00    -0.083 Cl
BRANCH  29  32
ATOM     32  C   UNL     1       7.767  -1.553   3.703  0.00  0.00    +0.419 C 
ATOM     33  F   UNL     1       7.010  -1.104   4.790  0.00  0.00    -0.166 F 
ATOM     34  F   UNL     1       9.039  -1.933   4.145  0.00  0.00    -0.166 F 
ATOM     35  F   UNL     1       7.889  -0.524   2.763  0.00  0.00    -0.166 F 
ENDBRANCH  29  32
ENDBRANCH  23  25
ENDBRANCH   3  23
TORSDOF 5
