REMARK  Name = ZINC09155193
REMARK  7 active torsions:
REMARK  status: ('A' for Active; 'I' for Inactive)
REMARK    1  A    between atoms: C_1  and  C_2
REMARK    2  A    between atoms: C_2  and  C_3
REMARK    3  A    between atoms: C_3  and  C_29
REMARK    4  A    between atoms: N_6  and  N_10
REMARK    5  A    between atoms: C_11  and  C_13
REMARK    6  A    between atoms: C_13  and  N_62
REMARK    7  A    between atoms: C_17  and  C_19
REMARK                            x       y       z     vdW  Elec       q    Type
REMARK                         _______ _______ _______ _____ _____    ______ ____
ROOT
ATOM      1  N   UNL     1      -1.186   2.115   0.019  0.00  0.00    -0.225 N 
ATOM      2  C   UNL     1      -1.577   2.732   1.152  0.00  0.00    +0.213 C 
ATOM      3  O   UNL     1      -0.916   2.619   2.163  0.00  0.00    -0.276 OA
ATOM      4  H   UNL     1      -1.714   2.204  -0.789  0.00  0.00    +0.173 HD
ENDROOT
BRANCH   1   8
ATOM      5  C   UNL     1       1.467  -0.394  -0.014  0.00  0.00    +0.139 C 
ATOM      6  C   UNL     1       0.002  -0.004   0.002  0.00  0.00    +0.268 C 
ATOM      7  O   UNL     1      -0.954  -0.749   0.006  0.00  0.00    -0.271 OA
ATOM      8  N   UNL     1      -0.016   1.343   0.009  0.00  0.00    -0.137 N 
ATOM      9  C   UNL     1       1.220   1.854   0.000  0.00  0.00    +0.327 C 
ATOM     10  O   UNL     1       1.460   3.045   0.004  0.00  0.00    -0.251 OA
ATOM     11  N   UNL     1       2.170   0.901  -0.014  0.00  0.00    -0.280 N 
ATOM     12  H   UNL     1       3.130   1.039  -0.022  0.00  0.00    +0.152 HD
BRANCH   5  13
ATOM     13  C   UNL     1       1.794  -1.175  -1.261  0.00  0.00    -0.015 A 
ATOM     14  C   UNL     1       1.698  -2.554  -1.258  0.00  0.00    +0.006 A 
ATOM     15  C   UNL     1       1.994  -3.269  -2.403  0.00  0.00    +0.000 A 
ATOM     16  C   UNL     1       2.395  -2.607  -3.548  0.00  0.00    +0.000 A 
ATOM     17  C   UNL     1       2.496  -1.228  -3.549  0.00  0.00    +0.000 A 
ATOM     18  C   UNL     1       2.195  -0.512  -2.406  0.00  0.00    +0.006 A 
ENDBRANCH   5  13
BRANCH   5  20
ATOM     19  C   UNL     1       1.530  -0.369   2.483  0.00  0.00    +0.007 C 
ATOM     20  C   UNL     1       1.822  -1.203   1.235  0.00  0.00    +0.037 C 
ENDBRANCH   5  20
ENDBRANCH   1   8
BRANCH   2  21
ATOM     21  C   UNL     1      -2.835   3.561   1.163  0.00  0.00    +0.021 C 
BRANCH  21  26
ATOM     22  C   UNL     1      -2.032   5.156   2.804  0.00  0.00    -0.077 C 
ATOM     23  C   UNL     1      -2.795   6.452   3.151  0.00  0.00    -0.020 C 
ATOM     24  C   UNL     1      -4.191   5.931   3.582  0.00  0.00    -0.013 C 
ATOM     25  C   UNL     1      -4.384   4.726   2.627  0.00  0.00    -0.037 C 
ATOM     26  N   UNL     1      -3.041   4.122   2.523  0.00  0.00    +0.390 N 
ATOM     27  H   UNL     1      -2.954   3.367   3.214  0.00  0.00    -0.080 HD
BRANCH  25  28
ATOM     28  C   UNL     1      -5.352   3.736   3.220  0.00  0.00    -0.057 A 
ATOM     29  C   UNL     1      -4.947   2.909   4.252  0.00  0.00    +0.006 A 
ATOM     30  C   UNL     1      -5.832   1.998   4.798  0.00  0.00    +0.049 A 
ATOM     31  C   UNL     1      -7.128   1.912   4.312  0.00  0.00    +0.162 A 
ATOM     32  C   UNL     1      -7.536   2.745   3.277  0.00  0.00    +0.162 A 
ATOM     33  C   UNL     1      -6.644   3.659   2.736  0.00  0.00    +0.051 A 
ATOM     34  O   UNL     1      -8.806   2.682   2.791  0.00  0.00    -0.485 OA
ATOM     35  C   UNL     1      -9.556   1.504   3.103  0.00  0.00    +0.270 C 
ATOM     36  C   UNL     1      -9.381   1.204   4.598  0.00  0.00    +0.270 C 
ATOM     37  O   UNL     1      -7.986   1.005   4.855  0.00  0.00    -0.485 OA
ENDBRANCH  25  28
ENDBRANCH  21  26
ENDBRANCH   2  21
TORSDOF 6
