REMARK  Name = ZINC08837037
REMARK  8 active torsions:
REMARK  status: ('A' for Active; 'I' for Inactive)
REMARK    1  A    between atoms: C_1  and  C_2
REMARK    2  A    between atoms: C_5  and  C_8
REMARK    3  A    between atoms: N_10  and  C_11
REMARK    4  A    between atoms: C_11  and  C_25
REMARK    5  A    between atoms: C_12  and  C_13
REMARK    6  A    between atoms: C_16  and  C_18
REMARK    7  A    between atoms: N_27  and  C_28
REMARK    8  A    between atoms: C_28  and  C_29
REMARK                            x       y       z     vdW  Elec       q    Type
REMARK                         _______ _______ _______ _____ _____    ______ ____
ROOT
ATOM      1  C   UNL     1      -2.542   4.617  -0.035  0.00  0.00    +0.100 C 
ATOM      2  C   UNL     1      -1.363   5.276  -0.204  0.00  0.00    +0.074 C 
ENDROOT
BRANCH   2   3
ATOM      3  C   UNL     1      -0.139   4.591  -0.027  0.00  0.00    +0.131 A 
ATOM      4  C   UNL     1       1.121   5.155  -0.079  0.00  0.00    +0.050 A 
ATOM      5  C   UNL     1       2.035   4.122   0.150  0.00  0.00    +0.050 A 
ATOM      6  C   UNL     1       1.311   2.978   0.331  0.00  0.00    +0.136 A 
ATOM      7  O   UNL     1       0.003   3.272   0.218  0.00  0.00    -0.455 OA
BRANCH   6   8
ATOM      8  C   UNL     1       1.872   1.640   0.602  0.00  0.00    +0.017 A 
ATOM      9  C   UNL     1       3.255   1.442   0.588  0.00  0.00    +0.012 A 
ATOM     10  C   UNL     1       3.772   0.191   0.846  0.00  0.00    +0.016 A 
ATOM     11  C   UNL     1       2.923  -0.872   1.108  0.00  0.00    +0.018 A 
ATOM     12  C   UNL     1       1.551  -0.684   1.118  0.00  0.00    +0.016 A 
ATOM     13  C   UNL     1       1.021   0.564   0.867  0.00  0.00    +0.012 A 
ATOM     14 BR   UNL     1       3.641  -2.587   1.453  0.00  0.00    -0.050 Br
ENDBRANCH   6   8
ENDBRANCH   2   3
BRANCH   1  17
ATOM     15  C   UNL     1      -3.176   3.010   1.601  0.00  0.00    +0.248 C 
ATOM     16  O   UNL     1      -3.823   3.865   2.175  0.00  0.00    -0.270 OA
ATOM     17  N   UNL     1      -2.547   3.303   0.446  0.00  0.00    -0.277 N 
ATOM     18  H   UNL     1      -2.097   2.603  -0.053  0.00  0.00    +0.155 HD
BRANCH  15  23
ATOM     19  C   UNL     1      -2.801  -2.286   3.819  0.00  0.00    +0.044 C 
ATOM     20  C   UNL     1      -2.899  -0.899   3.238  0.00  0.00    -0.050 A 
ATOM     21  C   UNL     1      -3.525   0.105   3.955  0.00  0.00    +0.004 A 
ATOM     22  C   UNL     1      -3.618   1.377   3.430  0.00  0.00    +0.013 A 
ATOM     23  C   UNL     1      -3.079   1.650   2.171  0.00  0.00    +0.037 A 
ATOM     24  C   UNL     1      -2.454   0.631   1.450  0.00  0.00    +0.013 A 
ATOM     25  C   UNL     1      -2.364  -0.635   1.990  0.00  0.00    +0.004 A 
ENDBRANCH  15  23
ENDBRANCH   1  17
BRANCH   1  26
ATOM     26  C   UNL     1      -3.807   5.284  -0.356  0.00  0.00    +0.259 C 
ATOM     27  O   UNL     1      -3.810   6.455  -0.689  0.00  0.00    -0.269 OA
ATOM     28  N   UNL     1      -4.966   4.601  -0.283  0.00  0.00    -0.303 N 
ATOM     29  H   UNL     1      -4.973   3.691   0.054  0.00  0.00    +0.149 HD
BRANCH  28  30
ATOM     30  C   UNL     1      -6.216   5.232  -0.713  0.00  0.00    +0.179 C 
BRANCH  30  31
ATOM     31  C   UNL     1      -7.356   4.263  -0.531  0.00  0.00    +0.122 A 
ATOM     32  C   UNL     1      -8.110   4.134   0.576  0.00  0.00    +0.046 A 
ATOM     33  C   UNL     1      -9.055   3.116   0.311  0.00  0.00    +0.041 A 
ATOM     34  C   UNL     1      -8.823   2.684  -0.941  0.00  0.00    +0.195 A 
ATOM     35  O   UNL     1      -7.797   3.387  -1.449  0.00  0.00    -0.466 OA
ENDBRANCH  30  31
ENDBRANCH  28  30
ENDBRANCH   1  26
TORSDOF 7
