REMARK  Name = ZINC37934248
REMARK  6 active torsions:
REMARK  status: ('A' for Active; 'I' for Inactive)
REMARK    1  A    between atoms: C_1  and  C_2
REMARK    2  A    between atoms: C_2  and  C_3
REMARK    3  A    between atoms: N_6  and  C_10
REMARK    4  A    between atoms: C_12  and  N_20
REMARK    5  A    between atoms: C_14  and  S_16
REMARK    6  A    between atoms: S_16  and  N_19
REMARK                            x       y       z     vdW  Elec       q    Type
REMARK                         _______ _______ _______ _____ _____    ______ ____
ROOT
ATOM      1  C   UNL     1       0.989  -3.366  -3.404  0.00  0.00    +0.033 A 
ATOM      2  C   UNL     1       1.775  -3.712  -4.495  0.00  0.00    +0.046 A 
ATOM      3  C   UNL     1       1.281  -4.585  -5.453  0.00  0.00    +0.028 A 
ATOM      4  C   UNL     1       0.002  -5.112  -5.318  0.00  0.00    +0.051 A 
ATOM      5  C   UNL     1      -0.778  -4.766  -4.231  0.00  0.00    +0.108 A 
ATOM      6  C   UNL     1      -0.286  -3.901  -3.272  0.00  0.00    +0.051 A 
ENDROOT
BRANCH   1   9
ATOM      7  C   UNL     1       0.726  -0.486  -1.271  0.00  0.00    +0.135 C 
ATOM      8  C   UNL     1       0.628  -2.015  -1.337  0.00  0.00    +0.136 C 
ATOM      9  N   UNL     1       1.483  -2.487  -2.438  0.00  0.00    -0.325 N 
ATOM     10  C   UNL     1       2.873  -2.007  -2.490  0.00  0.00    +0.133 C 
ATOM     11  C   UNL     1       2.861  -0.478  -2.368  0.00  0.00    +0.179 C 
ATOM     12  O   UNL     1       2.102  -0.103  -1.216  0.00  0.00    -0.373 OA
BRANCH   7  14
ATOM     13  C   UNL     1      -0.004   1.548  -0.018  0.00  0.00    +0.006 C 
ATOM     14  C   UNL     1       0.004   0.018  -0.019  0.00  0.00    +0.030 C 
ENDBRANCH   7  14
ENDBRANCH   1   9
BRANCH   5  15
ATOM     15  S   UNL     1      -2.399  -5.436  -4.063  0.00  0.00    +0.056 S 
ATOM     16  O   UNL     1      -3.129  -4.532  -3.244  0.00  0.00    -0.153 OA
ATOM     17  O   UNL     1      -2.827  -5.796  -5.369  0.00  0.00    -0.153 OA
BRANCH  15  18
ATOM     18  N   UNL     1      -2.260  -6.845  -3.205  0.00  0.00    -0.204 NA
ATOM     19  H   UNL     1      -1.388  -7.145  -2.902  0.00  0.00    +0.144 HD
ATOM     20  H   UNL     1      -3.050  -7.371  -3.004  0.00  0.00    +0.144 HD
ENDBRANCH  15  18
ENDBRANCH   5  15
BRANCH   3  21
ATOM     21  N   UNL     1       2.068  -4.935  -6.553  0.00  0.00    -0.358 N 
ATOM     22  H   UNL     1       2.960  -4.567  -6.647  0.00  0.00    +0.142 HD
ATOM     23  H   UNL     1       1.722  -5.545  -7.222  0.00  0.00    +0.142 HD
ENDBRANCH   3  21
TORSDOF 5
