REMARK  Name = ZINC08964878
REMARK  12 active torsions:
REMARK  status: ('A' for Active; 'I' for Inactive)
REMARK    1  A    between atoms: C_1  and  N_75
REMARK    2  A    between atoms: C_2  and  N_75
REMARK    3  A    between atoms: C_8  and  O_38
REMARK    4  A    between atoms: C_9  and  O_36
REMARK    5  A    between atoms: C_10  and  O_34
REMARK    6  A    between atoms: C_17  and  N_20
REMARK    7  A    between atoms: N_23  and  C_26
REMARK    8  A    between atoms: C_31  and  O_32
REMARK    9  A    between atoms: O_32  and  C_33
REMARK   10  A    between atoms: O_34  and  C_35
REMARK   11  A    between atoms: O_36  and  C_37
REMARK   12  A    between atoms: O_38  and  C_39
REMARK                            x       y       z     vdW  Elec       q    Type
REMARK                         _______ _______ _______ _____ _____    ______ ____
ROOT
ATOM      1  C   UNL     1       0.890  -1.082  -1.067  0.00  0.00    -0.040 C 
ATOM      2  C   UNL     1       1.515  -2.462  -1.110  0.00  0.00    -0.007 C 
ATOM      3  C   UNL     1       1.853  -2.868  -2.542  0.00  0.00    +0.035 C 
ATOM      4  C   UNL     1       2.502  -1.712  -3.259  0.00  0.00    -0.033 A 
ATOM      5  C   UNL     1       3.864  -1.710  -3.480  0.00  0.00    +0.054 A 
ATOM      6  C   UNL     1       4.457  -0.649  -4.152  0.00  0.00    +0.165 A 
ATOM      7  C   UNL     1       3.685   0.415  -4.606  0.00  0.00    +0.204 A 
ATOM      8  C   UNL     1       2.314   0.421  -4.383  0.00  0.00    +0.173 A 
ATOM      9  C   UNL     1       1.724  -0.648  -3.701  0.00  0.00    +0.031 A 
ATOM     10  C   UNL     1       0.253  -0.637  -3.443  0.00  0.00    -0.012 A 
ATOM     11  C   UNL     1      -0.165  -0.911  -2.141  0.00  0.00    -0.050 A 
ATOM     12  C   UNL     1      -1.444  -1.036  -1.746  0.00  0.00    +0.055 A 
ATOM     13  C   UNL     1      -2.635  -0.923  -2.404  0.00  0.00    +0.200 A 
ATOM     14  O   UNL     1      -3.633  -1.185  -1.746  0.00  0.00    -0.286 OA
ATOM     15  C   UNL     1      -2.862  -0.547  -3.725  0.00  0.00    +0.077 A 
ATOM     16  C   UNL     1      -1.895  -0.292  -4.651  0.00  0.00    +0.027 A 
ATOM     17  C   UNL     1      -0.559  -0.351  -4.511  0.00  0.00    +0.011 A 
ENDROOT
BRANCH  15  18
ATOM     18  N   UNL     1      -4.180  -0.422  -4.132  0.00  0.00    -0.324 N 
ATOM     19  C   UNL     1      -4.504  -1.403  -5.178  0.00  0.00    +0.124 C 
ATOM     20  C   UNL     1      -5.986  -1.285  -5.542  0.00  0.00    +0.124 C 
ATOM     21  N   UNL     1      -6.267   0.082  -6.002  0.00  0.00    -0.324 N 
ATOM     22  C   UNL     1      -5.944   1.063  -4.957  0.00  0.00    +0.124 C 
ATOM     23  C   UNL     1      -4.462   0.945  -4.592  0.00  0.00    +0.124 C 
BRANCH  21  24
ATOM     24  C   UNL     1      -7.599   0.208  -6.413  0.00  0.00    +0.072 A 
ATOM     25  C   UNL     1      -8.505  -0.811  -6.160  0.00  0.00    +0.027 A 
ATOM     26  C   UNL     1      -9.820  -0.684  -6.567  0.00  0.00    +0.002 A 
ATOM     27  C   UNL     1     -10.235   0.458  -7.227  0.00  0.00    +0.004 A 
ATOM     28  C   UNL     1      -9.338   1.478  -7.483  0.00  0.00    +0.047 A 
ATOM     29  C   UNL     1      -8.020   1.361  -7.073  0.00  0.00    +0.141 A 
BRANCH  29  30
ATOM     30  O   UNL     1      -7.138   2.366  -7.319  0.00  0.00    -0.493 OA
ATOM     31  C   UNL     1      -7.640   3.518  -8.000  0.00  0.00    +0.277 C 
ENDBRANCH  29  30
ENDBRANCH  21  24
ENDBRANCH  15  18
BRANCH   1  33
ATOM     32  C   UNL     1       0.210   0.551   0.586  0.00  0.00    -0.100 C 
ATOM     33  N   UNL     1       0.268  -0.885   0.256  0.00  0.00    +0.382 N 
ATOM     34  H   UNL     1      -0.684  -1.269   0.242  0.00  0.00    -0.085 HD
ATOM     35  H   UNL     1       0.824  -1.374   0.968  0.00  0.00    -0.085 HD
ENDBRANCH   1  33
BRANCH   8  36
ATOM     36  O   UNL     1       1.553   1.457  -4.824  0.00  0.00    -0.491 OA
ATOM     37  C   UNL     1       1.462   2.602  -3.974  0.00  0.00    +0.277 C 
ENDBRANCH   8  36
BRANCH   7  38
ATOM     38  O   UNL     1       4.272   1.449  -5.268  0.00  0.00    -0.488 OA
ATOM     39  C   UNL     1       4.375   1.334  -6.689  0.00  0.00    +0.277 C 
ENDBRANCH   7  38
BRANCH   6  40
ATOM     40  O   UNL     1       5.799  -0.650  -4.366  0.00  0.00    -0.491 OA
ATOM     41  C   UNL     1       6.534  -1.772  -3.874  0.00  0.00    +0.277 C 
ENDBRANCH   6  40
TORSDOF 7
