REMARK  Name = ZINC13207186
REMARK  4 active torsions:
REMARK  status: ('A' for Active; 'I' for Inactive)
REMARK    1  A    between atoms: N_14  and  C_24
REMARK    2  A    between atoms: C_15  and  C_17
REMARK    3  A    between atoms: C_20  and  O_23
REMARK    4  A    between atoms: C_24  and  C_25
REMARK                            x       y       z     vdW  Elec       q    Type
REMARK                         _______ _______ _______ _____ _____    ______ ____
ROOT
ATOM      1  C   UNL     1      -0.017   1.384   0.010  0.00  0.00    +0.001 A 
ATOM      2  C   UNL     1       0.002  -0.004   0.002  0.00  0.00    +0.004 A 
ATOM      3  C   UNL     1       1.195  -0.694  -0.013  0.00  0.00    +0.047 A 
ATOM      4  C   UNL     1       2.399   0.005  -0.021  0.00  0.00    +0.139 A 
ATOM      5  C   UNL     1       2.370   1.410  -0.013  0.00  0.00    +0.064 A 
ATOM      6  C   UNL     1       1.154   2.091   0.002  0.00  0.00    +0.015 A 
ATOM      7  C   UNL     1       3.657   2.132  -0.022  0.00  0.00    +0.199 A 
ATOM      8  O   UNL     1       3.708   3.349  -0.016  0.00  0.00    -0.287 OA
ATOM      9  C   UNL     1       4.872   1.312  -0.039  0.00  0.00    +0.072 A 
ATOM     10  C   UNL     1       4.773  -0.040  -0.045  0.00  0.00    +0.199 A 
ATOM     11  O   UNL     1       3.572  -0.653  -0.036  0.00  0.00    -0.450 OA
ATOM     12  C   UNL     1       6.144  -0.609  -0.062  0.00  0.00    +0.283 C 
ATOM     13  O   UNL     1       6.404  -1.796  -0.071  0.00  0.00    -0.267 OA
ATOM     14  N   UNL     1       7.056   0.378  -0.066  0.00  0.00    -0.279 N 
ATOM     15  C   UNL     1       6.338   1.658  -0.052  0.00  0.00    +0.145 C 
ENDROOT
BRANCH  15  16
ATOM     16  C   UNL     1       6.671   2.456  -1.286  0.00  0.00    -0.022 A 
ATOM     17  C   UNL     1       6.832   1.814  -2.500  0.00  0.00    +0.009 A 
ATOM     18  C   UNL     1       7.133   2.544  -3.634  0.00  0.00    +0.046 A 
ATOM     19  C   UNL     1       7.284   3.921  -3.552  0.00  0.00    +0.117 A 
ATOM     20  C   UNL     1       7.128   4.561  -2.331  0.00  0.00    +0.046 A 
ATOM     21  C   UNL     1       6.822   3.828  -1.202  0.00  0.00    +0.009 A 
BRANCH  19  22
ATOM     22  O   UNL     1       7.585   4.640  -4.665  0.00  0.00    -0.507 OA
ATOM     23  H   UNL     1       8.533   4.744  -4.822  0.00  0.00    +0.292 HD
ENDBRANCH  19  22
ENDBRANCH  15  16
BRANCH  14  24
ATOM     24  C   UNL     1       8.511   0.206  -0.081  0.00  0.00    +0.144 C 
BRANCH  24  25
ATOM     25  C   UNL     1       9.023   0.139   1.334  0.00  0.00    -0.027 A 
ATOM     26  C   UNL     1       9.410   1.290   2.005  0.00  0.00    +0.025 A 
ATOM     27  C   UNL     1       9.870   1.190   3.304  0.00  0.00    +0.111 A 
ATOM     28  N   UNL     1       9.953   0.018   3.902  0.00  0.00    -0.263 NA
ATOM     29  C   UNL     1       9.600  -1.098   3.293  0.00  0.00    +0.111 A 
ATOM     30  C   UNL     1       9.125  -1.075   1.996  0.00  0.00    +0.025 A 
ENDBRANCH  24  25
ENDBRANCH  14  24
TORSDOF 4
