REMARK  Name = ZINC25764368
REMARK  6 active torsions:
REMARK  status: ('A' for Active; 'I' for Inactive)
REMARK    1  A    between atoms: C_1  and  N_2
REMARK    2  A    between atoms: N_2  and  C_3
REMARK    3  A    between atoms: N_2  and  C_17
REMARK    4  A    between atoms: C_3  and  C_4
REMARK    5  A    between atoms: C_17  and  C_18
REMARK    6  A    between atoms: N_20  and  C_21
REMARK                            x       y       z     vdW  Elec       q    Type
REMARK                         _______ _______ _______ _____ _____    ______ ____
ROOT
ATOM      1  C   UNL     1      -2.563   0.558  -1.919  0.00  0.00    -0.095 C 
ATOM      2  N   UNL     1      -2.066   1.838  -1.396  0.00  0.00    +0.388 N 
ATOM      3  H   UNL     1      -1.242   2.171  -2.045  0.00  0.00    -0.081 HD
ENDROOT
BRANCH   2   4
ATOM      4  C   UNL     1      -1.533   1.680  -0.036  0.00  0.00    -0.003 C 
BRANCH   4   5
ATOM      5  C   UNL     1      -0.305   0.808  -0.076  0.00  0.00    +0.095 A 
ATOM      6  N   UNL     1       0.897   1.404  -0.149  0.00  0.00    -0.343 N 
ATOM      7  C   UNL     1       2.053   0.649  -0.193  0.00  0.00    +0.067 A 
ATOM      8  C   UNL     1       1.937  -0.753  -0.161  0.00  0.00    +0.067 A 
ATOM      9  C   UNL     1       3.079  -1.548  -0.204  0.00  0.00    +0.030 A 
ATOM     10  C   UNL     1       4.320  -0.951  -0.279  0.00  0.00    +0.020 A 
ATOM     11  C   UNL     1       4.434   0.432  -0.312  0.00  0.00    +0.032 A 
ATOM     12  C   UNL     1       3.311   1.233  -0.269  0.00  0.00    +0.043 A 
ATOM     13 BR   UNL     1       3.483   3.115  -0.314  0.00  0.00    -0.048 Br
ATOM     14 BR   UNL     1       5.876  -2.023  -0.338  0.00  0.00    -0.050 Br
ATOM     15  C   UNL     1       0.584  -1.330  -0.080  0.00  0.00    +0.281 A 
ATOM     16  O   UNL     1       0.418  -2.538  -0.049  0.00  0.00    -0.265 OA
ATOM     17  N   UNL     1      -0.465  -0.486  -0.043  0.00  0.00    -0.197 NA
ATOM     18  H   UNL     1       0.967   2.502  -0.174  0.00  0.00    +0.167 HD
ENDBRANCH   4   5
ENDBRANCH   2   4
BRANCH   2  19
ATOM     19  C   UNL     1      -3.115   2.865  -1.435  0.00  0.00    +0.019 C 
BRANCH  19  20
ATOM     20  C   UNL     1      -3.463   3.174  -2.868  0.00  0.00    +0.201 C 
ATOM     21  O   UNL     1      -2.893   2.595  -3.769  0.00  0.00    -0.278 OA
ATOM     22  N   UNL     1      -4.408   4.093  -3.149  0.00  0.00    -0.287 N 
ATOM     23  H   UNL     1      -4.986   4.555  -2.335  0.00  0.00    +0.155 HD
BRANCH  22  24
ATOM     24  C   UNL     1      -4.654   4.461  -4.477  0.00  0.00    +0.036 A 
ATOM     25  C   UNL     1      -3.613   4.486  -5.396  0.00  0.00    +0.023 A 
ATOM     26  C   UNL     1      -3.858   4.844  -6.707  0.00  0.00    +0.005 A 
ATOM     27  C   UNL     1      -5.138   5.187  -7.104  0.00  0.00    +0.038 A 
ATOM     28  C   UNL     1      -6.178   5.168  -6.190  0.00  0.00    +0.125 A 
ATOM     29  C   UNL     1      -5.938   4.805  -4.877  0.00  0.00    +0.061 A 
ATOM     30  F   UNL     1      -7.426   5.504  -6.581  0.00  0.00    -0.205 F 
ENDBRANCH  22  24
ENDBRANCH  19  20
ENDBRANCH   2  19
TORSDOF 5
