REMARK  Name = ZINC00908598
REMARK  7 active torsions:
REMARK  status: ('A' for Active; 'I' for Inactive)
REMARK    1  A    between atoms: C_1  and  C_2
REMARK    2  A    between atoms: C_2  and  C_3
REMARK    3  A    between atoms: C_10  and  C_15
REMARK    4  A    between atoms: C_15  and  C_17
REMARK    5  A    between atoms: C_15  and  N_61
REMARK    6  A    between atoms: N_21  and  C_22
REMARK    7  A    between atoms: C_29  and  O_32
REMARK                            x       y       z     vdW  Elec       q    Type
REMARK                         _______ _______ _______ _____ _____    ______ ____
ROOT
ATOM      1  C   UNL     1      -1.332   7.432   0.057  0.00  0.00    +0.039 C 
ENDROOT
BRANCH   1   9
ATOM      2  C   UNL     1       1.185   1.779   0.000  0.00  0.00    -0.047 A 
ATOM      3  C   UNL     1      -0.013   1.076   0.008  0.00  0.00    +0.005 A 
ATOM      4  C   UNL     1      -1.219   1.741   0.017  0.00  0.00    +0.026 A 
ATOM      5  C   UNL     1      -1.240   3.132   0.031  0.00  0.00    +0.049 A 
ATOM      6  C   UNL     1      -0.025   3.842   0.023  0.00  0.00    -0.001 A 
ATOM      7  C   UNL     1       1.188   3.145   0.008  0.00  0.00    +0.013 A 
ATOM      8  C   UNL     1      -0.057   5.306   0.033  0.00  0.00    +0.017 A 
ATOM      9  C   UNL     1      -1.263   5.926   0.048  0.00  0.00    +0.011 A 
ATOM     10  C   UNL     1      -2.453   5.168   0.055  0.00  0.00    +0.251 A 
ATOM     11  O   UNL     1      -3.526   5.746   0.068  0.00  0.00    -0.268 OA
ATOM     12  N   UNL     1      -2.433   3.824   0.047  0.00  0.00    -0.322 N 
ATOM     13  H   UNL     1      -3.296   3.318   0.052  0.00  0.00    +0.169 HD
BRANCH   2  15
ATOM     14  C   UNL     1       2.920   0.783  -1.464  0.00  0.00    +0.009 C 
ATOM     15  C   UNL     1       2.491   1.029  -0.016  0.00  0.00    +0.032 C 
ENDBRANCH   2  15
ENDBRANCH   1   9
BRANCH   1  21
ATOM     16  C   UNL     1      -1.676   7.249   2.446  0.00  0.00    -0.075 C 
ATOM     17  C   UNL     1      -2.623   7.622   3.589  0.00  0.00    +0.013 C 
ATOM     18  C   UNL     1      -2.652   9.145   3.745  0.00  0.00    +0.111 C 
ATOM     19  C   UNL     1      -3.089   9.777   2.421  0.00  0.00    +0.013 C 
ATOM     20  C   UNL     1      -2.128   9.342   1.312  0.00  0.00    -0.075 C 
ATOM     21  N   UNL     1      -2.164   7.869   1.196  0.00  0.00    +0.389 N 
ATOM     22  H   UNL     1      -3.134   7.571   1.034  0.00  0.00    -0.080 HD
BRANCH  18  23
ATOM     23  O   UNL     1      -3.579   9.501   4.773  0.00  0.00    -0.392 OA
ATOM     24  H   UNL     1      -3.363   9.134   5.642  0.00  0.00    +0.210 HD
ENDBRANCH  18  23
ENDBRANCH   1  21
BRANCH   1  25
ATOM     25  C   UNL     1      -1.967   7.913  -1.222  0.00  0.00    +0.143 A 
ATOM     26  N   UNL     1      -3.239   7.856  -1.534  0.00  0.00    -0.115 NA
ATOM     27  N   UNL     1      -3.384   8.369  -2.707  0.00  0.00    -0.023 NA
ATOM     28  N   UNL     1      -2.237   8.744  -3.155  0.00  0.00    -0.044 NA
ATOM     29  N   UNL     1      -1.338   8.480  -2.268  0.00  0.00    -0.227 N 
BRANCH  29  30
ATOM     30  C   UNL     1       0.098   8.748  -2.379  0.00  0.00    +0.111 C 
ATOM     31  C   UNL     1       0.339  10.252  -2.619  0.00  0.00    +0.027 C 
ATOM     32  C   UNL     1       1.536  10.292  -3.603  0.00  0.00    +0.002 C 
ATOM     33  C   UNL     1       1.253   9.089  -4.536  0.00  0.00    +0.002 C 
ATOM     34  C   UNL     1       0.679   8.008  -3.597  0.00  0.00    +0.027 C 
ENDBRANCH  29  30
ENDBRANCH   1  25
TORSDOF 6
