REMARK  Name = ZINC09561719
REMARK  9 active torsions:
REMARK  status: ('A' for Active; 'I' for Inactive)
REMARK    1  A    between atoms: C_1  and  C_2
REMARK    2  A    between atoms: C_2  and  N_52
REMARK    3  A    between atoms: C_6  and  C_8
REMARK    4  A    between atoms: C_8  and  N_54
REMARK    5  A    between atoms: C_9  and  C_11
REMARK    6  A    between atoms: C_9  and  C_17
REMARK    7  A    between atoms: C_9  and  N_54
REMARK    8  A    between atoms: N_19  and  C_20
REMARK    9  A    between atoms: C_23  and  N_27
REMARK                            x       y       z     vdW  Elec       q    Type
REMARK                         _______ _______ _______ _____ _____    ______ ____
ROOT
ATOM      1  C   UNL     1       3.720  -0.722  -0.036  0.00  0.00    +0.047 C 
ENDROOT
BRANCH   1   2
ATOM      2  C   UNL     1       2.404   0.012  -0.009  0.00  0.00    -0.053 A 
ATOM      3  C   UNL     1       1.217  -0.698  -0.000  0.00  0.00    +0.002 A 
ATOM      4  C   UNL     1       0.010  -0.025   0.024  0.00  0.00    +0.000 A 
ATOM      5  C   UNL     1      -0.011   1.357   0.041  0.00  0.00    +0.000 A 
ATOM      6  C   UNL     1       1.176   2.067   0.033  0.00  0.00    +0.000 A 
ATOM      7  C   UNL     1       2.383   1.394   0.008  0.00  0.00    +0.002 A 
ENDBRANCH   1   2
BRANCH   1   8
ATOM      8  C   UNL     1       4.259  -0.735  -1.443  0.00  0.00    +0.207 C 
ATOM      9  O   UNL     1       5.335  -0.229  -1.685  0.00  0.00    -0.277 OA
ATOM     10  N   UNL     1       3.546  -1.308  -2.433  0.00  0.00    -0.286 N 
ATOM     11  H   UNL     1       2.718  -1.770  -2.229  0.00  0.00    +0.155 HD
BRANCH  10  12
ATOM     12  C   UNL     1       4.002  -1.238  -3.754  0.00  0.00    +0.048 A 
ATOM     13  C   UNL     1       5.363  -1.272  -4.024  0.00  0.00    +0.026 A 
ATOM     14  C   UNL     1       5.809  -1.202  -5.329  0.00  0.00    +0.034 A 
ATOM     15  C   UNL     1       4.902  -1.099  -6.367  0.00  0.00    +0.127 A 
ATOM     16  C   UNL     1       3.545  -1.065  -6.103  0.00  0.00    +0.049 A 
ATOM     17  C   UNL     1       3.092  -1.140  -4.800  0.00  0.00    +0.041 A 
ATOM     18 BR   UNL     1       1.236  -1.101  -4.439  0.00  0.00    -0.048 Br
BRANCH  15  19
ATOM     19  N   UNL     1       5.384  -1.024  -7.765  0.00  0.00    +0.056 N 
ATOM     20  O   UNL     1       6.579  -1.054  -7.999  0.00  0.00    -0.126 OA
ATOM     21  O   UNL     1       4.586  -0.933  -8.680  0.00  0.00    -0.126 OA
ENDBRANCH  15  19
ENDBRANCH  10  12
ENDBRANCH   1   8
BRANCH   1  22
ATOM     22  N   UNL     1       4.684  -0.037   0.846  0.00  0.00    +0.388 N 
ATOM     23  H   UNL     1       5.638  -0.242   0.529  0.00  0.00    -0.084 HD
ATOM     24  H   UNL     1       4.520   0.976   0.805  0.00  0.00    -0.084 HD
BRANCH  22  25
ATOM     25  C   UNL     1       4.523  -0.499   2.238  0.00  0.00    -0.097 C 
BRANCH  25  29
ATOM     26  C   UNL     1       7.783  -0.063   3.799  0.00  0.00    -0.079 C 
ATOM     27  C   UNL     1       6.934  -0.879   4.806  0.00  0.00    -0.020 C 
ATOM     28  C   UNL     1       5.500  -0.362   4.549  0.00  0.00    -0.019 C 
ATOM     29  C   UNL     1       5.534   0.227   3.127  0.00  0.00    -0.086 C 
ATOM     30  N   UNL     1       6.892   0.015   2.628  0.00  0.00    +0.380 N 
ATOM     31  H   UNL     1       6.935  -0.866   2.101  0.00  0.00    -0.082 HD
BRANCH  30  33
ATOM     32  C   UNL     1       8.793   1.030   1.412  0.00  0.00    -0.017 C 
ATOM     33  C   UNL     1       7.301   1.141   1.733  0.00  0.00    -0.082 C 
ENDBRANCH  30  33
ENDBRANCH  25  29
ENDBRANCH  22  25
ENDBRANCH   1  22
TORSDOF 8
