REMARK  Name = ZINC14227495
REMARK  6 active torsions:
REMARK  status: ('A' for Active; 'I' for Inactive)
REMARK    1  A    between atoms: C_1  and  C_2
REMARK    2  A    between atoms: C_2  and  C_4
REMARK    3  A    between atoms: C_2  and  N_18
REMARK    4  A    between atoms: N_6  and  C_7
REMARK    5  A    between atoms: N_18  and  S_19
REMARK    6  A    between atoms: S_19  and  C_22
REMARK                            x       y       z     vdW  Elec       q    Type
REMARK                         _______ _______ _______ _____ _____    ______ ____
ROOT
ATOM      1  C   UNL     1       2.577  -3.737  -3.448  0.00  0.00    +0.236 C 
ATOM      2  O   UNL     1       1.856  -4.712  -3.417  0.00  0.00    -0.274 OA
ATOM      3  N   UNL     1       3.577  -3.667  -4.349  0.00  0.00    -0.283 N 
ATOM      4  H   UNL     1       4.182  -2.751  -4.429  0.00  0.00    +0.155 HD
ENDROOT
BRANCH   3   5
ATOM      5  C   UNL     1       3.846  -4.760  -5.185  0.00  0.00    +0.052 A 
ATOM      6  C   UNL     1       2.806  -5.563  -5.651  0.00  0.00    +0.028 A 
ATOM      7  C   UNL     1       3.117  -6.631  -6.473  0.00  0.00    +0.045 A 
ATOM      8  C   UNL     1       4.447  -6.866  -6.804  0.00  0.00    +0.121 A 
ATOM      9  N   UNL     1       5.409  -6.083  -6.342  0.00  0.00    -0.238 NA
ATOM     10  C   UNL     1       5.147  -5.052  -5.561  0.00  0.00    +0.136 A 
ATOM     11  N   UNL     1       4.771  -7.939  -7.631  0.00  0.00    -0.315 N 
ATOM     12  C   UNL     1       4.160  -7.778  -8.975  0.00  0.00    +0.106 C 
ATOM     13  C   UNL     1       5.016  -8.711  -9.868  0.00  0.00    +0.020 C 
ATOM     14  C   UNL     1       6.440  -8.528  -9.293  0.00  0.00    +0.020 C 
ATOM     15  C   UNL     1       6.231  -8.011  -7.858  0.00  0.00    +0.106 C 
ENDBRANCH   3   5
BRANCH   1  17
ATOM     16  C   UNL     1       2.064  -1.318  -3.256  0.00  0.00    +0.035 C 
ATOM     17  C   UNL     1       2.356  -2.604  -2.479  0.00  0.00    +0.159 C 
BRANCH  17  18
ATOM     18  N   UNL     1       1.218  -2.919  -1.611  0.00  0.00    -0.178 NA
ATOM     19  H   UNL     1       0.294  -3.332  -2.043  0.00  0.00    +0.149 HD
BRANCH  18  20
ATOM     20  S   UNL     1       1.223  -2.431  -0.029  0.00  0.00    +0.059 S 
ATOM     21  O   UNL     1       2.480  -2.817   0.511  0.00  0.00    -0.153 OA
ATOM     22  O   UNL     1      -0.010  -2.858   0.532  0.00  0.00    -0.153 OA
BRANCH  20  23
ATOM     23  C   UNL     1       1.194  -0.669  -0.027  0.00  0.00    +0.105 A 
ATOM     24  C   UNL     1      -0.014   0.002  -0.017  0.00  0.00    +0.030 A 
ATOM     25  C   UNL     1      -0.038   1.384  -0.015  0.00  0.00    +0.022 A 
ATOM     26  C   UNL     1       1.148   2.095  -0.024  0.00  0.00    +0.041 A 
ATOM     27  C   UNL     1       2.358   1.423  -0.036  0.00  0.00    +0.022 A 
ATOM     28  C   UNL     1       2.380   0.041  -0.037  0.00  0.00    +0.030 A 
ATOM     29 CL   UNL     1       1.119   3.831  -0.022  0.00  0.00    -0.084 Cl
ENDBRANCH  20  23
ENDBRANCH  18  20
ENDBRANCH  17  18
ENDBRANCH   1  17
TORSDOF 5
