REMARK  Name = ZINC59880586
REMARK  9 active torsions:
REMARK  status: ('A' for Active; 'I' for Inactive)
REMARK    1  A    between atoms: C_1  and  C_2
REMARK    2  A    between atoms: C_2  and  C_3
REMARK    3  A    between atoms: C_3  and  C_4
REMARK    4  A    between atoms: C_4  and  C_5
REMARK    5  A    between atoms: C_5  and  S_6
REMARK    6  A    between atoms: S_6  and  C_7
REMARK    7  A    between atoms: N_13  and  N_14
REMARK    8  A    between atoms: C_15  and  C_16
REMARK    9  A    between atoms: C_19  and  O_23
REMARK                            x       y       z     vdW  Elec       q    Type
REMARK                         _______ _______ _______ _____ _____    ______ ____
ROOT
ATOM      1  C   UNL     1      -4.527  -4.856   0.019  0.00  0.00    +0.190 A 
ATOM      2  N   UNL     1      -5.021  -6.130   0.023  0.00  0.00    -0.303 N 
ATOM      3  H   UNL     1      -4.496  -6.945   0.018  0.00  0.00    +0.171 HD
ATOM      4  C   UNL     1      -6.386  -6.053   0.034  0.00  0.00    +0.235 A 
ATOM      5  N   UNL     1      -6.721  -4.785   0.037  0.00  0.00    -0.111 NA
ATOM      6  N   UNL     1      -5.543  -4.027   0.034  0.00  0.00    -0.121 NA
ATOM      7  N   UNL     1      -7.263  -7.128   0.040  0.00  0.00    -0.205 N 
ATOM      8  H   UNL     1      -6.919  -8.035   0.036  0.00  0.00    +0.177 HD
ENDROOT
BRANCH   7   9
ATOM      9  N   UNL     1      -8.646  -6.904   0.052  0.00  0.00    -0.188 NA
ATOM     10  C   UNL     1      -9.467  -7.910   0.058  0.00  0.00    +0.138 C 
BRANCH  10  11
ATOM     11  C   UNL     1     -10.922  -7.674   0.070  0.00  0.00    -0.003 A 
ATOM     12  C   UNL     1     -11.421  -6.368   0.069  0.00  0.00    +0.028 A 
ATOM     13  C   UNL     1     -12.783  -6.152   0.080  0.00  0.00    +0.061 A 
ATOM     14  C   UNL     1     -13.659  -7.230   0.092  0.00  0.00    +0.145 A 
ATOM     15  C   UNL     1     -13.168  -8.529   0.093  0.00  0.00    +0.061 A 
ATOM     16  C   UNL     1     -11.808  -8.755   0.076  0.00  0.00    +0.028 A 
ATOM     17 BR   UNL     1     -14.367  -9.992   0.110  0.00  0.00    -0.046 Br
ATOM     18 BR   UNL     1     -13.458  -4.386   0.080  0.00  0.00    -0.046 Br
BRANCH  14  19
ATOM     19  O   UNL     1     -15.001  -7.012   0.103  0.00  0.00    -0.505 OA
ATOM     20  H   UNL     1     -15.396  -6.952  -0.778  0.00  0.00    +0.292 HD
ENDBRANCH  14  19
ENDBRANCH  10  11
ENDBRANCH   7   9
BRANCH   1  21
ATOM     21  S   UNL     1      -2.823  -4.407   0.005  0.00  0.00    -0.086 S 
BRANCH  21  22
ATOM     22  C   UNL     1      -2.848  -2.593   0.015  0.00  0.00    +0.077 C 
BRANCH  22  23
ATOM     23  C   UNL     1      -1.413  -2.063   0.004  0.00  0.00    +0.011 C 
BRANCH  23  24
ATOM     24  C   UNL     1      -1.433  -0.534   0.013  0.00  0.00    +0.001 C 
BRANCH  24  26
ATOM     25  C   UNL     1      -0.019   1.526   0.010  0.00  0.00    +0.004 C 
ATOM     26  C   UNL     1       0.002  -0.004   0.002  0.00  0.00    -0.003 C 
ENDBRANCH  24  26
ENDBRANCH  23  24
ENDBRANCH  22  23
ENDBRANCH  21  22
ENDBRANCH   1  21
TORSDOF 8
