REMARK  Name = ZINC05705569
REMARK  7 active torsions:
REMARK  status: ('A' for Active; 'I' for Inactive)
REMARK    1  A    between atoms: C_2  and  C_3
REMARK    2  A    between atoms: C_3  and  N_4
REMARK    3  A    between atoms: C_8  and  C_10
REMARK    4  A    between atoms: C_10  and  O_11
REMARK    5  A    between atoms: O_11  and  C_12
REMARK    6  A    between atoms: C_12  and  C_14
REMARK    7  A    between atoms: C_16  and  C_24
REMARK                            x       y       z     vdW  Elec       q    Type
REMARK                         _______ _______ _______ _____ _____    ______ ____
ROOT
ATOM      1  C   UNL     1      -1.306   2.064   0.019  0.00  0.00    +0.070 A 
ATOM      2  C   UNL     1      -2.513   1.387  -0.088  0.00  0.00    +0.044 A 
ATOM      3  C   UNL     1      -3.714   2.113  -0.068  0.00  0.00    +0.072 A 
ATOM      4  N   UNL     1      -3.741   3.425   0.038  0.00  0.00    -0.247 NA
ATOM      5  C   UNL     1      -2.630   4.156   0.140  0.00  0.00    +0.072 A 
ATOM      6  C   UNL     1      -1.362   3.522   0.137  0.00  0.00    +0.014 A 
ATOM      7  C   UNL     1      -0.199   4.292   0.245  0.00  0.00    +0.011 A 
ATOM      8  C   UNL     1      -0.296   5.648   0.352  0.00  0.00    +0.001 A 
ATOM      9  C   UNL     1      -1.540   6.276   0.356  0.00  0.00    +0.002 A 
ATOM     10  C   UNL     1      -2.691   5.557   0.253  0.00  0.00    +0.028 A 
ENDROOT
BRANCH   3  11
ATOM     11  C   UNL     1      -4.996   1.377  -0.177  0.00  0.00    +0.001 A 
ATOM     12  C   UNL     1      -4.997  -0.012  -0.296  0.00  0.00    +0.013 A 
ATOM     13  C   UNL     1      -6.193  -0.693  -0.392  0.00  0.00    +0.039 A 
ATOM     14  C   UNL     1      -7.392   0.002  -0.381  0.00  0.00    +0.123 A 
ATOM     15  C   UNL     1      -7.395   1.384  -0.268  0.00  0.00    +0.039 A 
ATOM     16  C   UNL     1      -6.205   2.072  -0.166  0.00  0.00    +0.013 A 
ATOM     17  F   UNL     1      -8.560  -0.668  -0.480  0.00  0.00    -0.205 F 
ENDBRANCH   3  11
BRANCH   1  18
ATOM     18  C   UNL     1      -0.016   1.343   0.009  0.00  0.00    +0.340 C 
ATOM     19  O   UNL     1       1.027   1.964   0.001  0.00  0.00    -0.245 OA
BRANCH  18  20
ATOM     20  O   UNL     1       0.002  -0.004   0.004  0.00  0.00    -0.452 OA
BRANCH  20  21
ATOM     21  C   UNL     1       1.305  -0.646  -0.012  0.00  0.00    +0.328 C 
BRANCH  21  26
ATOM     22  N   UNL     1       3.129  -5.093  -0.049  0.00  0.00    -0.296 N 
ATOM     23  C   UNL     1       2.049  -4.287  -0.035  0.00  0.00    +0.306 C 
ATOM     24  O   UNL     1       0.932  -4.767  -0.025  0.00  0.00    -0.252 OA
ATOM     25  N   UNL     1       2.207  -2.949  -0.031  0.00  0.00    -0.237 N 
ATOM     26  C   UNL     1       1.127  -2.142  -0.017  0.00  0.00    +0.258 C 
ATOM     27  O   UNL     1       0.014  -2.621  -0.007  0.00  0.00    -0.272 OA
ATOM     28  H   UNL     1       4.020  -4.710  -0.057  0.00  0.00    +0.151 HD
ATOM     29  H   UNL     1       3.098  -2.566  -0.039  0.00  0.00    +0.159 HD
BRANCH  22  30
ATOM     30  C   UNL     1       2.956  -6.548  -0.053  0.00  0.00    +0.132 C 
BRANCH  30  32
ATOM     31  C   UNL     1       4.618  -8.091   0.853  0.00  0.00    +0.005 C 
ATOM     32  C   UNL     1       4.308  -7.214  -0.070  0.00  0.00    -0.016 C 
ENDBRANCH  30  32
ENDBRANCH  22  30
ENDBRANCH  21  26
ENDBRANCH  20  21
ENDBRANCH  18  20
ENDBRANCH   1  18
TORSDOF 7
