REMARK  Name = ZINC06615729
REMARK  6 active torsions:
REMARK  status: ('A' for Active; 'I' for Inactive)
REMARK    1  A    between atoms: C_4  and  N_23
REMARK    2  A    between atoms: C_5  and  N_7
REMARK    3  A    between atoms: N_7  and  C_8
REMARK    4  A    between atoms: C_8  and  N_10
REMARK    5  A    between atoms: C_11  and  C_13
REMARK    6  A    between atoms: C_15  and  N_20
REMARK                            x       y       z     vdW  Elec       q    Type
REMARK                         _______ _______ _______ _____ _____    ______ ____
ROOT
ATOM      1  C   UNL     1       2.720   5.622   0.895  0.00  0.00    +0.141 C 
ATOM      2  S   UNL     1       1.772   6.501   2.018  0.00  0.00    -0.018 S 
ENDROOT
BRANCH   1   3
ATOM      3  N   UNL     1       2.697   4.275   0.902  0.00  0.00    -0.264 N 
ATOM      4  C   UNL     1       1.928   3.619   1.794  0.00  0.00    +0.251 C 
ATOM      5  O   UNL     1       1.255   4.242   2.591  0.00  0.00    -0.270 OA
ATOM      6  H   UNL     1       3.234   3.777   0.266  0.00  0.00    +0.157 HD
BRANCH   4   7
ATOM      7  C   UNL     1       1.902   2.142   1.802  0.00  0.00    +0.057 A 
ATOM      8  C   UNL     1       2.674   1.422   0.887  0.00  0.00    +0.047 A 
ATOM      9  C   UNL     1       2.647   0.044   0.900  0.00  0.00    +0.127 A 
ATOM     10  C   UNL     1       1.856  -0.628   1.817  0.00  0.00    +0.034 A 
ATOM     11  C   UNL     1       1.088   0.077   2.726  0.00  0.00    +0.023 A 
ATOM     12  C   UNL     1       1.106   1.459   2.724  0.00  0.00    +0.053 A 
ATOM     13 CL   UNL     1       0.136   2.343   3.861  0.00  0.00    -0.083 Cl
BRANCH   9  14
ATOM     14  N   UNL     1       3.464  -0.721  -0.069  0.00  0.00    +0.056 N 
ATOM     15  O   UNL     1       3.440  -1.938  -0.059  0.00  0.00    -0.126 OA
ATOM     16  O   UNL     1       4.160  -0.132  -0.876  0.00  0.00    -0.126 OA
ENDBRANCH   9  14
ENDBRANCH   4   7
ENDBRANCH   1   3
BRANCH   1  17
ATOM     17  N   UNL     1       3.489   6.278   0.003  0.00  0.00    -0.295 N 
ATOM     18  H   UNL     1       4.086   5.783  -0.580  0.00  0.00    +0.154 HD
BRANCH  17  23
ATOM     19  C   UNL     1       2.141   9.699  -0.142  0.00  0.00    +0.002 A 
ATOM     20  C   UNL     1       3.304  10.439  -0.248  0.00  0.00    +0.002 A 
ATOM     21  C   UNL     1       4.532   9.805  -0.272  0.00  0.00    +0.025 A 
ATOM     22  C   UNL     1       4.600   8.422  -0.189  0.00  0.00    +0.051 A 
ATOM     23  C   UNL     1       3.427   7.676  -0.081  0.00  0.00    +0.054 A 
ATOM     24  C   UNL     1       2.199   8.320  -0.064  0.00  0.00    +0.025 A 
BRANCH  22  25
ATOM     25  N   UNL     1       5.842   7.778  -0.213  0.00  0.00    -0.328 N 
ATOM     26  C   UNL     1       6.646   8.141   0.961  0.00  0.00    +0.105 C 
ATOM     27  C   UNL     1       7.932   7.311   0.977  0.00  0.00    +0.019 C 
ATOM     28  C   UNL     1       8.721   7.577  -0.308  0.00  0.00    +0.003 C 
ATOM     29  C   UNL     1       7.845   7.237  -1.516  0.00  0.00    +0.019 C 
ATOM     30  C   UNL     1       6.562   8.069  -1.460  0.00  0.00    +0.105 C 
ENDBRANCH  22  25
ENDBRANCH  17  23
ENDBRANCH   1  17
TORSDOF 6
