REMARK  Name = ZINC65232295
REMARK  4 active torsions:
REMARK  status: ('A' for Active; 'I' for Inactive)
REMARK    1  A    between atoms: C_1  and  C_2
REMARK    2  A    between atoms: C_3  and  C_24
REMARK    3  A    between atoms: C_5  and  C_7
REMARK    4  A    between atoms: C_13  and  C_15
REMARK                            x       y       z     vdW  Elec       q    Type
REMARK                         _______ _______ _______ _____ _____    ______ ____
ROOT
ATOM      1  C   UNL     1       1.347  -2.247  -0.134  0.00  0.00    +0.078 C 
ATOM      2  C   UNL     1       2.025  -1.884   1.189  0.00  0.00    +0.032 C 
ATOM      3  C   UNL     1       3.057  -2.961   1.541  0.00  0.00    +0.109 C 
ATOM      4  N   UNL     1       3.983  -3.116   0.411  0.00  0.00    -0.297 N 
ATOM      5  C   UNL     1       3.429  -3.377  -0.925  0.00  0.00    +0.109 C 
ATOM      6  C   UNL     1       2.394  -2.296  -1.249  0.00  0.00    +0.032 C 
ATOM      7  C   UNL     1       5.314  -3.021   0.596  0.00  0.00    +0.247 C 
ATOM      8  O   UNL     1       6.064  -3.036  -0.361  0.00  0.00    -0.270 OA
ENDROOT
BRANCH   7   9
ATOM      9  C   UNL     1       5.863  -2.897   1.961  0.00  0.00    +0.041 A 
ATOM     10  C   UNL     1       5.269  -3.589   3.019  0.00  0.00    +0.017 A 
ATOM     11  C   UNL     1       5.783  -3.474   4.292  0.00  0.00    +0.050 A 
ATOM     12  C   UNL     1       6.891  -2.670   4.529  0.00  0.00    +0.166 A 
ATOM     13  C   UNL     1       7.488  -1.976   3.476  0.00  0.00    +0.167 A 
ATOM     14  C   UNL     1       6.981  -2.093   2.196  0.00  0.00    +0.062 A 
ATOM     15  O   UNL     1       8.547  -1.267   3.967  0.00  0.00    -0.453 OA
ATOM     16  C   UNL     1       8.343  -1.210   5.391  0.00  0.00    +0.466 C 
ATOM     17  O   UNL     1       7.576  -2.396   5.675  0.00  0.00    -0.453 OA
ENDBRANCH   7   9
BRANCH   1  22
ATOM     18  C   UNL     1      -0.824   2.171  -1.207  0.00  0.00    +0.089 C 
ATOM     19  C   UNL     1      -0.619   0.704  -0.928  0.00  0.00    +0.135 A 
ATOM     20  C   UNL     1      -1.580  -0.259  -0.910  0.00  0.00    +0.167 A 
ATOM     21  N   UNL     1      -0.963  -1.436  -0.619  0.00  0.00    -0.208 NA
ATOM     22  C   UNL     1       0.307  -1.208  -0.466  0.00  0.00    +0.200 A 
ATOM     23  O   UNL     1       0.547   0.098  -0.655  0.00  0.00    -0.444 OA
BRANCH  20  24
ATOM     24  C   UNL     1      -3.020  -0.064  -1.159  0.00  0.00    +0.268 C 
ATOM     25  O   UNL     1      -3.468   1.059  -1.289  0.00  0.00    -0.268 OA
ATOM     26  N   UNL     1      -3.840  -1.130  -1.243  0.00  0.00    -0.295 N 
ATOM     27  C   UNL     1      -3.274  -2.480  -1.231  0.00  0.00    +0.119 C 
ATOM     28  C   UNL     1      -3.718  -3.208   0.043  0.00  0.00    +0.088 C 
ATOM     29  S   UNL     1      -5.535  -3.223   0.102  0.00  0.00    -0.158 S 
ATOM     30  C   UNL     1      -5.969  -1.467  -0.085  0.00  0.00    +0.088 C 
ATOM     31  C   UNL     1      -5.286  -0.924  -1.339  0.00  0.00    +0.119 C 
ENDBRANCH  20  24
ENDBRANCH   1  22
TORSDOF 3
