REMARK  Name = ZINC39688183
REMARK  6 active torsions:
REMARK  status: ('A' for Active; 'I' for Inactive)
REMARK    1  A    between atoms: C_6  and  O_7
REMARK    2  A    between atoms: O_7  and  C_8
REMARK    3  A    between atoms: C_8  and  C_9
REMARK    4  A    between atoms: C_9  and  N_10
REMARK    5  A    between atoms: C_11  and  C_13
REMARK    6  A    between atoms: C_24  and  C_26
REMARK                            x       y       z     vdW  Elec       q    Type
REMARK                         _______ _______ _______ _____ _____    ______ ____
ROOT
ATOM      1  C   UNL     1      -5.238  -2.149  -3.340  0.00  0.00    +0.100 C 
ATOM      2  C   UNL     1      -4.283  -2.871  -4.317  0.00  0.00    +0.121 C 
ATOM      3  N   UNL     1      -4.916  -4.190  -4.554  0.00  0.00    -0.296 N 
ATOM      4  C   UNL     1      -6.366  -3.893  -4.637  0.00  0.00    +0.115 C 
ATOM      5  C   UNL     1      -6.605  -2.820  -3.555  0.00  0.00    -0.004 C 
ATOM      6  C   UNL     1      -7.082  -3.474  -2.262  0.00  0.00    -0.010 C 
ATOM      7  C   UNL     1      -8.468  -4.085  -2.486  0.00  0.00    -0.082 C 
ATOM      8  N   UNL     1      -9.406  -3.036  -2.903  0.00  0.00    +0.379 N 
ATOM      9  C   UNL     1      -8.990  -2.476  -4.195  0.00  0.00    -0.082 C 
ATOM     10  C   UNL     1      -7.626  -1.797  -4.043  0.00  0.00    -0.010 C 
ATOM     11  C   UNL     1      -4.311  -5.388  -4.667  0.00  0.00    +0.247 C 
ATOM     12  O   UNL     1      -3.119  -5.490  -4.450  0.00  0.00    -0.270 OA
ATOM     13  H   UNL     1     -10.331  -3.429  -2.991  0.00  0.00    -0.086 HD
ATOM     14  H   UNL     1      -9.420  -2.303  -2.209  0.00  0.00    -0.086 HD
ENDROOT
BRANCH  11  15
ATOM     15  C   UNL     1      -5.096  -6.579  -5.057  0.00  0.00    +0.042 A 
ATOM     16  C   UNL     1      -6.316  -6.429  -5.717  0.00  0.00    +0.051 A 
ATOM     17  C   UNL     1      -7.045  -7.545  -6.079  0.00  0.00    +0.127 A 
ATOM     18  C   UNL     1      -6.567  -8.812  -5.788  0.00  0.00    +0.076 A 
ATOM     19  C   UNL     1      -5.357  -8.968  -5.133  0.00  0.00    +0.127 A 
ATOM     20  C   UNL     1      -4.616  -7.858  -4.771  0.00  0.00    +0.051 A 
ATOM     21  F   UNL     1      -4.896 -10.207  -4.851  0.00  0.00    -0.205 F 
ATOM     22  F   UNL     1      -8.227  -7.401  -6.718  0.00  0.00    -0.205 F 
ENDBRANCH  11  15
BRANCH   1  24
ATOM     23  N   UNL     1      -5.137  -1.456  -0.968  0.00  0.00    -0.312 N 
ATOM     24  C   UNL     1      -4.777  -2.341  -1.918  0.00  0.00    +0.218 C 
ATOM     25  O   UNL     1      -4.083  -3.292  -1.629  0.00  0.00    -0.275 OA
ATOM     26  H   UNL     1      -5.693  -0.695  -1.199  0.00  0.00    +0.149 HD
BRANCH  23  27
ATOM     27  C   UNL     1      -4.689  -1.642   0.414  0.00  0.00    +0.145 C 
BRANCH  27  28
ATOM     28  C   UNL     1      -5.233  -0.507   1.284  0.00  0.00    +0.247 C 
BRANCH  28  29
ATOM     29  O   UNL     1      -6.659  -0.586   1.335  0.00  0.00    -0.490 OA
BRANCH  29  35
ATOM     30  C   UNL     1      -8.688   0.339   2.164  0.00  0.00    +0.048 A 
ATOM     31  C   UNL     1      -9.342   1.297   2.914  0.00  0.00    +0.042 A 
ATOM     32  C   UNL     1      -8.617   2.275   3.573  0.00  0.00    +0.124 A 
ATOM     33  C   UNL     1      -7.235   2.294   3.481  0.00  0.00    +0.042 A 
ATOM     34  C   UNL     1      -6.579   1.337   2.732  0.00  0.00    +0.048 A 
ATOM     35  C   UNL     1      -7.304   0.356   2.072  0.00  0.00    +0.121 A 
ATOM     36  F   UNL     1      -9.258   3.212   4.306  0.00  0.00    -0.205 F 
ENDBRANCH  29  35
ENDBRANCH  28  29
ENDBRANCH  27  28
ENDBRANCH  23  27
ENDBRANCH   1  24
TORSDOF 6
