REMARK  Name = ZINC14016731
REMARK  6 active torsions:
REMARK  status: ('A' for Active; 'I' for Inactive)
REMARK    1  A    between atoms: C_1  and  C_2
REMARK    2  A    between atoms: C_9  and  N_14
REMARK    3  A    between atoms: C_10  and  C_11
REMARK    4  A    between atoms: C_15  and  C_17
REMARK    5  A    between atoms: N_22  and  S_24
REMARK    6  A    between atoms: S_24  and  C_27
REMARK                            x       y       z     vdW  Elec       q    Type
REMARK                         _______ _______ _______ _____ _____    ______ ____
ROOT
ATOM      1  N   UNL     1      -0.913   3.251   3.754  0.00  0.00    -0.279 N 
ATOM      2  C   UNL     1      -1.402   3.596   2.546  0.00  0.00    +0.222 C 
ATOM      3  O   UNL     1      -2.388   4.298   2.470  0.00  0.00    -0.275 OA
ATOM      4  H   UNL     1      -0.124   2.690   3.815  0.00  0.00    +0.155 HD
ENDROOT
BRANCH   1  12
ATOM      5  C   UNL     1      -4.781   5.894  10.019  0.00  0.00    +0.008 C 
ATOM      6  C   UNL     1      -3.985   4.979   9.087  0.00  0.00    -0.009 C 
ATOM      7  C   UNL     1      -2.515   4.962   9.516  0.00  0.00    +0.008 C 
ATOM      8  C   UNL     1      -1.764   3.867   8.757  0.00  0.00    +0.037 C 
ATOM      9  C   UNL     1      -2.017   4.044   7.264  0.00  0.00    -0.023 A 
ATOM     10  C   UNL     1      -3.056   4.782   6.818  0.00  0.00    -0.004 A 
ATOM     11  S   UNL     1      -2.945   4.699   5.053  0.00  0.00    -0.077 S 
ATOM     12  C   UNL     1      -1.538   3.698   4.908  0.00  0.00    +0.084 A 
ATOM     13  C   UNL     1      -1.191   3.447   6.229  0.00  0.00    +0.068 A 
ATOM     14  C   UNL     1      -4.073   5.504   7.646  0.00  0.00    +0.046 C 
BRANCH  13  15
ATOM     15  C   UNL     1      -0.032   2.615   6.565  0.00  0.00    +0.244 C 
ATOM     16  O   UNL     1       1.064   3.125   6.707  0.00  0.00    -0.270 OA
ATOM     17  N   UNL     1      -0.180   1.284   6.718  0.00  0.00    -0.325 N 
ATOM     18  H   UNL     1      -1.054   0.877   6.606  0.00  0.00    +0.145 HD
ATOM     19  H   UNL     1       0.586   0.733   6.941  0.00  0.00    +0.145 HD
ENDBRANCH  13  15
ENDBRANCH   1  12
BRANCH   2  20
ATOM     20  C   UNL     1      -0.724   3.110   1.292  0.00  0.00    +0.091 C 
ATOM     21  C   UNL     1      -0.730   1.580   1.266  0.00  0.00    +0.015 C 
ATOM     22  C   UNL     1      -0.013   1.086   0.008  0.00  0.00    +0.018 C 
ATOM     23  C   UNL     1      -0.755   1.594  -1.232  0.00  0.00    +0.109 C 
ATOM     24  N   UNL     1      -0.879   3.055  -1.143  0.00  0.00    -0.176 NA
ATOM     25  C   UNL     1      -1.474   3.641   0.066  0.00  0.00    +0.122 C 
BRANCH  24  26
ATOM     26  S   UNL     1      -0.360   4.023  -2.382  0.00  0.00    +0.061 S 
ATOM     27  O   UNL     1      -0.087   5.297  -1.815  0.00  0.00    -0.153 OA
ATOM     28  O   UNL     1       0.621   3.281  -3.094  0.00  0.00    -0.153 OA
BRANCH  26  29
ATOM     29  C   UNL     1      -1.721   4.241  -3.479  0.00  0.00    +0.106 A 
ATOM     30  C   UNL     1      -1.912   3.360  -4.527  0.00  0.00    +0.030 A 
ATOM     31  C   UNL     1      -2.983   3.527  -5.385  0.00  0.00    +0.022 A 
ATOM     32  C   UNL     1      -3.858   4.583  -5.200  0.00  0.00    +0.041 A 
ATOM     33  C   UNL     1      -3.664   5.467  -4.154  0.00  0.00    +0.022 A 
ATOM     34  C   UNL     1      -2.596   5.296  -3.294  0.00  0.00    +0.030 A 
ATOM     35 CL   UNL     1      -5.199   4.798  -6.282  0.00  0.00    -0.084 Cl
ENDBRANCH  26  29
ENDBRANCH  24  26
ENDBRANCH   2  20
TORSDOF 5
