REMARK  Name = ZINC08666479
REMARK  6 active torsions:
REMARK  status: ('A' for Active; 'I' for Inactive)
REMARK    1  A    between atoms: C_4  and  C_7
REMARK    2  A    between atoms: N_9  and  C_10
REMARK    3  A    between atoms: C_10  and  C_12
REMARK    4  A    between atoms: C_10  and  C_23
REMARK    5  A    between atoms: N_25  and  N_26
REMARK    6  A    between atoms: C_27  and  C_28
REMARK                            x       y       z     vdW  Elec       q    Type
REMARK                         _______ _______ _______ _____ _____    ______ ____
ROOT
ATOM      1  C   UNL     1       5.001  -2.738  -0.076  0.00  0.00    +0.212 C 
ENDROOT
BRANCH   1   2
ATOM      2  C   UNL     1       5.505  -2.882   1.337  0.00  0.00    +0.099 A 
ATOM      3  C   UNL     1       6.937  -3.036   1.591  0.00  0.00    +0.013 A 
ATOM      4  C   UNL     1       7.871  -3.055   0.553  0.00  0.00    +0.010 A 
ATOM      5  C   UNL     1       9.200  -3.201   0.841  0.00  0.00    +0.001 A 
ATOM      6  C   UNL     1       9.635  -3.332   2.154  0.00  0.00    +0.001 A 
ATOM      7  C   UNL     1       8.736  -3.317   3.198  0.00  0.00    +0.014 A 
ATOM      8  C   UNL     1       7.376  -3.168   2.928  0.00  0.00    +0.050 A 
ATOM      9  C   UNL     1       6.369  -3.144   3.996  0.00  0.00    +0.272 A 
ATOM     10  N   UNL     1       5.071  -2.997   3.660  0.00  0.00    -0.242 N 
ATOM     11  N   UNL     1       4.667  -2.863   2.331  0.00  0.00    -0.173 NA
ATOM     12  O   UNL     1       6.699  -3.255   5.163  0.00  0.00    -0.266 OA
ATOM     13  H   UNL     1       4.401  -2.980   4.361  0.00  0.00    +0.192 HD
ENDBRANCH   1   2
BRANCH   1  16
ATOM     14  C   UNL     1       3.704  -0.675  -0.062  0.00  0.00    +0.245 C 
ATOM     15  O   UNL     1       4.749  -0.053  -0.063  0.00  0.00    -0.270 OA
ATOM     16  N   UNL     1       3.722  -2.023  -0.068  0.00  0.00    -0.295 N 
ATOM     17  H   UNL     1       2.889  -2.519  -0.067  0.00  0.00    +0.150 HD
BRANCH  14  21
ATOM     18  C   UNL     1      -0.002   1.399  -0.040  0.00  0.00    +0.000 A 
ATOM     19  C   UNL     1       1.185   2.110  -0.041  0.00  0.00    +0.001 A 
ATOM     20  C   UNL     1       2.392   1.442  -0.048  0.00  0.00    +0.013 A 
ATOM     21  C   UNL     1       2.414   0.047  -0.054  0.00  0.00    +0.037 A 
ATOM     22  C   UNL     1       1.213  -0.664  -0.053  0.00  0.00    +0.013 A 
ATOM     23  C   UNL     1       0.013   0.016  -0.046  0.00  0.00    +0.001 A 
ENDBRANCH  14  21
ENDBRANCH   1  16
BRANCH   1  24
ATOM     24  C   UNL     1       4.808  -4.104  -0.681  0.00  0.00    +0.259 C 
ATOM     25  O   UNL     1       3.711  -4.447  -1.069  0.00  0.00    -0.272 OA
ATOM     26  N   UNL     1       5.855  -4.946  -0.793  0.00  0.00    -0.205 N 
ATOM     27  H   UNL     1       6.732  -4.672  -0.483  0.00  0.00    +0.177 HD
BRANCH  26  28
ATOM     28  N   UNL     1       5.676  -6.216  -1.356  0.00  0.00    -0.188 NA
ATOM     29  C   UNL     1       6.685  -7.027  -1.464  0.00  0.00    +0.139 C 
BRANCH  29  30
ATOM     30  C   UNL     1       6.497  -8.361  -2.055  0.00  0.00    +0.002 A 
ATOM     31  C   UNL     1       7.584  -9.197  -2.280  0.00  0.00    +0.010 A 
ATOM     32  C   UNL     1       7.403 -10.455  -2.838  0.00  0.00    +0.001 A 
ATOM     33  C   UNL     1       6.170 -10.917  -3.184  0.00  0.00    +0.008 A 
ATOM     34  C   UNL     1       5.026 -10.126  -2.986  0.00  0.00    -0.017 A 
ATOM     35  C   UNL     1       5.162  -8.837  -2.413  0.00  0.00    -0.009 A 
ATOM     36  C   UNL     1       4.024  -8.047  -2.209  0.00  0.00    +0.009 A 
ATOM     37  C   UNL     1       2.798  -8.530  -2.557  0.00  0.00    +0.001 A 
ATOM     38  C   UNL     1       2.660  -9.799  -3.115  0.00  0.00    +0.001 A 
ATOM     39  C   UNL     1       3.747 -10.589  -3.338  0.00  0.00    +0.008 A 
ENDBRANCH  29  30
ENDBRANCH  26  28
ENDBRANCH   1  24
TORSDOF 6
