REMARK  Name = ZINC17080529
REMARK  7 active torsions:
REMARK  status: ('A' for Active; 'I' for Inactive)
REMARK    1  A    between atoms: C_1  and  C_2
REMARK    2  A    between atoms: C_2  and  C_4
REMARK    3  A    between atoms: C_2  and  O_20
REMARK    4  A    between atoms: N_6  and  N_7
REMARK    5  A    between atoms: N_10  and  C_11
REMARK    6  A    between atoms: C_15  and  N_17
REMARK    7  A    between atoms: O_20  and  C_21
REMARK                            x       y       z     vdW  Elec       q    Type
REMARK                         _______ _______ _______ _____ _____    ______ ____
ROOT
ATOM      1  C   UNL     1      -0.180   9.343   0.120  0.00  0.00    +0.270 C 
ATOM      2  O   UNL     1       0.836  10.000   0.034  0.00  0.00    -0.270 OA
ATOM      3  N   UNL     1      -0.131   8.004  -0.022  0.00  0.00    -0.230 N 
ATOM      4  H   UNL     1      -0.943   7.479   0.048  0.00  0.00    +0.173 HD
ENDROOT
BRANCH   3   5
ATOM      5  N   UNL     1       1.094   7.370  -0.270  0.00  0.00    -0.218 N 
ATOM      6  C   UNL     1       1.143   6.031  -0.412  0.00  0.00    +0.320 C 
ATOM      7  O   UNL     1       2.206   5.481  -0.627  0.00  0.00    -0.251 OA
ATOM      8  N   UNL     1       0.014   5.301  -0.315  0.00  0.00    -0.268 N 
ATOM      9  H   UNL     1       1.907   7.896  -0.339  0.00  0.00    +0.174 HD
ATOM     10  H   UNL     1      -0.843   5.744  -0.217  0.00  0.00    +0.156 HD
BRANCH   8  11
ATOM     11  C   UNL     1       0.079   3.904  -0.357  0.00  0.00    +0.037 A 
ATOM     12  C   UNL     1       1.176   3.241   0.178  0.00  0.00    +0.023 A 
ATOM     13  C   UNL     1       1.236   1.862   0.135  0.00  0.00    +0.004 A 
ATOM     14  C   UNL     1       0.206   1.141  -0.440  0.00  0.00    +0.033 A 
ATOM     15  C   UNL     1      -0.885   1.798  -0.979  0.00  0.00    +0.128 A 
ATOM     16  C   UNL     1      -0.954   3.177  -0.934  0.00  0.00    +0.056 A 
BRANCH  15  17
ATOM     17  N   UNL     1      -1.983   1.022  -1.599  0.00  0.00    +0.056 N 
ATOM     18  O   UNL     1      -1.925  -0.194  -1.635  0.00  0.00    -0.126 OA
ATOM     19  O   UNL     1      -2.944   1.601  -2.074  0.00  0.00    -0.126 OA
ENDBRANCH  15  17
ENDBRANCH   8  11
ENDBRANCH   3   5
BRANCH   1  21
ATOM     20  C   UNL     1      -2.418   9.845  -0.821  0.00  0.00    +0.062 C 
ATOM     21  C   UNL     1      -1.497  10.025   0.387  0.00  0.00    +0.257 C 
BRANCH  21  22
ATOM     22  O   UNL     1      -1.275  11.418   0.613  0.00  0.00    -0.479 OA
BRANCH  22  23
ATOM     23  C   UNL     1      -2.204  12.078   1.353  0.00  0.00    +0.129 A 
ATOM     24  C   UNL     1      -3.348  11.443   1.747  0.00  0.00    +0.046 A 
ATOM     25  C   UNL     1      -4.307  12.104   2.509  0.00  0.00    +0.004 A 
ATOM     26  C   UNL     1      -4.138  13.405   2.875  0.00  0.00    +0.009 A 
ATOM     27  C   UNL     1      -2.978  14.095   2.485  0.00  0.00    -0.014 A 
ATOM     28  C   UNL     1      -1.997  13.425   1.714  0.00  0.00    +0.024 A 
ATOM     29  C   UNL     1      -0.837  14.115   1.324  0.00  0.00    +0.012 A 
ATOM     30  C   UNL     1      -0.672  15.415   1.691  0.00  0.00    +0.001 A 
ATOM     31  C   UNL     1      -1.637  16.075   2.449  0.00  0.00    +0.001 A 
ATOM     32  C   UNL     1      -2.773  15.438   2.845  0.00  0.00    +0.008 A 
ENDBRANCH  22  23
ENDBRANCH  21  22
ENDBRANCH   1  21
TORSDOF 6
