REMARK  Name = ZINC62826873
REMARK  4 active torsions:
REMARK  status: ('A' for Active; 'I' for Inactive)
REMARK    1  A    between atoms: C_3  and  C_18
REMARK    2  A    between atoms: C_4  and  N_8
REMARK    3  A    between atoms: C_9  and  C_11
REMARK    4  A    between atoms: C_11  and  N_17
REMARK                            x       y       z     vdW  Elec       q    Type
REMARK                         _______ _______ _______ _____ _____    ______ ____
ROOT
ATOM      1  N   UNL     1       3.546  -0.813  -0.372  0.00  0.00    -0.285 N 
ATOM      2  C   UNL     1       3.538  -2.117  -0.033  0.00  0.00    +0.206 C 
ATOM      3  O   UNL     1       2.493  -2.664   0.250  0.00  0.00    -0.277 OA
ATOM      4  H   UNL     1       4.374  -0.389  -0.648  0.00  0.00    +0.155 HD
ENDROOT
BRANCH   1   8
ATOM      5  C   UNL     1       0.013   1.398  -0.233  0.00  0.00    +0.002 A 
ATOM      6  C   UNL     1       0.679   1.266  -1.431  0.00  0.00    +0.017 A 
ATOM      7  C   UNL     1       1.865   0.528  -1.491  0.00  0.00    +0.085 A 
ATOM      8  C   UNL     1       2.367  -0.075  -0.326  0.00  0.00    +0.062 A 
ATOM      9  C   UNL     1       1.680   0.070   0.873  0.00  0.00    +0.040 A 
ATOM     10  C   UNL     1       0.510   0.803   0.915  0.00  0.00    +0.017 A 
ATOM     11 BR   UNL     1       2.347  -0.737   2.447  0.00  0.00    -0.048 Br
BRANCH   7  12
ATOM     12  C   UNL     1       2.583   0.382  -2.768  0.00  0.00    +0.388 C 
ATOM     13  O   UNL     1       2.073   0.783  -3.805  0.00  0.00    -0.241 OA
ATOM     14  O   UNL     1       3.689  -0.140  -2.792  0.00  0.00    -0.241 OA
ENDBRANCH   7  12
ENDBRANCH   1   8
BRANCH   2  15
ATOM     15  C   UNL     1       4.828  -2.897  -0.006  0.00  0.00    +0.007 C 
ATOM     16  C   UNL     1       5.212  -3.297  -1.431  0.00  0.00    -0.004 C 
ATOM     17  C   UNL     1       4.105  -4.165  -2.034  0.00  0.00    -0.001 C 
ATOM     18  C   UNL     1       3.922  -5.423  -1.182  0.00  0.00    -0.000 C 
ATOM     19  C   UNL     1       3.538  -5.022   0.244  0.00  0.00    -0.001 C 
ATOM     20  C   UNL     1       4.646  -4.155   0.846  0.00  0.00    -0.004 C 
BRANCH  15  21
ATOM     21  N   UNL     1       5.891  -2.064   0.572  0.00  0.00    +0.388 N 
ATOM     22  H   UNL     1       5.638  -1.800   1.512  0.00  0.00    -0.089 HD
ATOM     23  H   UNL     1       6.755  -2.586   0.591  0.00  0.00    -0.089 HD
ATOM     24  H   UNL     1       6.011  -1.234   0.011  0.00  0.00    -0.089 HD
ENDBRANCH  15  21
ENDBRANCH   2  15
TORSDOF 4
