REMARK  Name = ZINC08835562
REMARK  10 active torsions:
REMARK  status: ('A' for Active; 'I' for Inactive)
REMARK    1  A    between atoms: C_1  and  C_2
REMARK    2  A    between atoms: C_2  and  C_3
REMARK    3  A    between atoms: C_2  and  C_4
REMARK    4  A    between atoms: C_2  and  C_5
REMARK    5  A    between atoms: C_8  and  C_11
REMARK    6  A    between atoms: N_13  and  C_14
REMARK    7  A    between atoms: C_17  and  N_20
REMARK    8  A    between atoms: N_20  and  C_21
REMARK    9  A    between atoms: C_21  and  N_23
REMARK   10  A    between atoms: C_24  and  C_26
REMARK                            x       y       z     vdW  Elec       q    Type
REMARK                         _______ _______ _______ _____ _____    ______ ____
ROOT
ATOM      1  C   UNL     1       8.667  -5.827  -0.018  0.00  0.00    +0.034 A 
ATOM      2  C   UNL     1       7.509  -6.593  -0.059  0.00  0.00    +0.025 A 
ATOM      3  C   UNL     1       6.276  -5.976  -0.123  0.00  0.00    +0.025 A 
ATOM      4  C   UNL     1       6.194  -4.590  -0.147  0.00  0.00    +0.033 A 
ATOM      5  C   UNL     1       7.352  -3.824  -0.113  0.00  0.00    +0.025 A 
ATOM      6  C   UNL     1       8.585  -4.441  -0.043  0.00  0.00    +0.025 A 
ENDROOT
BRANCH   1   9
ATOM      7  C   UNL     1      10.911  -5.901   0.771  0.00  0.00    +0.248 C 
ATOM      8  O   UNL     1      10.739  -4.831   1.323  0.00  0.00    -0.270 OA
ATOM      9  N   UNL     1       9.918  -6.453   0.046  0.00  0.00    -0.282 N 
ATOM     10  H   UNL     1      10.070  -7.285  -0.430  0.00  0.00    +0.155 HD
BRANCH   7  14
ATOM     11  C   UNL     1      14.644  -7.896   1.126  0.00  0.00    -0.042 A 
ATOM     12  C   UNL     1      14.451  -6.679   1.755  0.00  0.00    +0.005 A 
ATOM     13  C   UNL     1      13.241  -6.026   1.643  0.00  0.00    +0.013 A 
ATOM     14  C   UNL     1      12.210  -6.595   0.894  0.00  0.00    +0.037 A 
ATOM     15  C   UNL     1      12.410  -7.826   0.266  0.00  0.00    +0.013 A 
ATOM     16  C   UNL     1      13.626  -8.466   0.381  0.00  0.00    +0.005 A 
BRANCH  11  18
ATOM     17  C   UNL     1      16.251  -8.899   2.726  0.00  0.00    +0.015 C 
ATOM     18  C   UNL     1      15.969  -8.604   1.251  0.00  0.00    -0.013 C 
ATOM     19  C   UNL     1      15.921  -9.918   0.469  0.00  0.00    +0.015 C 
ATOM     20  C   UNL     1      17.078  -7.714   0.687  0.00  0.00    +0.015 C 
ENDBRANCH  11  18
ENDBRANCH   7  14
ENDBRANCH   1   9
BRANCH   4  21
ATOM     21  N   UNL     1       4.942  -3.963  -0.212  0.00  0.00    -0.297 N 
ATOM     22  H   UNL     1       4.806  -3.213  -0.812  0.00  0.00    +0.154 HD
BRANCH  21  23
ATOM     23  C   UNL     1       3.928  -4.404   0.557  0.00  0.00    +0.141 C 
ATOM     24  S   UNL     1       4.139  -5.788   1.543  0.00  0.00    -0.018 S 
BRANCH  23  25
ATOM     25  N   UNL     1       2.746  -3.755   0.551  0.00  0.00    -0.264 N 
ATOM     26  C   UNL     1       1.731  -4.196   1.320  0.00  0.00    +0.250 C 
ATOM     27  O   UNL     1       1.881  -5.178   2.020  0.00  0.00    -0.270 OA
ATOM     28  H   UNL     1       2.626  -2.971  -0.008  0.00  0.00    +0.157 HD
BRANCH  26  29
ATOM     29  C   UNL     1       0.438  -3.486   1.313  0.00  0.00    +0.041 A 
ATOM     30  C   UNL     1       0.263  -2.356   0.509  0.00  0.00    +0.017 A 
ATOM     31  C   UNL     1      -0.945  -1.695   0.505  0.00  0.00    +0.050 A 
ATOM     32  C   UNL     1      -1.993  -2.146   1.299  0.00  0.00    +0.162 A 
ATOM     33  C   UNL     1      -1.827  -3.273   2.100  0.00  0.00    +0.163 A 
ATOM     34  C   UNL     1      -0.616  -3.941   2.110  0.00  0.00    +0.062 A 
ATOM     35  O   UNL     1      -2.846  -3.732   2.876  0.00  0.00    -0.485 OA
ATOM     36  C   UNL     1      -3.925  -2.824   3.126  0.00  0.00    +0.270 C 
ATOM     37  C   UNL     1      -4.317  -2.168   1.796  0.00  0.00    +0.270 C 
ATOM     38  O   UNL     1      -3.174  -1.473   1.285  0.00  0.00    -0.485 OA
ENDBRANCH  26  29
ENDBRANCH  23  25
ENDBRANCH  21  23
ENDBRANCH   4  21
TORSDOF 7
