REMARK  Name = ZINC21226613
REMARK  5 active torsions:
REMARK  status: ('A' for Active; 'I' for Inactive)
REMARK    1  A    between atoms: C_1  and  C_2
REMARK    2  A    between atoms: C_2  and  O_3
REMARK    3  A    between atoms: O_3  and  C_4
REMARK    4  A    between atoms: C_7  and  C_10
REMARK    5  A    between atoms: C_15  and  C_25
REMARK                            x       y       z     vdW  Elec       q    Type
REMARK                         _______ _______ _______ _____ _____    ______ ____
ROOT
ATOM      1  C   UNL     1      -5.486   4.884   1.668  0.00  0.00    +0.032 C 
ATOM      2  C   UNL     1      -4.028   5.071   1.251  0.00  0.00    +0.059 C 
ATOM      3  C   UNL     1      -3.416   3.725   0.898  0.00  0.00    +0.017 C 
ATOM      4  C   UNL     1      -3.804   2.612   1.541  0.00  0.00    +0.038 C 
ATOM      5  C   UNL     1      -3.261   1.221   1.314  0.00  0.00    +0.155 C 
ATOM      6  N   UNL     1      -2.435   1.086   0.133  0.00  0.00    -0.330 N 
ATOM      7  C   UNL     1      -1.218   1.758   0.017  0.00  0.00    +0.049 A 
ATOM      8  C   UNL     1      -0.013   1.076   0.008  0.00  0.00    +0.025 A 
ATOM      9  C   UNL     1       1.173   1.790   0.001  0.00  0.00    +0.002 A 
ATOM     10  C   UNL     1       1.156   3.173   0.003  0.00  0.00    +0.002 A 
ATOM     11  C   UNL     1      -0.047   3.858  -0.008  0.00  0.00    +0.025 A 
ATOM     12  C   UNL     1      -1.234   3.145  -0.011  0.00  0.00    +0.052 A 
ATOM     13  N   UNL     1      -2.474   3.768  -0.079  0.00  0.00    -0.316 N 
ATOM     14  C   UNL     1      -4.814   2.677   2.531  0.00  0.00    +0.163 C 
ATOM     15  O   UNL     1      -5.131   1.657   3.112  0.00  0.00    -0.292 OA
ATOM     16  C   UNL     1      -5.507   3.957   2.889  0.00  0.00    +0.088 C 
ATOM     17  H   UNL     1      -2.763   0.442  -0.697  0.00  0.00    +0.147 HD
ATOM     18  H   UNL     1      -2.669   4.325  -1.007  0.00  0.00    +0.152 HD
ENDROOT
BRANCH   1  22
ATOM     19  C   UNL     1      -7.197   8.665   2.687  0.00  0.00    +0.121 A 
ATOM     20  C   UNL     1      -7.740   7.912   1.656  0.00  0.00    +0.046 A 
ATOM     21  C   UNL     1      -7.185   6.690   1.329  0.00  0.00    +0.007 A 
ATOM     22  C   UNL     1      -6.089   6.218   2.027  0.00  0.00    -0.043 A 
ATOM     23  C   UNL     1      -5.549   6.964   3.058  0.00  0.00    +0.007 A 
ATOM     24  C   UNL     1      -6.097   8.189   3.386  0.00  0.00    +0.046 A 
BRANCH  19  25
ATOM     25  O   UNL     1      -7.740   9.868   3.010  0.00  0.00    -0.492 OA
BRANCH  25  27
ATOM     26  C   UNL     1      -7.873  11.908   4.299  0.00  0.00    +0.048 C 
ATOM     27  C   UNL     1      -7.129  10.589   4.082  0.00  0.00    +0.225 C 
ENDBRANCH  25  27
ENDBRANCH  19  25
ENDBRANCH   1  22
BRANCH   5  28
ATOM     28  C   UNL     1      -2.444   0.825   2.516  0.00  0.00    +0.066 A 
ATOM     29  C   UNL     1      -2.744  -0.343   3.192  0.00  0.00    +0.025 A 
ATOM     30  C   UNL     1      -1.983  -0.701   4.293  0.00  0.00    +0.003 A 
ATOM     31  C   UNL     1      -0.951   0.138   4.683  0.00  0.00    +0.020 A 
ATOM     32  C   UNL     1      -0.713   1.293   3.962  0.00  0.00    +0.111 A 
ATOM     33  N   UNL     1      -1.454   1.599   2.915  0.00  0.00    -0.258 NA
ENDBRANCH   5  28
TORSDOF 4
