REMARK  Name = ZINC27490413
REMARK  10 active torsions:
REMARK  status: ('A' for Active; 'I' for Inactive)
REMARK    1  A    between atoms: C_1  and  C_2
REMARK    2  A    between atoms: C_7  and  N_8
REMARK    3  A    between atoms: C_9  and  C_11
REMARK    4  A    between atoms: C_12  and  C_30
REMARK    5  A    between atoms: C_14  and  S_26
REMARK    6  A    between atoms: C_15  and  C_24
REMARK    7  A    between atoms: C_16  and  C_18
REMARK    8  A    between atoms: C_21  and  C_23
REMARK    9  A    between atoms: S_26  and  C_27
REMARK   10  A    between atoms: C_27  and  C_28
REMARK                            x       y       z     vdW  Elec       q    Type
REMARK                         _______ _______ _______ _____ _____    ______ ____
ROOT
ATOM      1  C   UNL     1      -1.002   3.350   0.159  0.00  0.00    +0.047 C 
ATOM      2  C   UNL     1      -0.933   2.036   0.432  0.00  0.00    +0.015 C 
ATOM      3  N   UNL     1       0.265   1.375   0.405  0.00  0.00    -0.312 N 
ATOM      4  C   UNL     1       1.345   1.925  -0.248  0.00  0.00    +0.080 C 
ATOM      5  C   UNL     1       1.364   3.249  -0.556  0.00  0.00    +0.072 C 
ATOM      6  C   UNL     1       0.220   4.151  -0.188  0.00  0.00    +0.134 C 
ATOM      7  C   UNL     1      -2.190   1.281   0.777  0.00  0.00    +0.061 C 
ATOM      8  H   UNL     1       0.366   0.401   0.907  0.00  0.00    +0.152 HD
ENDROOT
BRANCH   6   9
ATOM      9  C   UNL     1      -0.094   5.054  -1.354  0.00  0.00    +0.118 A 
ATOM     10  C   UNL     1      -0.129   6.398  -1.321  0.00  0.00    +0.046 A 
ATOM     11  C   UNL     1      -0.462   6.831  -2.625  0.00  0.00    +0.044 A 
ATOM     12  C   UNL     1      -0.611   5.726  -3.377  0.00  0.00    +0.102 A 
ATOM     13  O   UNL     1      -0.381   4.652  -2.603  0.00  0.00    -0.464 OA
ATOM     14  C   UNL     1      -0.968   5.697  -4.840  0.00  0.00    +0.086 C 
ENDBRANCH   6   9
BRANCH   1  16
ATOM     15  N   UNL     1      -3.127   3.839  -0.828  0.00  0.00    -0.281 N 
ATOM     16  C   UNL     1      -2.262   3.995   0.193  0.00  0.00    +0.247 C 
ATOM     17  O   UNL     1      -2.563   4.692   1.145  0.00  0.00    -0.270 OA
ATOM     18  H   UNL     1      -2.896   3.136  -1.642  0.00  0.00    +0.155 HD
BRANCH  15  25
ATOM     19  C   UNL     1      -4.213   4.553  -3.359  0.00  0.00    +0.045 C 
ATOM     20  C   UNL     1      -4.885   4.938  -2.066  0.00  0.00    -0.029 A 
ATOM     21  C   UNL     1      -6.062   5.660  -2.087  0.00  0.00    +0.005 A 
ATOM     22  C   UNL     1      -6.678   6.015  -0.901  0.00  0.00    +0.000 A 
ATOM     23  C   UNL     1      -6.118   5.648   0.309  0.00  0.00    +0.002 A 
ATOM     24  C   UNL     1      -4.944   4.923   0.337  0.00  0.00    +0.023 A 
ATOM     25  C   UNL     1      -4.319   4.569  -0.853  0.00  0.00    +0.037 A 
ENDBRANCH  15  25
ENDBRANCH   1  16
BRANCH   5  26
ATOM     26  C   UNL     1       2.495   3.794  -1.244  0.00  0.00    +0.098 C 
ATOM     27  N   UNL     1       3.393   4.227  -1.789  0.00  0.00    -0.191 NA
ENDBRANCH   5  26
BRANCH   4  28
ATOM     28  S   UNL     1       2.712   0.904  -0.690  0.00  0.00    -0.105 S 
BRANCH  28  29
ATOM     29  C   UNL     1       2.136  -0.687  -0.048  0.00  0.00    +0.102 C 
BRANCH  29  30
ATOM     30  C   UNL     1       3.176  -1.744  -0.320  0.00  0.00    -0.024 C 
ATOM     31  C   UNL     1       3.793  -2.328   0.677  0.00  0.00    +0.005 C 
ENDBRANCH  29  30
ENDBRANCH  28  29
ENDBRANCH   4  28
TORSDOF 7
