REMARK  Name = ZINC08749850
REMARK  9 active torsions:
REMARK  status: ('A' for Active; 'I' for Inactive)
REMARK    1  A    between atoms: C_1  and  C_2
REMARK    2  A    between atoms: C_2  and  C_4
REMARK    3  A    between atoms: C_2  and  N_11
REMARK    4  A    between atoms: C_12  and  C_14
REMARK    5  A    between atoms: C_14  and  N_47
REMARK    6  A    between atoms: C_15  and  N_47
REMARK    7  A    between atoms: C_16  and  C_17
REMARK    8  A    between atoms: C_16  and  N_47
REMARK    9  A    between atoms: N_19  and  C_20
REMARK                            x       y       z     vdW  Elec       q    Type
REMARK                         _______ _______ _______ _____ _____    ______ ____
ROOT
ATOM      1  C   UNL     1       4.318   5.743   1.556  0.00  0.00    -0.095 C 
ATOM      2  N   UNL     1       3.688   6.173   0.290  0.00  0.00    +0.389 N 
ATOM      3  H   UNL     1       4.218   5.781  -0.497  0.00  0.00    -0.081 HD
ENDROOT
BRANCH   2   4
ATOM      4  C   UNL     1       3.705   7.648   0.193  0.00  0.00    +0.019 C 
BRANCH   4   6
ATOM      5  N   UNL     1       5.406   9.422  -0.087  0.00  0.00    -0.310 N 
ATOM      6  C   UNL     1       5.132   8.109   0.040  0.00  0.00    +0.197 C 
ATOM      7  O   UNL     1       6.033   7.297   0.031  0.00  0.00    -0.278 OA
ATOM      8  H   UNL     1       4.685  10.071  -0.080  0.00  0.00    +0.149 HD
BRANCH   5  10
ATOM      9  C   UNL     1       7.198   9.793  -1.709  0.00  0.00    +0.033 C 
ATOM     10  C   UNL     1       6.793   9.870  -0.236  0.00  0.00    +0.100 C 
BRANCH  10  11
ATOM     11  C   UNL     1       6.916  11.293   0.245  0.00  0.00    -0.027 A 
ATOM     12  C   UNL     1       5.923  12.209  -0.046  0.00  0.00    +0.006 A 
ATOM     13  C   UNL     1       6.033  13.513   0.399  0.00  0.00    +0.015 A 
ATOM     14  C   UNL     1       7.142  13.903   1.127  0.00  0.00    +0.018 A 
ATOM     15  C   UNL     1       8.139  12.988   1.414  0.00  0.00    +0.015 A 
ATOM     16  C   UNL     1       8.025  11.682   0.973  0.00  0.00    +0.006 A 
ATOM     17 BR   UNL     1       7.297  15.689   1.730  0.00  0.00    -0.050 Br
ENDBRANCH  10  11
ENDBRANCH   5  10
ENDBRANCH   4   6
ENDBRANCH   2   4
BRANCH   2  18
ATOM     18  C   UNL     1       2.296   5.679   0.225  0.00  0.00    +0.019 C 
BRANCH  18  19
ATOM     19  C   UNL     1       2.319   4.177   0.104  0.00  0.00    +0.201 C 
ATOM     20  O   UNL     1       3.378   3.586   0.091  0.00  0.00    -0.278 OA
ATOM     21  N   UNL     1       1.163   3.491   0.009  0.00  0.00    -0.285 N 
ATOM     22  H   UNL     1       0.320   3.967  -0.046  0.00  0.00    +0.155 HD
BRANCH  21  23
ATOM     23  C   UNL     1       1.179   2.090  -0.009  0.00  0.00    +0.072 A 
ATOM     24  C   UNL     1       2.223   1.415  -0.628  0.00  0.00    +0.029 A 
ATOM     25  C   UNL     1       2.239   0.034  -0.646  0.00  0.00    +0.043 A 
ATOM     26  C   UNL     1       1.214  -0.680  -0.049  0.00  0.00    +0.161 A 
ATOM     27  C   UNL     1       0.169  -0.011   0.569  0.00  0.00    +0.195 A 
ATOM     28  C   UNL     1       0.150   1.374   0.590  0.00  0.00    +0.182 A 
ATOM     29  F   UNL     1      -0.870   2.028   1.187  0.00  0.00    -0.200 F 
ATOM     30  F   UNL     1      -0.831  -0.709   1.151  0.00  0.00    -0.199 F 
ATOM     31  F   UNL     1       1.232  -2.031  -0.069  0.00  0.00    -0.202 F 
ENDBRANCH  21  23
ENDBRANCH  18  19
ENDBRANCH   2  18
TORSDOF 7
