REMARK  Name = ZINC26936075
REMARK  6 active torsions:
REMARK  status: ('A' for Active; 'I' for Inactive)
REMARK    1  A    between atoms: C_1  and  C_2
REMARK    2  A    between atoms: C_5  and  N_9
REMARK    3  A    between atoms: C_10  and  C_12
REMARK    4  A    between atoms: C_16  and  S_18
REMARK    5  A    between atoms: S_18  and  N_21
REMARK    6  A    between atoms: N_21  and  C_22
REMARK                            x       y       z     vdW  Elec       q    Type
REMARK                         _______ _______ _______ _____ _____    ______ ____
ROOT
ATOM      1  C   UNL     1       3.528   1.225   4.534  0.00  0.00    +0.039 A 
ATOM      2  C   UNL     1       3.063   2.386   5.154  0.00  0.00    +0.013 A 
ATOM      3  C   UNL     1       2.664   3.461   4.388  0.00  0.00    +0.003 A 
ATOM      4  C   UNL     1       2.731   3.393   3.007  0.00  0.00    +0.029 A 
ATOM      5  C   UNL     1       3.186   2.244   2.386  0.00  0.00    +0.111 A 
ATOM      6  C   UNL     1       3.587   1.161   3.141  0.00  0.00    +0.042 A 
ENDROOT
BRANCH   1   8
ATOM      7  N   UNL     1       3.899   0.134   6.694  0.00  0.00    -0.281 N 
ATOM      8  C   UNL     1       3.957   0.069   5.349  0.00  0.00    +0.248 C 
ATOM      9  O   UNL     1       4.362  -0.941   4.806  0.00  0.00    -0.270 OA
ATOM     10  H   UNL     1       3.453   1.012   7.184  0.00  0.00    +0.155 HD
BRANCH   7  15
ATOM     11  C   UNL     1       5.952  -4.123   9.835  0.00  0.00    +0.047 C 
ATOM     12  C   UNL     1       5.407  -2.992   9.000  0.00  0.00    -0.015 A 
ATOM     13  C   UNL     1       4.310  -2.276   9.441  0.00  0.00    +0.008 A 
ATOM     14  C   UNL     1       3.811  -1.236   8.682  0.00  0.00    +0.024 A 
ATOM     15  C   UNL     1       4.406  -0.915   7.468  0.00  0.00    +0.036 A 
ATOM     16  C   UNL     1       5.508  -1.635   7.026  0.00  0.00    +0.062 A 
ATOM     17  C   UNL     1       6.007  -2.672   7.794  0.00  0.00    +0.128 A 
ATOM     18  F   UNL     1       7.079  -3.374   7.366  0.00  0.00    -0.205 F 
ENDBRANCH   7  15
ENDBRANCH   1   8
BRANCH   5  19
ATOM     19  S   UNL     1       3.259   2.165   0.628  0.00  0.00    +0.092 S 
ATOM     20  O   UNL     1       4.238   1.186   0.305  0.00  0.00    -0.148 OA
ATOM     21  O   UNL     1       3.342   3.506   0.164  0.00  0.00    -0.148 OA
BRANCH  19  22
ATOM     22  N   UNL     1       1.805   1.571   0.103  0.00  0.00    -0.096 NA
BRANCH  22  23
ATOM     23  C   UNL     1       0.625   2.264   0.385  0.00  0.00    +0.093 A 
ATOM     24  C   UNL     1       0.620   3.652   0.403  0.00  0.00    +0.028 A 
ATOM     25  C   UNL     1      -0.549   4.334   0.682  0.00  0.00    +0.002 A 
ATOM     26  C   UNL     1      -1.713   3.635   0.944  0.00  0.00    +0.002 A 
ATOM     27  C   UNL     1      -1.714   2.253   0.922  0.00  0.00    +0.022 A 
ATOM     28  C   UNL     1      -0.547   1.564   0.649  0.00  0.00    +0.065 A 
ATOM     29 CL   UNL     1      -0.546  -0.172   0.628  0.00  0.00    -0.082 Cl
ENDBRANCH  22  23
ENDBRANCH  19  22
ENDBRANCH   5  19
TORSDOF 5
