REMARK  Name = ZINC08636146
REMARK  8 active torsions:
REMARK  status: ('A' for Active; 'I' for Inactive)
REMARK    1  A    between atoms: C_1  and  O_2
REMARK    2  A    between atoms: O_2  and  C_3
REMARK    3  A    between atoms: C_3  and  C_5
REMARK    4  A    between atoms: C_20  and  C_34
REMARK    5  A    between atoms: C_23  and  N_66
REMARK    6  A    between atoms: C_26  and  C_27
REMARK    7  A    between atoms: C_26  and  N_66
REMARK    8  A    between atoms: C_27  and  C_28
REMARK                            x       y       z     vdW  Elec       q    Type
REMARK                         _______ _______ _______ _____ _____    ______ ____
ROOT
ATOM      1  C   UNL     1      -5.545   6.378  -2.878  0.00  0.00    +0.049 C 
ATOM      2  C   UNL     1      -6.927   6.998  -3.128  0.00  0.00    +0.033 C 
ATOM      3  C   UNL     1      -7.896   6.400  -2.139  0.00  0.00    -0.022 A 
ATOM      4  C   UNL     1      -9.214   6.856  -1.760  0.00  0.00    +0.003 A 
ATOM      5  C   UNL     1      -9.996   7.944  -2.159  0.00  0.00    +0.010 A 
ATOM      6  C   UNL     1     -11.231   8.071  -1.575  0.00  0.00    +0.001 A 
ATOM      7  C   UNL     1     -11.695   7.168  -0.632  0.00  0.00    +0.002 A 
ATOM      8  C   UNL     1     -10.945   6.081  -0.219  0.00  0.00    +0.026 A 
ATOM      9  C   UNL     1      -9.685   5.927  -0.795  0.00  0.00    +0.047 A 
ATOM     10  N   UNL     1      -8.707   4.990  -0.620  0.00  0.00    -0.359 N 
ATOM     11  H   UNL     1      -8.762   4.233  -0.015  0.00  0.00    +0.166 HD
ATOM     12  C   UNL     1      -7.640   5.279  -1.425  0.00  0.00    +0.007 A 
ATOM     13  C   UNL     1      -6.348   4.510  -1.546  0.00  0.00    -0.020 C 
ATOM     14  C   UNL     1      -4.374   4.249  -2.922  0.00  0.00    -0.037 C 
ATOM     15  C   UNL     1      -4.593   2.736  -3.013  0.00  0.00    -0.027 C 
ATOM     16  C   UNL     1      -5.317   2.249  -1.755  0.00  0.00    -0.074 C 
ATOM     17  C   UNL     1      -6.639   3.009  -1.604  0.00  0.00    -0.025 C 
ATOM     18  N   UNL     1      -5.694   4.904  -2.813  0.00  0.00    +0.399 N 
ATOM     19  H   UNL     1      -6.282   4.597  -3.598  0.00  0.00    -0.079 HD
ENDROOT
BRANCH  14  20
ATOM     20  C   UNL     1      -3.686   4.734  -4.172  0.00  0.00    -0.061 A 
ATOM     21  C   UNL     1      -4.416   4.936  -5.329  0.00  0.00    +0.002 A 
ATOM     22  C   UNL     1      -3.785   5.385  -6.474  0.00  0.00    +0.000 A 
ATOM     23  C   UNL     1      -2.424   5.624  -6.465  0.00  0.00    +0.000 A 
ATOM     24  C   UNL     1      -1.693   5.416  -5.310  0.00  0.00    +0.000 A 
ATOM     25  C   UNL     1      -2.324   4.972  -4.163  0.00  0.00    +0.002 A 
ENDBRANCH  14  20
BRANCH  16  26
ATOM     26  N   UNL     1      -4.475   2.503  -0.571  0.00  0.00    +0.381 N 
ATOM     27  H   UNL     1      -5.073   2.586   0.259  0.00  0.00    -0.086 HD
ATOM     28  H   UNL     1      -3.955   3.378  -0.707  0.00  0.00    -0.086 HD
BRANCH  26  29
ATOM     29  C   UNL     1      -3.520   1.396  -0.375  0.00  0.00    -0.076 C 
BRANCH  29  30
ATOM     30  C   UNL     1      -2.662   1.687   0.857  0.00  0.00    +0.038 C 
BRANCH  30  31
ATOM     31  C   UNL     1      -1.683   0.560   1.065  0.00  0.00    +0.057 A 
ATOM     32  C   UNL     1      -0.345   0.680   1.158  0.00  0.00    +0.107 A 
ATOM     33  N   UNL     1       0.155  -0.581   1.337  0.00  0.00    -0.351 N 
ATOM     34  H   UNL     1       1.118  -0.829   1.441  0.00  0.00    +0.166 HD
ATOM     35  C   UNL     1      -0.896  -1.430   1.347  0.00  0.00    +0.196 A 
ATOM     36  N   UNL     1      -1.992  -0.740   1.184  0.00  0.00    -0.241 NA
ENDBRANCH  30  31
ENDBRANCH  29  30
ENDBRANCH  26  29
ENDBRANCH  16  26
BRANCH   1  37
ATOM     37  C   UNL     1      -4.979   6.915  -1.589  0.00  0.00    +0.294 C 
ATOM     38  O   UNL     1      -4.522   6.156  -0.767  0.00  0.00    -0.253 OA
BRANCH  37  40
ATOM     39  C   UNL     1      -4.420   8.683  -0.091  0.00  0.00    +0.280 C 
ATOM     40  O   UNL     1      -4.982   8.237  -1.354  0.00  0.00    -0.469 OA
ENDBRANCH  37  40
ENDBRANCH   1  37
TORSDOF 7
