REMARK  Name = ZINC39772410
REMARK  8 active torsions:
REMARK  status: ('A' for Active; 'I' for Inactive)
REMARK    1  A    between atoms: C_1  and  C_2
REMARK    2  A    between atoms: C_7  and  C_8
REMARK    3  A    between atoms: C_11  and  S_19
REMARK    4  A    between atoms: N_12  and  C_13
REMARK    5  A    between atoms: S_19  and  C_20
REMARK    6  A    between atoms: C_20  and  C_21
REMARK    7  A    between atoms: N_23  and  C_24
REMARK    8  A    between atoms: C_28  and  N_30
REMARK                            x       y       z     vdW  Elec       q    Type
REMARK                         _______ _______ _______ _____ _____    ______ ____
ROOT
ATOM      1  C   UNL     1      -0.269   0.207   2.395  0.00  0.00    +0.170 A 
ATOM      2  N   UNL     1      -0.049   1.433   2.809  0.00  0.00    -0.128 NA
ATOM      3  N   UNL     1      -0.202   1.501   4.083  0.00  0.00    -0.122 NA
ATOM      4  C   UNL     1      -0.530   0.323   4.563  0.00  0.00    +0.197 A 
ATOM      5  N   UNL     1      -0.591  -0.542   3.505  0.00  0.00    -0.270 N 
ENDROOT
BRANCH   1  12
ATOM      6  C   UNL     1      -1.564   1.710   0.288  0.00  0.00    +0.044 C 
ATOM      7  C   UNL     1      -0.814   0.441  -0.025  0.00  0.00    -0.040 A 
ATOM      8  C   UNL     1      -0.734  -0.013  -1.325  0.00  0.00    +0.004 A 
ATOM      9  C   UNL     1      -0.046  -1.178  -1.614  0.00  0.00    +0.000 A 
ATOM     10  C   UNL     1       0.567  -1.896  -0.602  0.00  0.00    +0.001 A 
ATOM     11  C   UNL     1       0.495  -1.453   0.702  0.00  0.00    +0.012 A 
ATOM     12  C   UNL     1      -0.193  -0.276   1.000  0.00  0.00    +0.023 A 
ENDBRANCH   1  12
BRANCH   5  13
ATOM     13  C   UNL     1      -0.910  -1.907   3.543  0.00  0.00    +0.051 A 
ATOM     14  C   UNL     1      -2.075  -2.366   2.942  0.00  0.00    +0.026 A 
ATOM     15  C   UNL     1      -2.386  -3.711   2.981  0.00  0.00    +0.002 A 
ATOM     16  C   UNL     1      -1.541  -4.600   3.618  0.00  0.00    +0.000 A 
ATOM     17  C   UNL     1      -0.381  -4.146   4.218  0.00  0.00    +0.002 A 
ATOM     18  C   UNL     1      -0.060  -2.803   4.177  0.00  0.00    +0.026 A 
ENDBRANCH   5  13
BRANCH   4  19
ATOM     19  S   UNL     1      -0.841  -0.069   6.253  0.00  0.00    -0.076 S 
BRANCH  19  20
ATOM     20  C   UNL     1      -0.602   1.507   7.119  0.00  0.00    +0.173 C 
BRANCH  20  21
ATOM     21  C   UNL     1      -0.840   1.310   8.594  0.00  0.00    +0.227 C 
ATOM     22  O   UNL     1      -1.142   0.215   9.019  0.00  0.00    -0.275 OA
ATOM     23  N   UNL     1      -0.718   2.351   9.441  0.00  0.00    -0.285 N 
ATOM     24  H   UNL     1      -0.547   3.241   9.095  0.00  0.00    +0.155 HD
BRANCH  23  25
ATOM     25  C   UNL     1      -0.839   2.149  10.821  0.00  0.00    +0.036 A 
ATOM     26  C   UNL     1      -1.397   3.136  11.623  0.00  0.00    +0.023 A 
ATOM     27  C   UNL     1      -1.514   2.933  12.984  0.00  0.00    +0.004 A 
ATOM     28  C   UNL     1      -1.076   1.748  13.548  0.00  0.00    +0.033 A 
ATOM     29  C   UNL     1      -0.519   0.764  12.752  0.00  0.00    +0.128 A 
ATOM     30  C   UNL     1      -0.405   0.959  11.390  0.00  0.00    +0.056 A 
BRANCH  29  31
ATOM     31  N   UNL     1      -0.051  -0.501  13.361  0.00  0.00    +0.056 N 
ATOM     32  O   UNL     1      -0.155  -0.674  14.553  0.00  0.00    -0.126 OA
ATOM     33  O   UNL     1       0.436  -1.362  12.665  0.00  0.00    -0.126 OA
ENDBRANCH  29  31
ENDBRANCH  23  25
ENDBRANCH  20  21
ENDBRANCH  19  20
ENDBRANCH   4  19
TORSDOF 7
