REMARK  Name = ZINC14949005
REMARK  8 active torsions:
REMARK  status: ('A' for Active; 'I' for Inactive)
REMARK    1  A    between atoms: C_1  and  S_2
REMARK    2  A    between atoms: S_2  and  C_3
REMARK    3  A    between atoms: C_6  and  C_9
REMARK    4  A    between atoms: C_18  and  C_20
REMARK    5  A    between atoms: C_20  and  C_21
REMARK    6  A    between atoms: C_21  and  C_23
REMARK    7  A    between atoms: C_21  and  N_54
REMARK    8  A    between atoms: C_23  and  C_24
REMARK                            x       y       z     vdW  Elec       q    Type
REMARK                         _______ _______ _______ _____ _____    ______ ____
ROOT
ATOM      1  C   UNL     1      10.762  -0.890  -2.601  0.00  0.00    +0.109 A 
ATOM      2  N   UNL     1       9.987  -0.501  -3.600  0.00  0.00    -0.244 NA
ATOM      3  C   UNL     1       8.663  -0.592  -3.553  0.00  0.00    +0.055 A 
ATOM      4  C   UNL     1       8.119  -1.117  -2.418  0.00  0.00    +0.030 A 
ATOM      5  S   UNL     1       9.544  -1.466  -1.423  0.00  0.00    -0.070 S 
ATOM      6  C   UNL     1       6.675  -1.333  -2.115  0.00  0.00    +0.152 C 
ATOM      7  N   UNL     1       5.902  -0.664  -3.183  0.00  0.00    -0.296 N 
ATOM      8  C   UNL     1       6.391  -0.810  -4.562  0.00  0.00    +0.114 C 
ATOM      9  C   UNL     1       7.762  -0.133  -4.696  0.00  0.00    +0.075 C 
ATOM     10  C   UNL     1       4.792   0.047  -2.904  0.00  0.00    +0.214 C 
ATOM     11  O   UNL     1       4.177   0.587  -3.799  0.00  0.00    -0.276 OA
ENDROOT
BRANCH   1  15
ATOM     12  C   UNL     1      14.998  -0.799  -2.277  0.00  0.00    +0.008 A 
ATOM     13  C   UNL     1      14.232  -1.295  -1.226  0.00  0.00    +0.015 A 
ATOM     14  C   UNL     1      12.858  -1.325  -1.329  0.00  0.00    +0.011 A 
ATOM     15  C   UNL     1      12.235  -0.859  -2.488  0.00  0.00    +0.007 A 
ATOM     16  C   UNL     1      13.007  -0.367  -3.543  0.00  0.00    +0.011 A 
ATOM     17  C   UNL     1      14.380  -0.334  -3.433  0.00  0.00    +0.015 A 
BRANCH  12  19
ATOM     18  C   UNL     1      17.300  -0.051  -3.720  0.00  0.00    +0.090 C 
ATOM     19  S   UNL     1      16.754  -0.762  -2.143  0.00  0.00    -0.129 S 
ENDBRANCH  12  19
ENDBRANCH   1  15
BRANCH  10  20
ATOM     20  C   UNL     1       4.314   0.172  -1.480  0.00  0.00    +0.080 C 
BRANCH  20  21
ATOM     21  C   UNL     1       3.044   1.024  -1.441  0.00  0.00    -0.062 C 
BRANCH  21  24
ATOM     22  H   UNL     1       2.526   2.960  -1.911  0.00  0.00    -0.090 HD
ATOM     23  H   UNL     1       4.049   2.811  -1.258  0.00  0.00    -0.090 HD
ATOM     24  N   UNL     1       3.370   2.389  -1.889  0.00  0.00    +0.381 N 
ATOM     25  H   UNL     1       3.770   2.348  -2.834  0.00  0.00    -0.090 HD
ENDBRANCH  21  24
BRANCH  21  26
ATOM     26  C   UNL     1       2.490   1.047  -0.015  0.00  0.00    +0.022 C 
BRANCH  26  27
ATOM     27  C   UNL     1       1.175   1.783   0.000  0.00  0.00    -0.011 A 
ATOM     28  C   UNL     1      -0.013   1.076   0.008  0.00  0.00    +0.044 A 
ATOM     29  C   UNL     1      -1.221   1.752   0.017  0.00  0.00    +0.124 A 
ATOM     30  C   UNL     1      -1.239   3.136   0.029  0.00  0.00    +0.041 A 
ATOM     31  C   UNL     1      -0.052   3.843   0.022  0.00  0.00    +0.041 A 
ATOM     32  C   UNL     1       1.156   3.167   0.007  0.00  0.00    +0.127 A 
ATOM     33  F   UNL     1       2.317   3.859   0.001  0.00  0.00    -0.205 F 
ATOM     34  F   UNL     1      -2.381   1.060   0.020  0.00  0.00    -0.205 F 
ENDBRANCH  26  27
ENDBRANCH  21  26
ENDBRANCH  20  21
ENDBRANCH  10  20
TORSDOF 7
