REMARK  Name = ZINC13626300
REMARK  9 active torsions:
REMARK  status: ('A' for Active; 'I' for Inactive)
REMARK    1  A    between atoms: C_4  and  O_7
REMARK    2  A    between atoms: O_7  and  C_8
REMARK    3  A    between atoms: C_8  and  C_9
REMARK    4  A    between atoms: N_11  and  C_12
REMARK    5  A    between atoms: C_16  and  N_18
REMARK    6  A    between atoms: N_18  and  C_19
REMARK    7  A    between atoms: C_19  and  N_21
REMARK    8  A    between atoms: C_22  and  C_24
REMARK    9  A    between atoms: C_28  and  N_30
REMARK                            x       y       z     vdW  Elec       q    Type
REMARK                         _______ _______ _______ _____ _____    ______ ____
ROOT
ATOM      1  C   UNL     1     -12.121   1.326  -0.074  0.00  0.00    +0.035 A 
ATOM      2  C   UNL     1     -12.169  -0.063  -0.071  0.00  0.00    +0.023 A 
ATOM      3  C   UNL     1     -11.003  -0.796   0.030  0.00  0.00    +0.004 A 
ATOM      4  C   UNL     1      -9.785  -0.152   0.130  0.00  0.00    +0.023 A 
ATOM      5  C   UNL     1      -9.730   1.236   0.128  0.00  0.00    +0.034 A 
ATOM      6  C   UNL     1     -10.900   1.976   0.032  0.00  0.00    +0.046 A 
ENDROOT
BRANCH   1   9
ATOM      7  C   UNL     1     -13.314   3.225  -0.868  0.00  0.00    +0.255 C 
ATOM      8  O   UNL     1     -12.287   3.651  -1.354  0.00  0.00    -0.272 OA
ATOM      9  N   UNL     1     -13.303   2.068  -0.177  0.00  0.00    -0.283 N 
ATOM     10  H   UNL     1     -14.114   1.749   0.248  0.00  0.00    +0.155 HD
BRANCH   7  11
ATOM     11  C   UNL     1     -14.601   3.990  -1.035  0.00  0.00    +0.324 C 
BRANCH  11  12
ATOM     12  O   UNL     1     -14.356   5.173  -1.799  0.00  0.00    -0.483 OA
BRANCH  12  16
ATOM     13  C   UNL     1     -17.589   7.627  -2.539  0.00  0.00    +0.000 A 
ATOM     14  C   UNL     1     -16.339   7.967  -3.024  0.00  0.00    +0.004 A 
ATOM     15  C   UNL     1     -15.255   7.147  -2.777  0.00  0.00    +0.045 A 
ATOM     16  C   UNL     1     -15.421   5.982  -2.042  0.00  0.00    +0.121 A 
ATOM     17  C   UNL     1     -16.677   5.640  -1.562  0.00  0.00    +0.045 A 
ATOM     18  C   UNL     1     -17.757   6.467  -1.806  0.00  0.00    +0.004 A 
ENDBRANCH  12  16
ENDBRANCH  11  12
ENDBRANCH   7  11
ENDBRANCH   1   9
BRANCH   5  19
ATOM     19  N   UNL     1      -8.496   1.888   0.229  0.00  0.00    -0.297 N 
ATOM     20  H   UNL     1      -8.398   2.653   0.817  0.00  0.00    +0.154 HD
BRANCH  19  21
ATOM     21  C   UNL     1      -7.443   1.453  -0.491  0.00  0.00    +0.141 C 
ATOM     22  S   UNL     1      -7.589   0.046  -1.456  0.00  0.00    -0.018 S 
BRANCH  21  23
ATOM     23  N   UNL     1      -6.276   2.126  -0.453  0.00  0.00    -0.264 N 
ATOM     24  C   UNL     1      -5.223   1.690  -1.173  0.00  0.00    +0.250 C 
ATOM     25  O   UNL     1      -5.327   0.692  -1.857  0.00  0.00    -0.270 OA
ATOM     26  H   UNL     1      -6.194   2.923   0.094  0.00  0.00    +0.157 HD
BRANCH  24  27
ATOM     27  C   UNL     1      -3.943   2.428  -1.130  0.00  0.00    +0.039 A 
ATOM     28  C   UNL     1      -3.821   3.576  -0.344  0.00  0.00    +0.013 A 
ATOM     29  C   UNL     1      -2.623   4.259  -0.309  0.00  0.00    +0.003 A 
ATOM     30  C   UNL     1      -1.543   3.806  -1.045  0.00  0.00    +0.033 A 
ATOM     31  C   UNL     1      -1.659   2.673  -1.831  0.00  0.00    +0.127 A 
ATOM     32  C   UNL     1      -2.851   1.980  -1.875  0.00  0.00    +0.045 A 
BRANCH  31  33
ATOM     33  N   UNL     1      -0.499   2.200  -2.620  0.00  0.00    +0.056 N 
ATOM     34  O   UNL     1      -0.599   1.199  -3.307  0.00  0.00    -0.126 OA
ATOM     35  O   UNL     1       0.552   2.813  -2.585  0.00  0.00    -0.126 OA
ENDBRANCH  31  33
ENDBRANCH  24  27
ENDBRANCH  21  23
ENDBRANCH  19  21
ENDBRANCH   5  19
TORSDOF 9
