REMARK  Name = ZINC39670525
REMARK  6 active torsions:
REMARK  status: ('A' for Active; 'I' for Inactive)
REMARK    1  A    between atoms: C_1  and  C_2
REMARK    2  A    between atoms: C_7  and  C_11
REMARK    3  A    between atoms: C_11  and  N_12
REMARK    4  A    between atoms: C_13  and  C_15
REMARK    5  A    between atoms: C_26  and  C_28
REMARK    6  A    between atoms: C_33  and  C_34
REMARK                            x       y       z     vdW  Elec       q    Type
REMARK                         _______ _______ _______ _____ _____    ______ ____
ROOT
ATOM      1  C   UNL     1       2.553  -7.668   3.486  0.00  0.00    +0.100 C 
ATOM      2  C   UNL     1       3.549  -6.618   4.026  0.00  0.00    +0.121 C 
ATOM      3  N   UNL     1       3.784  -7.014   5.435  0.00  0.00    -0.296 N 
ATOM      4  C   UNL     1       3.842  -8.495   5.397  0.00  0.00    +0.115 C 
ATOM      5  C   UNL     1       2.751  -8.900   4.386  0.00  0.00    -0.004 C 
ATOM      6  C   UNL     1       3.216 -10.092   3.555  0.00  0.00    -0.010 C 
ATOM      7  C   UNL     1       3.350 -11.319   4.461  0.00  0.00    -0.082 C 
ATOM      8  N   UNL     1       2.055 -11.610   5.088  0.00  0.00    +0.379 N 
ATOM      9  C   UNL     1       1.659 -10.497   5.959  0.00  0.00    -0.082 C 
ATOM     10  C   UNL     1       1.454  -9.235   5.117  0.00  0.00    -0.010 C 
ATOM     11  C   UNL     1       3.915  -6.210   6.508  0.00  0.00    +0.247 C 
ATOM     12  O   UNL     1       4.202  -6.683   7.591  0.00  0.00    -0.270 OA
ATOM     13  H   UNL     1       1.357 -11.739   4.371  0.00  0.00    -0.086 HD
ATOM     14  H   UNL     1       2.131 -12.454   5.636  0.00  0.00    -0.086 HD
ENDROOT
BRANCH  11  15
ATOM     15  C   UNL     1       3.709  -4.752   6.370  0.00  0.00    +0.043 A 
ATOM     16  C   UNL     1       4.109  -4.096   5.204  0.00  0.00    +0.051 A 
ATOM     17  C   UNL     1       3.914  -2.734   5.081  0.00  0.00    +0.124 A 
ATOM     18  C   UNL     1       3.322  -2.021   6.112  0.00  0.00    +0.038 A 
ATOM     19  C   UNL     1       2.925  -2.667   7.268  0.00  0.00    +0.007 A 
ATOM     20  C   UNL     1       3.110  -4.028   7.401  0.00  0.00    -0.038 A 
ATOM     21  C   UNL     1       2.670  -4.730   8.659  0.00  0.00    +0.044 C 
ATOM     22  F   UNL     1       4.300  -2.096   3.955  0.00  0.00    -0.205 F 
ENDBRANCH  11  15
BRANCH   1  24
ATOM     23  N   UNL     1       0.201  -7.571   2.725  0.00  0.00    -0.309 N 
ATOM     24  C   UNL     1       1.139  -7.158   3.600  0.00  0.00    +0.219 C 
ATOM     25  O   UNL     1       0.846  -6.375   4.478  0.00  0.00    -0.275 OA
ATOM     26  H   UNL     1       0.436  -8.197   2.022  0.00  0.00    +0.149 HD
BRANCH  23  27
ATOM     27  C   UNL     1      -1.173  -7.075   2.835  0.00  0.00    +0.159 C 
BRANCH  27  34
ATOM     28  C   UNL     1      -5.021  -8.905  -3.204  0.00  0.00    +0.045 C 
ATOM     29  C   UNL     1      -4.405  -8.974  -1.830  0.00  0.00    -0.034 A 
ATOM     30  C   UNL     1      -4.624 -10.102  -1.022  0.00  0.00    +0.008 A 
ATOM     31  C   UNL     1      -4.066 -10.161   0.217  0.00  0.00    +0.045 A 
ATOM     32  C   UNL     1      -3.275  -9.086   0.671  0.00  0.00    +0.115 A 
ATOM     33  N   UNL     1      -2.623  -8.874   1.805  0.00  0.00    -0.342 N 
ATOM     34  C   UNL     1      -2.016  -7.686   1.746  0.00  0.00    +0.051 A 
ATOM     35  C   UNL     1      -2.285  -7.123   0.548  0.00  0.00    +0.115 A 
ATOM     36  N   UNL     1      -3.080  -7.999  -0.141  0.00  0.00    -0.308 N 
ATOM     37  C   UNL     1      -3.641  -7.954  -1.384  0.00  0.00    +0.096 A 
ATOM     38  H   UNL     1      -2.592  -9.485   2.558  0.00  0.00    +0.167 HD
ENDBRANCH  27  34
ENDBRANCH  23  27
ENDBRANCH   1  24
TORSDOF 4
