REMARK  Name = ZINC46864658
REMARK  12 active torsions:
REMARK  status: ('A' for Active; 'I' for Inactive)
REMARK    1  A    between atoms: C_1  and  C_2
REMARK    2  A    between atoms: C_4  and  C_13
REMARK    3  A    between atoms: N_15  and  C_16
REMARK    4  A    between atoms: N_15  and  C_20
REMARK    5  A    between atoms: C_16  and  C_17
REMARK    6  A    between atoms: C_17  and  C_18
REMARK    7  A    between atoms: C_17  and  C_19
REMARK    8  A    between atoms: C_21  and  N_33
REMARK    9  A    between atoms: N_22  and  C_29
REMARK   10  A    between atoms: C_29  and  C_30
REMARK   11  A    between atoms: C_30  and  C_31
REMARK   12  A    between atoms: C_30  and  C_32
REMARK                            x       y       z     vdW  Elec       q    Type
REMARK                         _______ _______ _______ _____ _____    ______ ____
ROOT
ATOM      1  C   UNL     1      -0.083  -2.825  -2.754  0.00  0.00    +0.252 C 
ATOM      2  O   UNL     1      -0.202  -2.333  -1.649  0.00  0.00    -0.270 OA
ATOM      3  N   UNL     1       0.179  -2.039  -3.817  0.00  0.00    -0.260 N 
ENDROOT
BRANCH   1   7
ATOM      4  C   UNL     1      -2.081  -6.748  -5.118  0.00  0.00    +0.065 C 
ATOM      5  C   UNL     1      -1.172  -6.192  -4.052  0.00  0.00    +0.040 A 
ATOM      6  C   UNL     1      -1.061  -4.811  -3.912  0.00  0.00    +0.036 A 
ATOM      7  C   UNL     1      -0.227  -4.286  -2.933  0.00  0.00    +0.048 A 
ATOM      8  C   UNL     1       0.482  -5.198  -2.110  0.00  0.00    +0.013 A 
ATOM      9  C   UNL     1       1.343  -4.750  -1.099  0.00  0.00    +0.013 A 
ATOM     10  C   UNL     1       2.007  -5.656  -0.329  0.00  0.00    +0.039 A 
ATOM     11  C   UNL     1       1.841  -7.026  -0.533  0.00  0.00    +0.125 A 
ATOM     12  C   UNL     1       1.012  -7.495  -1.508  0.00  0.00    +0.066 A 
ATOM     13  C   UNL     1       0.310  -6.588  -2.322  0.00  0.00    +0.075 A 
ATOM     14  N   UNL     1      -0.514  -7.021  -3.281  0.00  0.00    -0.252 NA
ATOM     15  F   UNL     1       2.514  -7.902   0.246  0.00  0.00    -0.205 F 
ENDBRANCH   1   7
BRANCH   3  16
ATOM     16  C   UNL     1       0.222  -2.596  -5.111  0.00  0.00    +0.140 A 
ATOM     17  C   UNL     1      -0.761  -2.303  -6.035  0.00  0.00    +0.127 A 
ATOM     18  N   UNL     1      -0.691  -2.861  -7.290  0.00  0.00    -0.280 N 
ATOM     19  C   UNL     1       0.323  -3.683  -7.614  0.00  0.00    +0.331 A 
ATOM     20  O   UNL     1       0.367  -4.167  -8.729  0.00  0.00    -0.246 OA
ATOM     21  N   UNL     1       1.290  -3.980  -6.727  0.00  0.00    -0.273 N 
ATOM     22  H   UNL     1       2.011  -4.575  -6.986  0.00  0.00    +0.173 HD
ATOM     23  C   UNL     1       1.272  -3.455  -5.487  0.00  0.00    +0.277 A 
ATOM     24  O   UNL     1       2.157  -3.726  -4.693  0.00  0.00    -0.266 OA
BRANCH  17  25
ATOM     25  N   UNL     1      -1.798  -1.464  -5.704  0.00  0.00    -0.343 N 
ATOM     26  H   UNL     1      -1.815  -1.033  -4.835  0.00  0.00    +0.144 HD
ATOM     27  H   UNL     1      -2.513  -1.303  -6.339  0.00  0.00    +0.144 HD
ENDBRANCH  17  25
BRANCH  18  28
ATOM     28  C   UNL     1      -1.728  -2.559  -8.280  0.00  0.00    +0.131 C 
BRANCH  28  29
ATOM     29  C   UNL     1      -1.320  -1.324  -9.085  0.00  0.00    +0.003 C 
ATOM     30  C   UNL     1      -0.063  -1.637  -9.898  0.00  0.00    +0.009 C 
ATOM     31  C   UNL     1      -2.457  -0.934 -10.032  0.00  0.00    +0.009 C 
ENDBRANCH  28  29
ENDBRANCH  18  28
ENDBRANCH   3  16
BRANCH   3  32
ATOM     32  C   UNL     1       0.419  -0.607  -3.627  0.00  0.00    +0.117 C 
BRANCH  32  33
ATOM     33  C   UNL     1       1.923  -0.352  -3.517  0.00  0.00    +0.001 C 
ATOM     34  C   UNL     1       2.183   1.155  -3.466  0.00  0.00    +0.009 C 
ATOM     35  C   UNL     1       2.460  -1.006  -2.242  0.00  0.00    +0.009 C 
ENDBRANCH  32  33
ENDBRANCH   3  32
TORSDOF 7
