REMARK  Name = ZINC36835698
REMARK  7 active torsions:
REMARK  status: ('A' for Active; 'I' for Inactive)
REMARK    1  A    between atoms: C_1  and  C_2
REMARK    2  A    between atoms: C_2  and  C_3
REMARK    3  A    between atoms: C_3  and  C_24
REMARK    4  A    between atoms: N_6  and  C_10
REMARK    5  A    between atoms: C_10  and  C_11
REMARK    6  A    between atoms: N_13  and  C_14
REMARK    7  A    between atoms: C_14  and  C_15
REMARK                            x       y       z     vdW  Elec       q    Type
REMARK                         _______ _______ _______ _____ _____    ______ ____
ROOT
ATOM      1  C   UNL     1       0.742  -0.511   1.242  0.00  0.00    +0.138 C 
ATOM      2  C   UNL     1       0.055  -0.034   2.505  0.00  0.00    +0.251 C 
ATOM      3  O   UNL     1      -1.076  -0.284   2.863  0.00  0.00    -0.272 OA
ATOM      4  N   UNL     1       0.962   0.727   3.149  0.00  0.00    -0.215 N 
ATOM      5  C   UNL     1       2.116   0.796   2.474  0.00  0.00    +0.310 C 
ATOM      6  O   UNL     1       3.085   1.423   2.854  0.00  0.00    -0.252 OA
ATOM      7  N   UNL     1       2.083   0.093   1.328  0.00  0.00    -0.281 N 
ATOM      8  H   UNL     1       2.802   0.001   0.683  0.00  0.00    +0.152 HD
ENDROOT
BRANCH   1   9
ATOM      9  C   UNL     1       0.838  -2.015   1.222  0.00  0.00    -0.015 A 
ATOM     10  C   UNL     1      -0.146  -2.762   0.601  0.00  0.00    +0.006 A 
ATOM     11  C   UNL     1      -0.058  -4.141   0.583  0.00  0.00    +0.000 A 
ATOM     12  C   UNL     1       1.014  -4.774   1.186  0.00  0.00    +0.000 A 
ATOM     13  C   UNL     1       1.998  -4.026   1.806  0.00  0.00    +0.000 A 
ATOM     14  C   UNL     1       1.912  -2.647   1.820  0.00  0.00    +0.006 A 
ENDBRANCH   1   9
BRANCH   1  16
ATOM     15  C   UNL     1      -0.019   1.526   0.010  0.00  0.00    +0.007 C 
ATOM     16  C   UNL     1       0.002  -0.004   0.002  0.00  0.00    +0.037 C 
ENDBRANCH   1  16
BRANCH   4  17
ATOM     17  C   UNL     1       0.716   1.397   4.428  0.00  0.00    +0.213 C 
BRANCH  17  18
ATOM     18  C   UNL     1       1.104   0.478   5.559  0.00  0.00    +0.231 C 
ATOM     19  O   UNL     1       1.543  -0.627   5.319  0.00  0.00    -0.274 OA
ATOM     20  N   UNL     1       0.963   0.885   6.836  0.00  0.00    -0.308 N 
ATOM     21  H   UNL     1       0.613   1.769   7.027  0.00  0.00    +0.149 HD
BRANCH  20  22
ATOM     22  C   UNL     1       1.340  -0.008   7.934  0.00  0.00    +0.167 C 
BRANCH  22  23
ATOM     23  C   UNL     1       1.087   0.681   9.251  0.00  0.00    +0.097 A 
ATOM     24  N   UNL     1       0.001   0.658   9.967  0.00  0.00    -0.242 NA
ATOM     25  C   UNL     1      -0.102   1.321  11.137  0.00  0.00    +0.079 A 
ATOM     26  C   UNL     1      -1.187   1.409  12.035  0.00  0.00    +0.029 A 
ATOM     27  C   UNL     1      -1.082   2.142  13.177  0.00  0.00    +0.002 A 
ATOM     28  C   UNL     1       0.083   2.824  13.499  0.00  0.00    +0.001 A 
ATOM     29  C   UNL     1       1.168   2.761  12.644  0.00  0.00    +0.017 A 
ATOM     30  C   UNL     1       1.072   2.024  11.489  0.00  0.00    +0.039 A 
ATOM     31  S   UNL     1       2.148   1.647  10.130  0.00  0.00    -0.071 S 
ENDBRANCH  22  23
ENDBRANCH  20  22
ENDBRANCH  17  18
ENDBRANCH   4  17
TORSDOF 6
