REMARK  Name = ZINC05150780
REMARK  7 active torsions:
REMARK  status: ('A' for Active; 'I' for Inactive)
REMARK    1  A    between atoms: C_1  and  C_2
REMARK    2  A    between atoms: C_2  and  C_12
REMARK    3  A    between atoms: N_3  and  N_4
REMARK    4  A    between atoms: C_5  and  C_7
REMARK    5  A    between atoms: C_15  and  N_18
REMARK    6  A    between atoms: N_18  and  S_19
REMARK    7  A    between atoms: S_19  and  C_22
REMARK                            x       y       z     vdW  Elec       q    Type
REMARK                         _______ _______ _______ _____ _____    ______ ____
ROOT
ATOM      1  C   UNL     1       4.926   1.968  -4.268  0.00  0.00    -0.002 A 
ATOM      2  C   UNL     1       5.668   0.786  -4.356  0.00  0.00    +0.011 A 
ATOM      3  C   UNL     1       5.439  -0.237  -3.462  0.00  0.00    +0.025 A 
ATOM      4  C   UNL     1       4.472  -0.095  -2.473  0.00  0.00    +0.048 A 
ATOM      5  C   UNL     1       3.728   1.077  -2.385  0.00  0.00    +0.025 A 
ATOM      6  C   UNL     1       3.954   2.106  -3.272  0.00  0.00    +0.011 A 
ENDROOT
BRANCH   1   8
ATOM      7  C   UNL     1       4.366   4.337  -5.126  0.00  0.00    +0.068 C 
ATOM      8  C   UNL     1       5.167   3.064  -5.222  0.00  0.00    +0.063 C 
ATOM      9  N   UNL     1       6.069   2.934  -6.146  0.00  0.00    -0.184 NA
BRANCH   9  10
ATOM     10  N   UNL     1       6.299   3.976  -7.054  0.00  0.00    -0.200 N 
ATOM     11  C   UNL     1       7.236   3.841  -8.013  0.00  0.00    +0.299 C 
ATOM     12  O   UNL     1       7.883   2.812  -8.091  0.00  0.00    -0.265 OA
ATOM     13  H   UNL     1       5.783   4.795  -6.992  0.00  0.00    +0.178 HD
BRANCH  11  14
ATOM     14  C   UNL     1       7.476   4.931  -8.963  0.00  0.00    +0.191 A 
ATOM     15  C   UNL     1       8.390   4.926  -9.978  0.00  0.00    +0.054 A 
ATOM     16  C   UNL     1       8.278   6.164 -10.629  0.00  0.00    +0.042 A 
ATOM     17  C   UNL     1       7.314   6.863  -9.991  0.00  0.00    +0.196 A 
ATOM     18  O   UNL     1       6.828   6.115  -8.991  0.00  0.00    -0.458 OA
ENDBRANCH  11  14
ENDBRANCH   9  10
ENDBRANCH   1   8
BRANCH   4  19
ATOM     19  N   UNL     1       4.243  -1.133  -1.569  0.00  0.00    -0.216 N 
ATOM     20  H   UNL     1       3.446  -1.680  -1.651  0.00  0.00    +0.174 HD
BRANCH  19  21
ATOM     21  S   UNL     1       5.332  -1.431  -0.358  0.00  0.00    +0.072 S 
ATOM     22  O   UNL     1       6.611  -1.511  -0.973  0.00  0.00    -0.150 OA
ATOM     23  O   UNL     1       4.794  -2.491   0.420  0.00  0.00    -0.150 OA
BRANCH  21  24
ATOM     24  C   UNL     1       5.361  -0.008   0.680  0.00  0.00    +0.108 A 
ATOM     25  C   UNL     1       4.426   0.131   1.689  0.00  0.00    +0.029 A 
ATOM     26  C   UNL     1       4.448   1.248   2.503  0.00  0.00    +0.002 A 
ATOM     27  C   UNL     1       5.404   2.226   2.308  0.00  0.00    +0.000 A 
ATOM     28  C   UNL     1       6.339   2.088   1.299  0.00  0.00    +0.002 A 
ATOM     29  C   UNL     1       6.317   0.971   0.485  0.00  0.00    +0.029 A 
ENDBRANCH  21  24
ENDBRANCH  19  21
ENDBRANCH   4  19
TORSDOF 6
