REMARK  Name = ZINC32957707
REMARK  8 active torsions:
REMARK  status: ('A' for Active; 'I' for Inactive)
REMARK    1  A    between atoms: C_1  and  C_2
REMARK    2  A    between atoms: C_2  and  C_3
REMARK    3  A    between atoms: C_9  and  C_11
REMARK    4  A    between atoms: C_11  and  N_12
REMARK    5  A    between atoms: C_15  and  C_19
REMARK    6  A    between atoms: C_15  and  C_20
REMARK    7  A    between atoms: C_20  and  C_21
REMARK    8  A    between atoms: C_21  and  C_22
REMARK                            x       y       z     vdW  Elec       q    Type
REMARK                         _______ _______ _______ _____ _____    ______ ____
ROOT
ATOM      1  N   UNL     1       0.015   3.349   2.506  0.00  0.00    -0.215 N 
ATOM      2  C   UNL     1      -0.654   3.090   1.365  0.00  0.00    +0.247 C 
ATOM      3  O   UNL     1      -1.103   3.898   0.580  0.00  0.00    -0.273 OA
ATOM      4  C   UNL     1      -0.729   1.579   1.267  0.00  0.00    +0.110 C 
ATOM      5  N   UNL     1      -0.026   1.119   2.477  0.00  0.00    -0.285 N 
ATOM      6  C   UNL     1       0.371   2.223   3.135  0.00  0.00    +0.310 C 
ATOM      7  O   UNL     1       0.984   2.200   4.184  0.00  0.00    -0.252 OA
ATOM      8  C   UNL     1      -0.013   1.086   0.008  0.00  0.00    +0.041 C 
ATOM      9  H   UNL     1       0.078   0.042   2.676  0.00  0.00    +0.151 HD
ENDROOT
BRANCH   1  10
ATOM     10  C   UNL     1       0.318   4.696   2.995  0.00  0.00    +0.214 C 
BRANCH  10  17
ATOM     11  C   UNL     1       5.628   7.864   1.483  0.00  0.00    +0.103 A 
ATOM     12  N   UNL     1       5.287   6.655   1.083  0.00  0.00    -0.145 NA
ATOM     13  N   UNL     1       4.199   6.136   1.457  0.00  0.00    -0.126 NA
ATOM     14  C   UNL     1       3.361   6.772   2.257  0.00  0.00    +0.188 A 
ATOM     15  S   UNL     1       4.211   8.271   2.496  0.00  0.00    -0.035 S 
ATOM     16  N   UNL     1       2.133   6.359   2.764  0.00  0.00    -0.262 N 
ATOM     17  C   UNL     1       1.647   5.143   2.446  0.00  0.00    +0.237 C 
ATOM     18  O   UNL     1       2.281   4.409   1.717  0.00  0.00    -0.274 OA
ATOM     19  H   UNL     1       1.559   7.025   3.425  0.00  0.00    +0.157 HD
BRANCH  11  21
ATOM     20  C   UNL     1       6.610   9.516  -0.084  0.00  0.00    +0.011 C 
ATOM     21  C   UNL     1       6.859   8.675   1.170  0.00  0.00    +0.061 C 
ENDBRANCH  11  21
ENDBRANCH  10  17
ENDBRANCH   1  10
BRANCH   4  22
ATOM     22  C   UNL     1      -2.184   1.107   1.276  0.00  0.00    +0.039 C 
BRANCH  22  23
ATOM     23  C   UNL     1      -2.224  -0.420   1.358  0.00  0.00    +0.037 C 
BRANCH  23  24
ATOM     24  C   UNL     1      -3.657  -0.886   1.367  0.00  0.00    -0.047 A 
ATOM     25  C   UNL     1      -4.326  -1.041   2.567  0.00  0.00    +0.003 A 
ATOM     26  C   UNL     1      -5.642  -1.463   2.576  0.00  0.00    +0.000 A 
ATOM     27  C   UNL     1      -6.287  -1.740   1.385  0.00  0.00    +0.000 A 
ATOM     28  C   UNL     1      -5.617  -1.590   0.185  0.00  0.00    +0.000 A 
ATOM     29  C   UNL     1      -4.302  -1.163   0.176  0.00  0.00    +0.003 A 
ENDBRANCH  23  24
ENDBRANCH  22  23
ENDBRANCH   4  22
TORSDOF 6
