REMARK  Name = ZINC63830706
REMARK  7 active torsions:
REMARK  status: ('A' for Active; 'I' for Inactive)
REMARK    1  A    between atoms: C_1  and  C_2
REMARK    2  A    between atoms: C_2  and  C_4
REMARK    3  A    between atoms: C_2  and  N_17
REMARK    4  A    between atoms: N_17  and  C_18
REMARK    5  A    between atoms: C_18  and  C_19
REMARK    6  A    between atoms: C_19  and  C_21
REMARK    7  A    between atoms: C_19  and  C_27
REMARK                            x       y       z     vdW  Elec       q    Type
REMARK                         _______ _______ _______ _____ _____    ______ ____
ROOT
ATOM      1  N   UNL     1      -1.376  -0.512   0.012  0.00  0.00    +0.387 N 
ATOM      2  H   UNL     1      -1.363  -1.518   0.090  0.00  0.00    -0.085 HD
ATOM      3  H   UNL     1      -1.873  -0.121   0.799  0.00  0.00    -0.085 HD
ENDROOT
BRANCH   1   5
ATOM      4  C   UNL     1      -0.019   1.526   0.010  0.00  0.00    -0.004 C 
ATOM      5  C   UNL     1       0.002  -0.004   0.002  0.00  0.00    +0.013 C 
BRANCH   5   6
ATOM      6  C   UNL     1       0.731  -0.503   1.223  0.00  0.00    +0.206 C 
ATOM      7  O   UNL     1       0.159  -1.213   2.023  0.00  0.00    -0.277 OA
ATOM      8  N   UNL     1       2.019  -0.161   1.426  0.00  0.00    -0.262 N 
ATOM      9  C   UNL     1       2.733   0.703   0.474  0.00  0.00    +0.209 C 
ATOM     10  C   UNL     1       4.125   0.161   0.269  0.00  0.00    +0.235 C 
ATOM     11  O   UNL     1       4.690   0.347  -0.789  0.00  0.00    -0.274 OA
ATOM     12  N   UNL     1       4.749  -0.525   1.244  0.00  0.00    -0.283 N 
ATOM     13  C   UNL     1       4.102  -0.796   2.455  0.00  0.00    +0.055 A 
ATOM     14  C   UNL     1       2.719  -0.614   2.555  0.00  0.00    +0.058 A 
ATOM     15  C   UNL     1       2.063  -0.878   3.744  0.00  0.00    +0.025 A 
ATOM     16  C   UNL     1       2.783  -1.319   4.841  0.00  0.00    +0.002 A 
ATOM     17  C   UNL     1       4.151  -1.494   4.750  0.00  0.00    +0.002 A 
ATOM     18  C   UNL     1       4.816  -1.239   3.556  0.00  0.00    +0.025 A 
ATOM     19  H   UNL     1       5.658  -0.836   1.106  0.00  0.00    +0.155 HD
ENDBRANCH   5   6
ENDBRANCH   1   5
BRANCH   1  20
ATOM     20  C   UNL     1      -2.050  -0.126  -1.234  0.00  0.00    -0.069 C 
BRANCH  20  21
ATOM     21  C   UNL     1      -3.485  -0.656  -1.224  0.00  0.00    +0.030 C 
BRANCH  21  22
ATOM     22  C   UNL     1      -4.214  -0.157  -2.444  0.00  0.00    -0.036 C 
ATOM     23  C   UNL     1      -5.326   0.614  -2.470  0.00  0.00    -0.001 A 
ATOM     24  C   UNL     1      -6.158   1.194  -1.409  0.00  0.00    +0.010 A 
ATOM     25  C   UNL     1      -7.234   1.938  -1.752  0.00  0.00    +0.001 A 
ATOM     26  C   UNL     1      -7.574   2.167  -3.092  0.00  0.00    +0.002 A 
ATOM     27  C   UNL     1      -6.859   1.667  -4.122  0.00  0.00    +0.026 A 
ATOM     28  C   UNL     1      -5.706   0.871  -3.877  0.00  0.00    +0.043 A 
ATOM     29  N   UNL     1      -4.863   0.283  -4.690  0.00  0.00    -0.380 N 
ATOM     30  C   UNL     1      -3.847  -0.410  -3.889  0.00  0.00    +0.145 C 
ATOM     31  H   UNL     1      -4.901   0.306  -5.659  0.00  0.00    +0.160 HD
ENDBRANCH  21  22
BRANCH  21  32
ATOM     32  C   UNL     1      -3.465  -2.163  -1.232  0.00  0.00    -0.042 A 
ATOM     33  C   UNL     1      -2.862  -2.840  -2.275  0.00  0.00    +0.004 A 
ATOM     34  C   UNL     1      -2.843  -4.222  -2.283  0.00  0.00    +0.000 A 
ATOM     35  C   UNL     1      -3.427  -4.927  -1.247  0.00  0.00    +0.000 A 
ATOM     36  C   UNL     1      -4.029  -4.250  -0.203  0.00  0.00    +0.000 A 
ATOM     37  C   UNL     1      -4.044  -2.867  -0.193  0.00  0.00    +0.004 A 
ENDBRANCH  21  32
ENDBRANCH  20  21
ENDBRANCH   1  20
TORSDOF 6
