REMARK  Name = ZINC13040428
REMARK  11 active torsions:
REMARK  status: ('A' for Active; 'I' for Inactive)
REMARK    1  A    between atoms: C_1  and  C_2
REMARK    2  A    between atoms: C_2  and  N_3
REMARK    3  A    between atoms: N_3  and  C_4
REMARK    4  A    between atoms: C_5  and  N_20
REMARK    5  A    between atoms: N_6  and  C_13
REMARK    6  A    between atoms: C_13  and  C_14
REMARK    7  A    between atoms: C_21  and  C_23
REMARK    8  A    between atoms: C_26  and  S_29
REMARK    9  A    between atoms: S_29  and  N_32
REMARK   10  A    between atoms: N_32  and  C_33
REMARK   11  A    between atoms: N_32  and  C_34
REMARK                            x       y       z     vdW  Elec       q    Type
REMARK                         _______ _______ _______ _____ _____    ______ ____
ROOT
ATOM      1  C   UNL     1      -2.544   4.157  -0.056  0.00  0.00    +0.140 A 
ATOM      2  C   UNL     1      -3.493   3.934  -1.033  0.00  0.00    +0.128 A 
ATOM      3  N   UNL     1      -4.671   4.644  -1.000  0.00  0.00    -0.276 N 
ATOM      4  C   UNL     1      -4.891   5.552  -0.031  0.00  0.00    +0.331 A 
ATOM      5  O   UNL     1      -5.936   6.172  -0.022  0.00  0.00    -0.246 OA
ATOM      6  N   UNL     1      -3.976   5.785   0.926  0.00  0.00    -0.273 N 
ATOM      7  H   UNL     1      -4.165   6.465   1.635  0.00  0.00    +0.173 HD
ATOM      8  C   UNL     1      -2.808   5.114   0.942  0.00  0.00    +0.277 A 
ATOM      9  O   UNL     1      -1.985   5.333   1.814  0.00  0.00    -0.266 OA
ENDROOT
BRANCH   1  10
ATOM     10  N   UNL     1      -1.329   3.442  -0.061  0.00  0.00    -0.260 N 
ATOM     11  C   UNL     1      -1.332   2.105   0.112  0.00  0.00    +0.251 C 
ATOM     12  O   UNL     1      -0.281   1.499   0.190  0.00  0.00    -0.270 OA
BRANCH  11  13
ATOM     13  C   UNL     1      -2.614   1.376   0.207  0.00  0.00    +0.037 A 
ATOM     14  C   UNL     1      -3.751   2.018   0.701  0.00  0.00    +0.015 A 
ATOM     15  C   UNL     1      -4.943   1.330   0.792  0.00  0.00    +0.029 A 
ATOM     16  C   UNL     1      -5.014   0.006   0.397  0.00  0.00    +0.105 A 
ATOM     17  C   UNL     1      -3.891  -0.637  -0.093  0.00  0.00    +0.029 A 
ATOM     18  C   UNL     1      -2.692   0.040  -0.190  0.00  0.00    +0.015 A 
BRANCH  16  19
ATOM     19  S   UNL     1      -6.540  -0.866   0.517  0.00  0.00    +0.060 S 
ATOM     20  O   UNL     1      -7.570   0.113   0.494  0.00  0.00    -0.153 OA
ATOM     21  O   UNL     1      -6.477  -1.927  -0.425  0.00  0.00    -0.153 OA
BRANCH  19  22
ATOM     22  N   UNL     1      -6.587  -1.567   2.017  0.00  0.00    -0.183 NA
ATOM     23  C   UNL     1      -7.164  -0.837   3.149  0.00  0.00    +0.131 C 
ATOM     24  C   UNL     1      -6.051  -2.916   2.212  0.00  0.00    +0.131 C 
ENDBRANCH  19  22
ENDBRANCH  16  19
ENDBRANCH  11  13
BRANCH  10  26
ATOM     25  C   UNL     1       0.206   4.319  -1.751  0.00  0.00    +0.025 C 
ATOM     26  C   UNL     1      -0.062   4.152  -0.254  0.00  0.00    +0.111 C 
ENDBRANCH  10  26
ENDBRANCH   1  10
BRANCH   2  27
ATOM     27  N   UNL     1      -3.266   3.011  -2.026  0.00  0.00    -0.343 N 
ATOM     28  H   UNL     1      -2.464   2.465  -2.007  0.00  0.00    +0.144 HD
ATOM     29  H   UNL     1      -3.908   2.904  -2.745  0.00  0.00    +0.144 HD
ENDBRANCH   2  27
BRANCH   3  30
ATOM     30  C   UNL     1      -5.689   4.415  -2.028  0.00  0.00    +0.163 C 
BRANCH  30  31
ATOM     31  C   UNL     1      -5.447   5.344  -3.190  0.00  0.00    -0.028 A 
ATOM     32  C   UNL     1      -6.044   6.591  -3.214  0.00  0.00    +0.005 A 
ATOM     33  C   UNL     1      -5.818   7.444  -4.277  0.00  0.00    +0.000 A 
ATOM     34  C   UNL     1      -5.005   7.047  -5.322  0.00  0.00    +0.000 A 
ATOM     35  C   UNL     1      -4.413   5.798  -5.301  0.00  0.00    +0.000 A 
ATOM     36  C   UNL     1      -4.634   4.947  -4.235  0.00  0.00    +0.005 A 
ENDBRANCH  30  31
ENDBRANCH   3  30
TORSDOF 8
