REMARK  Name = ZINC15546649
REMARK  5 active torsions:
REMARK  status: ('A' for Active; 'I' for Inactive)
REMARK    1  A    between atoms: C_1  and  N_2
REMARK    2  A    between atoms: C_3  and  C_5
REMARK    3  A    between atoms: N_8  and  C_16
REMARK    4  A    between atoms: C_16  and  C_17
REMARK    5  A    between atoms: N_22  and  C_23
REMARK                            x       y       z     vdW  Elec       q    Type
REMARK                         _______ _______ _______ _____ _____    ______ ____
ROOT
ATOM      1  C   UNL     1      -7.099  -0.123   0.421  0.00  0.00    +0.238 C 
ATOM      2  O   UNL     1      -7.118   1.087   0.493  0.00  0.00    -0.274 OA
ATOM      3  N   UNL     1      -5.925  -0.773   0.302  0.00  0.00    -0.239 N 
ATOM      4  C   UNL     1      -4.771  -0.078   0.264  0.00  0.00    +0.310 C 
ATOM      5  O   UNL     1      -4.789   1.135   0.336  0.00  0.00    -0.252 OA
ATOM      6  N   UNL     1      -3.596  -0.729   0.145  0.00  0.00    -0.269 N 
ATOM      7  H   UNL     1      -5.910  -1.742   0.244  0.00  0.00    +0.159 HD
ATOM      8  H   UNL     1      -3.585  -1.689   0.011  0.00  0.00    +0.156 HD
ENDROOT
BRANCH   6   9
ATOM      9  C   UNL     1      -2.391  -0.017   0.213  0.00  0.00    +0.038 A 
ATOM     10  C   UNL     1      -1.298  -0.428  -0.536  0.00  0.00    +0.027 A 
ATOM     11  C   UNL     1      -0.108   0.271  -0.466  0.00  0.00    +0.051 A 
ATOM     12  C   UNL     1      -0.004   1.389   0.348  0.00  0.00    +0.162 A 
ATOM     13  C   UNL     1      -1.098   1.805   1.099  0.00  0.00    +0.164 A 
ATOM     14  C   UNL     1      -2.291   1.100   1.031  0.00  0.00    +0.072 A 
ATOM     15  O   UNL     1      -1.016   2.900   1.903  0.00  0.00    -0.485 OA
ATOM     16  C   UNL     1       0.299   3.358   2.233  0.00  0.00    +0.270 C 
ATOM     17  C   UNL     1       1.134   3.391   0.946  0.00  0.00    +0.270 C 
ATOM     18  O   UNL     1       1.177   2.065   0.406  0.00  0.00    -0.485 OA
ENDBRANCH   6   9
BRANCH   1  19
ATOM     19  C   UNL     1      -8.390  -0.901   0.463  0.00  0.00    +0.201 C 
BRANCH  19  22
ATOM     20  C   UNL     1     -10.892   1.588  -0.833  0.00  0.00    +0.276 C 
ATOM     21  C   UNL     1      -9.623   0.726  -0.836  0.00  0.00    +0.160 C 
ATOM     22  N   UNL     1      -9.524   0.033   0.453  0.00  0.00    -0.314 N 
ATOM     23  C   UNL     1     -10.713  -0.620   0.793  0.00  0.00    +0.073 A 
ATOM     24  C   UNL     1     -10.666  -1.641   1.738  0.00  0.00    +0.027 A 
ATOM     25  C   UNL     1     -11.821  -2.304   2.103  0.00  0.00    +0.002 A 
ATOM     26  C   UNL     1     -13.030  -1.958   1.530  0.00  0.00    +0.004 A 
ATOM     27  C   UNL     1     -13.086  -0.948   0.589  0.00  0.00    +0.047 A 
ATOM     28  C   UNL     1     -11.930  -0.277   0.216  0.00  0.00    +0.143 A 
ATOM     29  O   UNL     1     -12.018   0.712  -0.717  0.00  0.00    -0.476 OA
BRANCH  20  32
ATOM     30  C   UNL     1     -10.149   4.065  -3.655  0.00  0.00    +0.128 C 
ATOM     31  N   UNL     1     -10.061   3.307  -2.405  0.00  0.00    -0.315 N 
ATOM     32  C   UNL     1     -10.983   2.367  -2.119  0.00  0.00    +0.255 C 
ATOM     33  O   UNL     1     -11.887   2.148  -2.898  0.00  0.00    -0.272 OA
ATOM     34  H   UNL     1      -9.338   3.482  -1.782  0.00  0.00    +0.148 HD
ENDBRANCH  20  32
ENDBRANCH  19  22
ENDBRANCH   1  19
TORSDOF 4
