REMARK  Name = ZINC59417717
REMARK  3 active torsions:
REMARK  status: ('A' for Active; 'I' for Inactive)
REMARK    1  A    between atoms: C_8  and  C_10
REMARK    2  A    between atoms: N_12  and  N_13
REMARK    3  A    between atoms: C_14  and  C_15
REMARK                            x       y       z     vdW  Elec       q    Type
REMARK                         _______ _______ _______ _____ _____    ______ ____
ROOT
ATOM      1  C   UNL     1       3.796  -3.323  -0.055  0.00  0.00    +0.299 C 
ATOM      2  O   UNL     1       3.268  -4.420  -0.055  0.00  0.00    -0.265 OA
ATOM      3  N   UNL     1       5.140  -3.222  -0.068  0.00  0.00    -0.200 N 
ATOM      4  H   UNL     1       5.560  -2.348  -0.067  0.00  0.00    +0.178 HD
ENDROOT
BRANCH   1  12
ATOM      5  C   UNL     1      -0.017   1.362   0.009  0.00  0.00    +0.001 A 
ATOM      6  C   UNL     1       1.171   2.082   0.002  0.00  0.00    +0.004 A 
ATOM      7  C   UNL     1       2.387   1.434  -0.013  0.00  0.00    +0.047 A 
ATOM      8  C   UNL     1       2.431   0.045  -0.021  0.00  0.00    +0.136 A 
ATOM      9  C   UNL     1       1.225  -0.680  -0.013  0.00  0.00    +0.021 A 
ATOM     10  C   UNL     1       0.002  -0.004   0.002  0.00  0.00    +0.011 A 
ATOM     11  C   UNL     1       1.609  -2.091  -0.025  0.00  0.00    +0.063 A 
ATOM     12  C   UNL     1       2.968  -2.110  -0.040  0.00  0.00    +0.192 A 
ATOM     13  O   UNL     1       3.442  -0.847  -0.037  0.00  0.00    -0.450 OA
ENDBRANCH   1  12
BRANCH   3  14
ATOM     14  N   UNL     1       5.929  -4.379  -0.082  0.00  0.00    -0.187 NA
ATOM     15  C   UNL     1       7.224  -4.282  -0.095  0.00  0.00    +0.139 C 
BRANCH  15  16
ATOM     16  C   UNL     1       8.055  -5.499  -0.110  0.00  0.00    +0.008 A 
ATOM     17  C   UNL     1       9.448  -5.398  -0.118  0.00  0.00    +0.010 A 
ATOM     18  C   UNL     1      10.219  -6.541  -0.132  0.00  0.00    +0.001 A 
ATOM     19  C   UNL     1       9.617  -7.787  -0.139  0.00  0.00    +0.001 A 
ATOM     20  C   UNL     1       8.238  -7.896  -0.132  0.00  0.00    +0.016 A 
ATOM     21  C   UNL     1       7.453  -6.761  -0.111  0.00  0.00    +0.027 A 
ATOM     22 BR   UNL     1       5.568  -6.911  -0.092  0.00  0.00    -0.050 Br
ENDBRANCH  15  16
ENDBRANCH   3  14
TORSDOF 3
