REMARK  Name = ZINC02299230
REMARK  8 active torsions:
REMARK  status: ('A' for Active; 'I' for Inactive)
REMARK    1  A    between atoms: C_1  and  C_2
REMARK    2  A    between atoms: C_2  and  C_29
REMARK    3  A    between atoms: C_6  and  N_21
REMARK    4  A    between atoms: C_12  and  N_16
REMARK    5  A    between atoms: N_16  and  C_17
REMARK    6  A    between atoms: C_17  and  C_18
REMARK    7  A    between atoms: C_18  and  C_19
REMARK    8  A    between atoms: C_19  and  O_20
REMARK                            x       y       z     vdW  Elec       q    Type
REMARK                         _______ _______ _______ _____ _____    ______ ____
ROOT
ATOM      1  C   UNL     1      -1.423  -0.473   0.549  0.00  0.00    +0.041 C 
ATOM      2  C   UNL     1      -0.025   0.033   0.184  0.00  0.00    +0.068 C 
ATOM      3  C   UNL     1      -0.029   1.562   0.132  0.00  0.00    +0.070 C 
ATOM      4  C   UNL     1       1.386   2.070   0.059  0.00  0.00    -0.024 A 
ATOM      5  C   UNL     1       2.451   1.285   0.375  0.00  0.00    +0.020 A 
ATOM      6  C   UNL     1       3.747   1.804   0.298  0.00  0.00    +0.105 A 
ATOM      7  C   UNL     1       2.939   3.841  -0.401  0.00  0.00    +0.089 A 
ATOM      8  C   UNL     1       1.603   3.409  -0.351  0.00  0.00    +0.037 A 
ATOM      9  C   UNL     1       0.588   4.407  -0.734  0.00  0.00    +0.115 A 
ATOM     10  C   UNL     1       1.079   5.669  -1.103  0.00  0.00    +0.083 A 
ATOM     11  S   UNL     1       2.836   5.529  -0.944  0.00  0.00    -0.065 S 
ATOM     12  C   UNL     1       0.204   6.677  -1.481  0.00  0.00    +0.159 A 
ATOM     13  N   UNL     1      -1.101   6.399  -1.478  0.00  0.00    -0.113 NA
ATOM     14  N   UNL     1      -1.515   5.235  -1.133  0.00  0.00    -0.041 NA
ATOM     15  N   UNL     1      -0.755   4.269  -0.777  0.00  0.00    -0.128 NA
ATOM     16  C   UNL     1       2.271  -0.147   0.809  0.00  0.00    +0.199 C 
ATOM     17  O   UNL     1       0.914  -0.384   1.182  0.00  0.00    -0.369 OA
ATOM     18  C   UNL     1       0.387  -0.528  -1.178  0.00  0.00    +0.041 C 
ATOM     19  N   UNL     1       4.018   3.083  -0.088  0.00  0.00    -0.337 N 
ATOM     20  H   UNL     1       4.976   3.448  -0.138  0.00  0.00    +0.168 HD
ENDROOT
BRANCH   6  21
ATOM     21  N   UNL     1       4.832   1.002   0.625  0.00  0.00    -0.312 N 
ATOM     22  C   UNL     1       5.572   1.556   1.768  0.00  0.00    +0.134 C 
ATOM     23  C   UNL     1       6.720   0.612   2.131  0.00  0.00    +0.178 C 
ATOM     24  O   UNL     1       7.556   0.422   0.986  0.00  0.00    -0.377 OA
ATOM     25  C   UNL     1       6.867  -0.117  -0.146  0.00  0.00    +0.178 C 
ATOM     26  C   UNL     1       5.720   0.820  -0.532  0.00  0.00    +0.134 C 
ENDBRANCH   6  21
BRANCH  12  27
ATOM     27  N   UNL     1       0.670   7.931  -1.850  0.00  0.00    -0.327 N 
ATOM     28  H   UNL     1       1.622   8.114  -1.847  0.00  0.00    +0.148 HD
BRANCH  27  29
ATOM     29  C   UNL     1      -0.277   8.977  -2.245  0.00  0.00    +0.105 C 
BRANCH  29  30
ATOM     30  C   UNL     1       0.491  10.251  -2.601  0.00  0.00    +0.046 C 
BRANCH  30  31
ATOM     31  C   UNL     1      -0.497  11.344  -3.013  0.00  0.00    +0.157 C 
BRANCH  31  32
ATOM     32  O   UNL     1       0.220  12.534  -3.346  0.00  0.00    -0.395 OA
ATOM     33  H   UNL     1      -0.345  13.271  -3.617  0.00  0.00    +0.209 HD
ENDBRANCH  31  32
ENDBRANCH  30  31
ENDBRANCH  29  30
ENDBRANCH  27  29
ENDBRANCH  12  27
TORSDOF 6
