REMARK  Name = ZINC05671644
REMARK  13 active torsions:
REMARK  status: ('A' for Active; 'I' for Inactive)
REMARK    1  A    between atoms: C_1  and  C_2
REMARK    2  A    between atoms: C_2  and  C_3
REMARK    3  A    between atoms: C_6  and  N_9
REMARK    4  A    between atoms: C_10  and  C_12
REMARK    5  A    between atoms: C_12  and  C_14
REMARK    6  A    between atoms: C_12  and  O_15
REMARK    7  A    between atoms: O_15  and  C_16
REMARK    8  A    between atoms: C_16  and  C_18
REMARK    9  A    between atoms: C_22  and  S_24
REMARK   10  A    between atoms: S_24  and  N_27
REMARK   11  A    between atoms: N_27  and  C_28
REMARK   12  A    between atoms: C_28  and  C_29
REMARK   13  A    between atoms: C_28  and  C_30
REMARK                            x       y       z     vdW  Elec       q    Type
REMARK                         _______ _______ _______ _____ _____    ______ ____
ROOT
ATOM      1  C   UNL     1       3.941  -5.816  -1.211  0.00  0.00    +0.340 C 
ATOM      2  O   UNL     1       2.967  -6.405  -1.635  0.00  0.00    -0.245 OA
ENDROOT
BRANCH   1   3
ATOM      3  C   UNL     1       5.296  -6.337  -1.485  0.00  0.00    +0.061 A 
ATOM      4  C   UNL     1       6.418  -5.662  -0.998  0.00  0.00    +0.015 A 
ATOM      5  C   UNL     1       7.681  -6.154  -1.258  0.00  0.00    +0.003 A 
ATOM      6  C   UNL     1       7.837  -7.313  -1.998  0.00  0.00    +0.028 A 
ATOM      7  C   UNL     1       6.729  -7.986  -2.482  0.00  0.00    +0.106 A 
ATOM      8  C   UNL     1       5.461  -7.508  -2.226  0.00  0.00    +0.043 A 
BRANCH   7   9
ATOM      9  S   UNL     1       6.940  -9.461  -3.422  0.00  0.00    +0.059 S 
ATOM     10  O   UNL     1       5.774  -9.603  -4.222  0.00  0.00    -0.153 OA
ATOM     11  O   UNL     1       8.245  -9.404  -3.982  0.00  0.00    -0.153 OA
BRANCH   9  12
ATOM     12  N   UNL     1       6.938 -10.727  -2.355  0.00  0.00    -0.187 NA
ATOM     13  H   UNL     1       7.737 -11.264  -2.238  0.00  0.00    +0.148 HD
BRANCH  12  14
ATOM     14  C   UNL     1       5.729 -11.036  -1.587  0.00  0.00    +0.070 C 
ATOM     15  C   UNL     1       5.616 -12.550  -1.400  0.00  0.00    +0.025 C 
ATOM     16  C   UNL     1       5.807 -10.358  -0.218  0.00  0.00    +0.025 C 
ENDBRANCH  12  14
ENDBRANCH   9  12
ENDBRANCH   7   9
ENDBRANCH   1   3
BRANCH   1  17
ATOM     17  O   UNL     1       3.785  -4.689  -0.490  0.00  0.00    -0.449 OA
BRANCH  17  18
ATOM     18  C   UNL     1       2.425  -4.236  -0.260  0.00  0.00    +0.259 C 
ATOM     19  C   UNL     1       1.892  -4.858   1.032  0.00  0.00    +0.062 C 
BRANCH  18  21
ATOM     20  N   UNL     1       1.237  -2.079  -0.021  0.00  0.00    -0.282 N 
ATOM     21  C   UNL     1       2.410  -2.734  -0.138  0.00  0.00    +0.258 C 
ATOM     22  O   UNL     1       3.452  -2.114  -0.144  0.00  0.00    -0.271 OA
ATOM     23  H   UNL     1       0.409  -2.578   0.061  0.00  0.00    +0.155 HD
BRANCH  20  27
ATOM     24  C   UNL     1       1.169   2.086  -0.013  0.00  0.00    -0.048 A 
ATOM     25  C   UNL     1       2.112   1.413  -0.768  0.00  0.00    +0.005 A 
ATOM     26  C   UNL     1       2.137   0.032  -0.773  0.00  0.00    +0.023 A 
ATOM     27  C   UNL     1       1.214  -0.680  -0.019  0.00  0.00    +0.034 A 
ATOM     28  C   UNL     1       0.269  -0.001   0.738  0.00  0.00    +0.023 A 
ATOM     29  C   UNL     1       0.249   1.380   0.739  0.00  0.00    +0.005 A 
BRANCH  24  31
ATOM     30  C   UNL     1       0.230   4.091  -1.130  0.00  0.00    +0.009 C 
ATOM     31  C   UNL     1       1.145   3.593  -0.010  0.00  0.00    +0.032 C 
ENDBRANCH  24  31
ENDBRANCH  20  27
ENDBRANCH  18  21
ENDBRANCH  17  18
ENDBRANCH   1  17
TORSDOF 9
