REMARK  Name = ZINC33614738
REMARK  6 active torsions:
REMARK  status: ('A' for Active; 'I' for Inactive)
REMARK    1  A    between atoms: C_4  and  N_22
REMARK    2  A    between atoms: C_5  and  N_7
REMARK    3  A    between atoms: C_8  and  C_10
REMARK    4  A    between atoms: C_10  and  S_11
REMARK    5  A    between atoms: S_11  and  C_12
REMARK    6  A    between atoms: N_25  and  C_28
REMARK                            x       y       z     vdW  Elec       q    Type
REMARK                         _______ _______ _______ _____ _____    ______ ____
ROOT
ATOM      1  C   UNL     1      -0.028   1.374   0.036  0.00  0.00    +0.002 A 
ATOM      2  C   UNL     1       1.155   2.089   0.033  0.00  0.00    +0.002 A 
ATOM      3  C   UNL     1       2.368   1.427   0.011  0.00  0.00    +0.025 A 
ATOM      4  C   UNL     1       2.401   0.040  -0.007  0.00  0.00    +0.051 A 
ATOM      5  C   UNL     1       1.208  -0.681  -0.003  0.00  0.00    +0.055 A 
ATOM      6  C   UNL     1      -0.005  -0.008   0.019  0.00  0.00    +0.025 A 
ENDROOT
BRANCH   4   7
ATOM      7  N   UNL     1       3.627  -0.632  -0.029  0.00  0.00    -0.332 N 
ATOM      8  C   UNL     1       4.279  -0.974  -1.302  0.00  0.00    +0.086 C 
ATOM      9  C   UNL     1       5.734  -0.495  -1.248  0.00  0.00    -0.059 C 
ATOM     10  N   UNL     1       6.389  -1.058  -0.061  0.00  0.00    +0.384 N 
ATOM     11  C   UNL     1       5.755  -0.535   1.156  0.00  0.00    -0.059 C 
ATOM     12  C   UNL     1       4.305  -1.012   1.220  0.00  0.00    +0.086 C 
ATOM     13  H   UNL     1       6.306  -2.063  -0.077  0.00  0.00    -0.081 HD
BRANCH  10  14
ATOM     14  C   UNL     1       7.811  -0.688  -0.068  0.00  0.00    -0.068 C 
ATOM     15  C   UNL     1       8.476  -1.242  -1.329  0.00  0.00    -0.015 C 
ATOM     16  C   UNL     1       9.957  -0.856  -1.336  0.00  0.00    -0.002 C 
ATOM     17  C   UNL     1      10.642  -1.442  -0.100  0.00  0.00    -0.000 C 
ATOM     18  C   UNL     1       9.977  -0.889   1.162  0.00  0.00    -0.002 C 
ATOM     19  C   UNL     1       8.496  -1.274   1.169  0.00  0.00    -0.015 C 
ENDBRANCH  10  14
ENDBRANCH   4   7
BRANCH   5  20
ATOM     20  N   UNL     1       1.234  -2.082  -0.021  0.00  0.00    -0.283 N 
ATOM     21  C   UNL     1       0.181  -2.769  -0.509  0.00  0.00    +0.228 C 
ATOM     22  O   UNL     1      -0.744  -2.178  -1.023  0.00  0.00    -0.275 OA
ATOM     23  H   UNL     1       2.009  -2.558   0.317  0.00  0.00    +0.155 HD
BRANCH  21  24
ATOM     24  C   UNL     1       0.155  -4.273  -0.415  0.00  0.00    +0.175 C 
BRANCH  24  25
ATOM     25  S   UNL     1      -1.380  -4.898  -1.153  0.00  0.00    -0.058 S 
BRANCH  25  26
ATOM     26  C   UNL     1      -1.261  -6.646  -0.968  0.00  0.00    +0.258 A 
ATOM     27  N   UNL     1      -0.259  -7.275  -0.406  0.00  0.00    -0.203 NA
ATOM     28  C   UNL     1      -0.509  -8.613  -0.439  0.00  0.00    +0.112 A 
ATOM     29  C   UNL     1       0.192  -9.735   0.003  0.00  0.00    +0.051 A 
ATOM     30  C   UNL     1      -0.342 -10.992  -0.183  0.00  0.00    +0.043 A 
ATOM     31  C   UNL     1      -1.572 -11.146  -0.808  0.00  0.00    +0.024 A 
ATOM     32  C   UNL     1      -2.275 -10.044  -1.250  0.00  0.00    +0.050 A 
ATOM     33  C   UNL     1      -1.752  -8.774  -1.070  0.00  0.00    +0.156 A 
ATOM     34  O   UNL     1      -2.189  -7.530  -1.377  0.00  0.00    -0.431 OA
ATOM     35 CL   UNL     1       0.528 -12.391   0.365  0.00  0.00    -0.083 Cl
ENDBRANCH  25  26
ENDBRANCH  24  25
ENDBRANCH  21  24
ENDBRANCH   5  20
TORSDOF 6
