REMARK  Name = ZINC44940165
REMARK  6 active torsions:
REMARK  status: ('A' for Active; 'I' for Inactive)
REMARK    1  A    between atoms: C_4  and  C_7
REMARK    2  A    between atoms: C_7  and  O_8
REMARK    3  A    between atoms: O_8  and  C_9
REMARK    4  A    between atoms: C_15  and  N_17
REMARK    5  A    between atoms: C_18  and  C_20
REMARK    6  A    between atoms: C_26  and  C_28
REMARK                            x       y       z     vdW  Elec       q    Type
REMARK                         _______ _______ _______ _____ _____    ______ ____
ROOT
ATOM      1  C   UNL     1       2.525  -5.285   3.690  0.00  0.00    +0.087 C 
ATOM      2  C   UNL     1       1.317  -4.661   2.988  0.00  0.00    +0.013 C 
ATOM      3  C   UNL     1       1.116  -3.231   3.493  0.00  0.00    +0.001 C 
ATOM      4  C   UNL     1       0.873  -3.253   5.004  0.00  0.00    +0.001 C 
ATOM      5  C   UNL     1       2.081  -3.876   5.705  0.00  0.00    +0.013 C 
ATOM      6  C   UNL     1       2.282  -5.306   5.201  0.00  0.00    +0.087 C 
ENDROOT
BRANCH   6   7
ATOM      7  C   UNL     1       3.473  -5.920   5.892  0.00  0.00    +0.220 C 
ATOM      8  O   UNL     1       4.297  -5.209   6.426  0.00  0.00    -0.275 OA
ATOM      9  N   UNL     1       3.621  -7.260   5.916  0.00  0.00    -0.295 N 
ATOM     10  C   UNL     1       4.710  -7.884   6.683  0.00  0.00    +0.113 C 
ATOM     11  C   UNL     1       4.104  -8.729   7.810  0.00  0.00    +0.056 C 
ATOM     12  C   UNL     1       2.962  -9.542   7.254  0.00  0.00    -0.016 A 
ATOM     13  C   UNL     1       2.333 -10.714   7.827  0.00  0.00    +0.003 A 
ATOM     14  C   UNL     1       2.561 -11.433   9.004  0.00  0.00    +0.010 A 
ATOM     15  C   UNL     1       1.754 -12.519   9.235  0.00  0.00    +0.001 A 
ATOM     16  C   UNL     1       0.757 -12.896   8.350  0.00  0.00    +0.002 A 
ATOM     17  C   UNL     1       0.509 -12.204   7.178  0.00  0.00    +0.026 A 
ATOM     18  C   UNL     1       1.313 -11.096   6.918  0.00  0.00    +0.047 A 
ATOM     19  N   UNL     1       1.340 -10.208   5.881  0.00  0.00    -0.356 N 
ATOM     20  H   UNL     1       0.747 -10.228   5.113  0.00  0.00    +0.166 HD
ATOM     21  C   UNL     1       2.329  -9.284   6.089  0.00  0.00    +0.038 A 
ATOM     22  C   UNL     1       2.693  -8.136   5.180  0.00  0.00    +0.161 C 
ENDBRANCH   6   7
BRANCH   1  24
ATOM     23  N   UNL     1       4.166  -4.309   2.117  0.00  0.00    -0.310 N 
ATOM     24  C   UNL     1       3.756  -4.468   3.391  0.00  0.00    +0.217 C 
ATOM     25  O   UNL     1       4.378  -3.955   4.297  0.00  0.00    -0.275 OA
ATOM     26  H   UNL     1       3.669  -4.720   1.393  0.00  0.00    +0.149 HD
BRANCH  23  32
ATOM     27  C   UNL     1       5.278  -2.969   0.400  0.00  0.00    +0.139 C 
ATOM     28  C   UNL     1       6.528  -2.140   0.096  0.00  0.00    +0.033 C 
ATOM     29  C   UNL     1       7.770  -3.023   0.231  0.00  0.00    +0.003 C 
ATOM     30  C   UNL     1       7.855  -3.570   1.657  0.00  0.00    +0.002 C 
ATOM     31  C   UNL     1       6.605  -4.398   1.961  0.00  0.00    +0.025 C 
ATOM     32  C   UNL     1       5.363  -3.516   1.826  0.00  0.00    +0.102 C 
BRANCH  27  33
ATOM     33  O   UNL     1       4.117  -2.145   0.274  0.00  0.00    -0.370 OA
BRANCH  33  34
ATOM     34  C   UNL     1       3.553  -2.132  -1.039  0.00  0.00    +0.195 C 
BRANCH  34  38
ATOM     35  C   UNL     1       0.119   0.407  -1.091  0.00  0.00    +0.000 A 
ATOM     36  C   UNL     1       1.368   0.929  -1.371  0.00  0.00    +0.000 A 
ATOM     37  C   UNL     1       2.479   0.107  -1.354  0.00  0.00    +0.006 A 
ATOM     38  C   UNL     1       2.341  -1.236  -1.056  0.00  0.00    -0.022 A 
ATOM     39  C   UNL     1       1.092  -1.757  -0.775  0.00  0.00    +0.006 A 
ATOM     40  C   UNL     1      -0.019  -0.936  -0.794  0.00  0.00    +0.000 A 
ENDBRANCH  34  38
ENDBRANCH  33  34
ENDBRANCH  27  33
ENDBRANCH  23  32
ENDBRANCH   1  24
TORSDOF 6
