REMARK  Name = ZINC38905339
REMARK  9 active torsions:
REMARK  status: ('A' for Active; 'I' for Inactive)
REMARK    1  A    between atoms: C_1  and  C_2
REMARK    2  A    between atoms: C_3  and  C_31
REMARK    3  A    between atoms: C_7  and  N_8
REMARK    4  A    between atoms: C_9  and  C_11
REMARK    5  A    between atoms: N_16  and  C_18
REMARK    6  A    between atoms: C_18  and  C_19
REMARK    7  A    between atoms: C_21  and  C_24
REMARK    8  A    between atoms: C_31  and  O_33
REMARK    9  A    between atoms: O_33  and  C_34
REMARK                            x       y       z     vdW  Elec       q    Type
REMARK                         _______ _______ _______ _____ _____    ______ ____
ROOT
ATOM      1  C   UNL     1       0.512   0.202   4.859  0.00  0.00    +0.059 C 
ATOM      2  C   UNL     1      -0.744   1.035   5.126  0.00  0.00    +0.009 C 
ATOM      3  C   UNL     1      -0.592   1.755   6.469  0.00  0.00    -0.018 C 
ATOM      4  C   UNL     1      -0.338   0.722   7.569  0.00  0.00    -0.078 C 
ATOM      5  N   UNL     1       0.891  -0.024   7.270  0.00  0.00    +0.386 N 
ATOM      6  C   UNL     1       0.727  -0.774   6.019  0.00  0.00    -0.065 C 
ATOM      7  H   UNL     1       1.660   0.622   7.175  0.00  0.00    -0.081 HD
ENDROOT
BRANCH   1   9
ATOM      8  N   UNL     1       0.136   0.085   2.417  0.00  0.00    -0.285 N 
ATOM      9  C   UNL     1       0.341  -0.571   3.577  0.00  0.00    +0.219 C 
ATOM     10  O   UNL     1       0.387  -1.783   3.588  0.00  0.00    -0.275 OA
ATOM     11  H   UNL     1       0.023   1.048   2.418  0.00  0.00    +0.155 HD
BRANCH   8  18
ATOM     12  C   UNL     1      -1.148   1.308   0.195  0.00  0.00    +0.046 C 
ATOM     13  C   UNL     1      -0.532  -0.065   0.104  0.00  0.00    -0.015 A 
ATOM     14  C   UNL     1      -0.576  -0.774  -1.097  0.00  0.00    +0.064 A 
ATOM     15  C   UNL     1      -0.002  -2.044  -1.173  0.00  0.00    +0.015 A 
ATOM     16  C   UNL     1       0.605  -2.595  -0.062  0.00  0.00    +0.003 A 
ATOM     17  C   UNL     1       0.647  -1.893   1.127  0.00  0.00    +0.023 A 
ATOM     18  C   UNL     1       0.084  -0.625   1.212  0.00  0.00    +0.037 A 
BRANCH  14  19
ATOM     19  C   UNL     1      -1.226  -0.182  -2.284  0.00  0.00    +0.339 C 
ATOM     20  O   UNL     1      -1.612   0.970  -2.254  0.00  0.00    -0.245 OA
BRANCH  19  21
ATOM     21  O   UNL     1      -1.392  -0.919  -3.399  0.00  0.00    -0.464 OA
ATOM     22  C   UNL     1      -2.029  -0.283  -4.509  0.00  0.00    +0.280 C 
ENDBRANCH  19  21
ENDBRANCH  14  19
ENDBRANCH   8  18
ENDBRANCH   1   9
BRANCH   5  23
ATOM     23  C   UNL     1       1.173  -0.960   8.367  0.00  0.00    +0.022 C 
BRANCH  23  24
ATOM     24  C   UNL     1       1.473  -0.185   9.624  0.00  0.00    +0.211 A 
ATOM     25  N   UNL     1       0.598   0.189  10.514  0.00  0.00    -0.193 NA
ATOM     26  C   UNL     1       1.210   0.861  11.506  0.00  0.00    +0.202 A 
ATOM     27  N   UNL     1       2.493   0.916  11.246  0.00  0.00    -0.056 NA
ATOM     28  O   UNL     1       2.683   0.231  10.017  0.00  0.00    -0.340 OA
BRANCH  26  29
ATOM     29  C   UNL     1       0.542   1.442  12.697  0.00  0.00    +0.023 A 
ATOM     30  C   UNL     1      -0.835   1.309  12.862  0.00  0.00    +0.013 A 
ATOM     31  C   UNL     1      -1.451   1.851  13.971  0.00  0.00    +0.016 A 
ATOM     32  C   UNL     1      -0.703   2.527  14.920  0.00  0.00    +0.018 A 
ATOM     33  C   UNL     1       0.666   2.662  14.761  0.00  0.00    +0.016 A 
ATOM     34  C   UNL     1       1.292   2.118  13.658  0.00  0.00    +0.013 A 
ATOM     35 BR   UNL     1      -1.553   3.268  16.437  0.00  0.00    -0.050 Br
ENDBRANCH  26  29
ENDBRANCH  23  24
ENDBRANCH   5  23
TORSDOF 7
