REMARK  Name = ZINC45696913
REMARK  7 active torsions:
REMARK  status: ('A' for Active; 'I' for Inactive)
REMARK    1  A    between atoms: C_1  and  C_2
REMARK    2  A    between atoms: C_4  and  C_8
REMARK    3  A    between atoms: C_5  and  C_7
REMARK    4  A    between atoms: C_10  and  C_18
REMARK    5  A    between atoms: C_12  and  C_17
REMARK    6  A    between atoms: N_20  and  N_21
REMARK    7  A    between atoms: C_22  and  C_24
REMARK                            x       y       z     vdW  Elec       q    Type
REMARK                         _______ _______ _______ _____ _____    ______ ____
ROOT
ATOM      1  C   UNL     1      -1.341  -3.418  -0.554  0.00  0.00    +0.079 A 
ATOM      2  C   UNL     1      -2.733  -3.331  -0.654  0.00  0.00    +0.042 A 
ATOM      3  C   UNL     1      -3.497  -4.480  -0.478  0.00  0.00    +0.054 A 
ATOM      4  C   UNL     1      -2.821  -5.688  -0.206  0.00  0.00    +0.076 A 
ATOM      5  C   UNL     1      -3.258  -7.062   0.032  0.00  0.00    +0.091 A 
ATOM      6  N   UNL     1      -2.194  -7.778   0.233  0.00  0.00    -0.080 NA
ATOM      7  O   UNL     1      -1.045  -6.960   0.144  0.00  0.00    -0.334 OA
ATOM      8  C   UNL     1      -1.418  -5.691  -0.122  0.00  0.00    +0.260 A 
ATOM      9  N   UNL     1      -0.738  -4.570  -0.303  0.00  0.00    -0.210 NA
ATOM     10  C   UNL     1      -4.682  -7.556   0.043  0.00  0.00    +0.070 C 
ENDROOT
BRANCH   1  14
ATOM     11  C   UNL     1       0.092   1.414  -1.390  0.00  0.00    +0.086 C 
ATOM     12  C   UNL     1       0.088  -0.067  -1.110  0.00  0.00    +0.103 A 
ATOM     13  C   UNL     1      -1.007  -0.841  -1.024  0.00  0.00    +0.054 A 
ATOM     14  C   UNL     1      -0.523  -2.197  -0.741  0.00  0.00    +0.041 A 
ATOM     15  C   UNL     1       0.833  -2.100  -0.684  0.00  0.00    +0.111 A 
ATOM     16  O   UNL     1       1.176  -0.826  -0.911  0.00  0.00    -0.464 OA
ATOM     17  C   UNL     1       1.786  -3.236  -0.415  0.00  0.00    +0.087 C 
ENDBRANCH   1  14
BRANCH   3  18
ATOM     18  C   UNL     1      -4.973  -4.436  -0.574  0.00  0.00    +0.261 C 
ATOM     19  O   UNL     1      -5.579  -5.372  -1.058  0.00  0.00    -0.269 OA
ATOM     20  N   UNL     1      -5.646  -3.358  -0.125  0.00  0.00    -0.230 N 
ATOM     21  H   UNL     1      -5.163  -2.611   0.262  0.00  0.00    +0.173 HD
BRANCH  20  22
ATOM     22  N   UNL     1      -7.044  -3.317  -0.215  0.00  0.00    -0.229 N 
ATOM     23  C   UNL     1      -7.717  -2.239   0.234  0.00  0.00    +0.276 C 
ATOM     24  O   UNL     1      -7.110  -1.302   0.719  0.00  0.00    -0.267 OA
ATOM     25  H   UNL     1      -7.527  -4.064  -0.601  0.00  0.00    +0.173 HD
BRANCH  23  26
ATOM     26  C   UNL     1      -9.180  -2.196   0.140  0.00  0.00    +0.104 A 
ATOM     27  C   UNL     1      -9.993  -1.161   0.551  0.00  0.00    +0.047 A 
ATOM     28  C   UNL     1     -11.311  -1.539   0.275  0.00  0.00    +0.036 A 
ATOM     29  C   UNL     1     -11.280  -2.771  -0.289  0.00  0.00    +0.098 A 
ATOM     30  N   UNL     1      -9.990  -3.179  -0.382  0.00  0.00    -0.356 N 
ATOM     31  H   UNL     1      -9.689  -4.023  -0.752  0.00  0.00    +0.166 HD
ATOM     32 BR   UNL     1     -12.860  -0.513   0.625  0.00  0.00    -0.049 Br
ENDBRANCH  23  26
ENDBRANCH  20  22
ENDBRANCH   3  18
TORSDOF 4
