REMARK  Name = ZINC39710680
REMARK  13 active torsions:
REMARK  status: ('A' for Active; 'I' for Inactive)
REMARK    1  A    between atoms: C_1  and  C_2
REMARK    2  A    between atoms: C_2  and  C_3
REMARK    3  A    between atoms: C_3  and  C_4
REMARK    4  A    between atoms: C_3  and  C_5
REMARK    5  A    between atoms: C_3  and  N_6
REMARK    6  A    between atoms: C_7  and  C_12
REMARK    7  A    between atoms: C_12  and  C_14
REMARK    8  A    between atoms: C_12  and  N_27
REMARK    9  A    between atoms: C_20  and  C_26
REMARK   10  A    between atoms: N_27  and  C_28
REMARK   11  A    between atoms: N_27  and  C_34
REMARK   12  A    between atoms: C_28  and  C_29
REMARK   13  A    between atoms: C_34  and  C_35
REMARK                            x       y       z     vdW  Elec       q    Type
REMARK                         _______ _______ _______ _____ _____    ______ ____
ROOT
ATOM      1  C   UNL     1      -2.825  -3.124   1.630  0.00  0.00    -0.009 C 
ENDROOT
BRANCH   1   2
ATOM      2  C   UNL     1      -3.099  -2.058   2.692  0.00  0.00    +0.088 C 
ATOM      3  C   UNL     1      -4.202  -1.157   2.172  0.00  0.00    -0.006 C 
ATOM      4  C   UNL     1      -3.924   0.174   2.065  0.00  0.00    -0.007 A 
ATOM      5  C   UNL     1      -4.930   1.114   1.572  0.00  0.00    +0.010 A 
ATOM      6  C   UNL     1      -4.608   2.430   1.482  0.00  0.00    +0.004 A 
ATOM      7  C   UNL     1      -3.345   2.896   1.847  0.00  0.00    -0.049 A 
ATOM      8  C   UNL     1      -2.367   2.075   2.311  0.00  0.00    +0.027 A 
ATOM      9  C   UNL     1      -2.598   0.693   2.444  0.00  0.00    +0.041 A 
ATOM     10  N   UNL     1      -1.632  -0.103   2.902  0.00  0.00    -0.285 N 
ATOM     11  C   UNL     1      -1.781  -1.408   3.048  0.00  0.00    +0.223 C 
ATOM     12  O   UNL     1      -0.861  -2.083   3.470  0.00  0.00    -0.275 OA
ATOM     13  C   UNL     1      -3.053   4.369   1.722  0.00  0.00    +0.044 C 
ATOM     14  H   UNL     1      -0.778   0.294   3.137  0.00  0.00    +0.155 HD
ENDBRANCH   1   2
BRANCH   1  16
ATOM     15  N   UNL     1      -1.859  -3.478  -0.617  0.00  0.00    -0.182 NA
ATOM     16  C   UNL     1      -2.273  -2.457   0.368  0.00  0.00    +0.205 C 
ATOM     17  N   UNL     1      -3.328  -1.694  -0.314  0.00  0.00    -0.152 NA
ATOM     18  N   UNL     1      -3.493  -2.163  -1.442  0.00  0.00    -0.070 NA
ATOM     19  N   UNL     1      -2.650  -3.241  -1.710  0.00  0.00    -0.179 N 
ATOM     20  H   UNL     1      -2.627  -3.744  -2.540  0.00  0.00    +0.191 HD
BRANCH  15  21
ATOM     21  C   UNL     1      -0.436  -3.337  -0.955  0.00  0.00    +0.037 C 
ATOM     22  C   UNL     1       0.412  -3.577   0.295  0.00  0.00    +0.029 C 
ATOM     23  C   UNL     1      -0.176  -1.925  -1.484  0.00  0.00    +0.029 C 
BRANCH  21  25
ATOM     24  C   UNL     1       1.418  -4.213  -2.382  0.00  0.00    +0.006 C 
ATOM     25  C   UNL     1      -0.063  -4.361  -2.029  0.00  0.00    +0.020 C 
ENDBRANCH  21  25
ENDBRANCH  15  21
ENDBRANCH   1  16
BRANCH   1  26
ATOM     26  N   UNL     1      -4.074  -3.826   1.306  0.00  0.00    +0.389 N 
ATOM     27  H   UNL     1      -4.701  -3.195   0.831  0.00  0.00    -0.081 HD
BRANCH  26  28
ATOM     28  C   UNL     1      -3.780  -4.972   0.435  0.00  0.00    -0.035 C 
BRANCH  28  29
ATOM     29  C   UNL     1      -5.067  -5.662   0.062  0.00  0.00    -0.027 A 
ATOM     30  C   UNL     1      -5.848  -5.479  -1.031  0.00  0.00    +0.009 A 
ATOM     31  C   UNL     1      -6.997  -6.234  -1.167  0.00  0.00    +0.008 A 
ATOM     32  C   UNL     1      -7.310  -7.135  -0.204  0.00  0.00    +0.045 A 
ATOM     33  S   UNL     1      -5.954  -6.938   0.940  0.00  0.00    -0.103 S 
ENDBRANCH  28  29
ENDBRANCH  26  28
BRANCH  26  34
ATOM     34  C   UNL     1      -4.703  -4.302   2.546  0.00  0.00    -0.046 C 
BRANCH  34  35
ATOM     35  C   UNL     1      -3.812  -5.363   3.195  0.00  0.00    +0.102 C 
ATOM     36  C   UNL     1      -4.531  -5.973   4.418  0.00  0.00    +0.032 C 
ATOM     37  C   UNL     1      -3.369  -6.133   5.437  0.00  0.00    +0.030 C 
ATOM     38  C   UNL     1      -2.500  -4.898   5.088  0.00  0.00    +0.160 C 
ATOM     39  O   UNL     1      -2.599  -4.761   3.660  0.00  0.00    -0.378 OA
ENDBRANCH  34  35
ENDBRANCH  26  34
ENDBRANCH   1  26
TORSDOF 9
