REMARK  Name = ZINC09072129
REMARK  5 active torsions:
REMARK  status: ('A' for Active; 'I' for Inactive)
REMARK    1  A    between atoms: C_1  and  C_2
REMARK    2  A    between atoms: C_5  and  C_30
REMARK    3  A    between atoms: C_6  and  N_8
REMARK    4  A    between atoms: C_9  and  C_11
REMARK    5  A    between atoms: C_22  and  C_24
REMARK                            x       y       z     vdW  Elec       q    Type
REMARK                         _______ _______ _______ _____ _____    ______ ____
ROOT
ATOM      1  C   UNL     1      -2.478  -2.828  -0.204  0.00  0.00    +0.125 C 
ATOM      2  C   UNL     1      -2.183  -4.324  -0.324  0.00  0.00    +0.019 C 
ATOM      3  C   UNL     1      -3.474  -5.094  -0.616  0.00  0.00    +0.006 C 
ATOM      4  C   UNL     1      -3.929  -4.768  -2.048  0.00  0.00    +0.044 C 
ATOM      5  C   UNL     1      -3.866  -3.290  -2.232  0.00  0.00    +0.015 A 
ATOM      6  C   UNL     1      -3.239  -2.375  -1.444  0.00  0.00    +0.066 A 
ATOM      7  N   UNL     1      -3.335  -1.108  -1.833  0.00  0.00    -0.229 NA
ATOM      8  C   UNL     1      -4.000  -0.753  -2.913  0.00  0.00    +0.165 A 
ATOM      9  S   UNL     1      -4.577  -2.282  -3.506  0.00  0.00    -0.057 S 
ATOM     10  N   UNL     1      -4.190   0.517  -3.443  0.00  0.00    -0.261 N 
ATOM     11  C   UNL     1      -4.910   0.675  -4.571  0.00  0.00    +0.250 C 
ATOM     12  O   UNL     1      -5.393  -0.293  -5.125  0.00  0.00    -0.270 OA
ATOM     13  H   UNL     1      -3.804   1.290  -3.001  0.00  0.00    +0.157 HD
ENDROOT
BRANCH  11  14
ATOM     14  C   UNL     1      -5.112   2.026  -5.135  0.00  0.00    +0.037 A 
ATOM     15  C   UNL     1      -4.564   3.141  -4.499  0.00  0.00    +0.013 A 
ATOM     16  C   UNL     1      -4.753   4.399  -5.033  0.00  0.00    +0.001 A 
ATOM     17  C   UNL     1      -5.492   4.558  -6.192  0.00  0.00    +0.000 A 
ATOM     18  C   UNL     1      -6.043   3.458  -6.825  0.00  0.00    +0.001 A 
ATOM     19  C   UNL     1      -5.857   2.194  -6.304  0.00  0.00    +0.013 A 
ENDBRANCH  11  14
BRANCH   1  21
ATOM     20  N   UNL     1      -1.199  -0.722   0.010  0.00  0.00    -0.285 N 
ATOM     21  C   UNL     1      -1.183  -2.065  -0.099  0.00  0.00    +0.226 C 
ATOM     22  O   UNL     1      -0.125  -2.659  -0.113  0.00  0.00    -0.275 OA
ATOM     23  H   UNL     1      -2.044  -0.252   0.086  0.00  0.00    +0.155 HD
BRANCH  20  29
ATOM     24  C   UNL     1       3.550  -0.429   1.248  0.00  0.00    +0.044 C 
ATOM     25  C   UNL     1       2.320   0.161   0.607  0.00  0.00    -0.049 A 
ATOM     26  C   UNL     1       2.379   1.412   0.021  0.00  0.00    +0.004 A 
ATOM     27  C   UNL     1       1.253   1.957  -0.568  0.00  0.00    +0.005 A 
ATOM     28  C   UNL     1       0.065   1.252  -0.574  0.00  0.00    -0.029 A 
ATOM     29  C   UNL     1       0.003  -0.005   0.014  0.00  0.00    +0.037 A 
ATOM     30  C   UNL     1       1.136  -0.549   0.605  0.00  0.00    +0.027 A 
ATOM     31  C   UNL     1      -1.160   1.843  -1.222  0.00  0.00    +0.045 C 
ENDBRANCH  20  29
ENDBRANCH   1  21
TORSDOF 3
