REMARK  Name = ZINC01736295
REMARK  8 active torsions:
REMARK  status: ('A' for Active; 'I' for Inactive)
REMARK    1  A    between atoms: C_1  and  C_2
REMARK    2  A    between atoms: C_2  and  C_3
REMARK    3  A    between atoms: C_2  and  C_4
REMARK    4  A    between atoms: C_4  and  C_5
REMARK    5  A    between atoms: C_5  and  C_7
REMARK    6  A    between atoms: C_5  and  N_49
REMARK    7  A    between atoms: N_9  and  C_10
REMARK    8  A    between atoms: C_10  and  C_20
REMARK                            x       y       z     vdW  Elec       q    Type
REMARK                         _______ _______ _______ _____ _____    ______ ____
ROOT
ATOM      1  C   UNL     1       3.448  -2.420   1.330  0.00  0.00    +0.199 C 
ATOM      2  O   UNL     1       3.921  -1.671   2.158  0.00  0.00    -0.278 OA
ATOM      3  N   UNL     1       2.909  -1.922   0.200  0.00  0.00    -0.301 N 
ATOM      4  H   UNL     1       2.530  -2.521  -0.462  0.00  0.00    +0.150 HD
ENDROOT
BRANCH   3   5
ATOM      5  C   UNL     1       2.894  -0.475  -0.028  0.00  0.00    +0.141 C 
ATOM      6  C   UNL     1       2.230  -0.178  -1.374  0.00  0.00    +0.024 C 
ATOM      7  C   UNL     1       0.795  -0.707  -1.363  0.00  0.00    +0.009 C 
ATOM      8  C   UNL     1       0.007  -0.023  -0.245  0.00  0.00    -0.010 C 
ATOM      9  C   UNL     1      -0.009   1.489  -0.483  0.00  0.00    +0.007 C 
ATOM     10  C   UNL     1       1.427   2.018  -0.494  0.00  0.00    -0.010 C 
ATOM     11  C   UNL     1       2.214   1.334  -1.613  0.00  0.00    +0.009 C 
ATOM     12  C   UNL     1       2.090   1.721   0.853  0.00  0.00    +0.009 C 
ATOM     13  C   UNL     1       2.106   0.210   1.091  0.00  0.00    +0.024 C 
ATOM     14  C   UNL     1       0.670  -0.320   1.102  0.00  0.00    +0.009 C 
BRANCH   5  15
ATOM     15  C   UNL     1       4.307   0.047  -0.039  0.00  0.00    +0.379 C 
ATOM     16  O   UNL     1       4.566   1.103   0.488  0.00  0.00    -0.244 OA
ATOM     17  O   UNL     1       5.280  -0.662  -0.633  0.00  0.00    -0.244 OA
ENDBRANCH   5  15
ENDBRANCH   3   5
BRANCH   1  18
ATOM     18  C   UNL     1       3.464  -3.909   1.565  0.00  0.00    +0.013 C 
BRANCH  18  21
ATOM     19  H   UNL     1       4.509  -3.787   3.334  0.00  0.00    -0.089 HD
ATOM     20  H   UNL     1       2.858  -3.828   3.531  0.00  0.00    -0.089 HD
ATOM     21  N   UNL     1       3.642  -4.202   2.998  0.00  0.00    +0.386 N 
ATOM     22  H   UNL     1       3.683  -5.219   3.131  0.00  0.00    -0.089 HD
ENDBRANCH  18  21
BRANCH  18  23
ATOM     23  C   UNL     1       4.619  -4.537   0.782  0.00  0.00    -0.004 C 
BRANCH  23  25
ATOM     24  C   UNL     1       3.287  -6.583   0.252  0.00  0.00    +0.007 C 
ATOM     25  C   UNL     1       4.560  -6.059   0.919  0.00  0.00    -0.018 C 
ATOM     26  C   UNL     1       5.783  -6.680   0.242  0.00  0.00    +0.007 C 
ENDBRANCH  23  25
ENDBRANCH  18  23
ENDBRANCH   1  18
TORSDOF 6
