REMARK  Name = ZINC20751252
REMARK  7 active torsions:
REMARK  status: ('A' for Active; 'I' for Inactive)
REMARK    1  A    between atoms: C_1  and  C_2
REMARK    2  A    between atoms: C_2  and  C_3
REMARK    3  A    between atoms: C_3  and  C_5
REMARK    4  A    between atoms: C_3  and  N_6
REMARK    5  A    between atoms: N_6  and  S_7
REMARK    6  A    between atoms: S_7  and  C_10
REMARK    7  A    between atoms: C_23  and  C_26
REMARK                            x       y       z     vdW  Elec       q    Type
REMARK                         _______ _______ _______ _____ _____    ______ ____
ROOT
ATOM      1  C   UNL     1      -3.426   3.478   1.738  0.00  0.00    +0.106 A 
ATOM      2  C   UNL     1      -4.234   2.391   1.454  0.00  0.00    +0.030 A 
ATOM      3  C   UNL     1      -5.296   2.094   2.284  0.00  0.00    +0.025 A 
ATOM      4  C   UNL     1      -5.558   2.891   3.391  0.00  0.00    +0.031 A 
ATOM      5  C   UNL     1      -4.754   3.983   3.678  0.00  0.00    -0.018 A 
ATOM      6  C   UNL     1      -3.685   4.269   2.839  0.00  0.00    +0.034 A 
ATOM      7  C   UNL     1      -4.994   4.866   4.861  0.00  0.00    +0.049 C 
ATOM      8  C   UNL     1      -5.600   6.187   4.450  0.00  0.00    -0.023 C 
ATOM      9  C   UNL     1      -6.463   6.590   5.351  0.00  0.00    -0.030 C 
ATOM     10  C   UNL     1      -6.545   5.593   6.491  0.00  0.00    +0.033 C 
ATOM     11  C   UNL     1      -6.011   4.275   5.856  0.00  0.00    +0.029 C 
ATOM     12  C   UNL     1      -7.174   3.632   5.094  0.00  0.00    +0.106 C 
ATOM     13  N   UNL     1      -6.644   2.582   4.218  0.00  0.00    -0.336 N 
ATOM     14  H   UNL     1      -7.101   1.581   4.221  0.00  0.00    +0.147 HD
ENDROOT
BRANCH  12  15
ATOM     15  C   UNL     1      -7.875   4.676   4.264  0.00  0.00    -0.009 A 
ATOM     16  C   UNL     1      -9.061   5.244   4.705  0.00  0.00    +0.008 A 
ATOM     17  C   UNL     1      -9.671   6.201   3.909  0.00  0.00    +0.020 A 
ATOM     18  C   UNL     1      -9.081   6.554   2.710  0.00  0.00    +0.111 A 
ATOM     19  N   UNL     1      -7.953   5.993   2.322  0.00  0.00    -0.263 NA
ATOM     20  C   UNL     1      -7.342   5.084   3.056  0.00  0.00    +0.116 A 
ENDBRANCH  12  15
BRANCH   1  21
ATOM     21  S   UNL     1      -2.065   3.858   0.686  0.00  0.00    +0.059 S 
ATOM     22  O   UNL     1      -1.796   5.242   0.854  0.00  0.00    -0.153 OA
ATOM     23  O   UNL     1      -2.361   3.288  -0.582  0.00  0.00    -0.153 OA
BRANCH  21  24
ATOM     24  N   UNL     1      -0.749   3.044   1.275  0.00  0.00    -0.187 NA
ATOM     25  H   UNL     1       0.029   3.602   1.817  0.00  0.00    +0.148 HD
BRANCH  24  26
ATOM     26  C   UNL     1      -0.729   1.579   1.267  0.00  0.00    +0.073 C 
ATOM     27  C   UNL     1      -0.013   1.086   0.008  0.00  0.00    +0.025 C 
BRANCH  26  29
ATOM     28  C   UNL     1      -0.772   1.460   3.762  0.00  0.00    +0.005 C 
ATOM     29  C   UNL     1       0.011   1.072   2.506  0.00  0.00    +0.017 C 
ENDBRANCH  26  29
ENDBRANCH  24  26
ENDBRANCH  21  24
ENDBRANCH   1  21
TORSDOF 5
