REMARK  Name = ZINC04537724
REMARK  7 active torsions:
REMARK  status: ('A' for Active; 'I' for Inactive)
REMARK    1  A    between atoms: C_4  and  N_7
REMARK    2  A    between atoms: C_8  and  C_10
REMARK    3  A    between atoms: C_13  and  C_16
REMARK    4  A    between atoms: C_16  and  S_17
REMARK    5  A    between atoms: S_17  and  C_18
REMARK    6  A    between atoms: C_21  and  C_24
REMARK    7  A    between atoms: N_22  and  N_23
REMARK                            x       y       z     vdW  Elec       q    Type
REMARK                         _______ _______ _______ _____ _____    ______ ____
ROOT
ATOM      1  C   UNL     1      -9.289  -4.619   0.560  0.00  0.00    +0.037 A 
ATOM      2  C   UNL     1      -8.812  -4.189  -0.679  0.00  0.00    +0.013 A 
ATOM      3  C   UNL     1      -7.479  -3.861  -0.826  0.00  0.00    +0.005 A 
ATOM      4  C   UNL     1      -6.618  -3.958   0.253  0.00  0.00    -0.037 A 
ATOM      5  C   UNL     1      -7.084  -4.389   1.482  0.00  0.00    +0.005 A 
ATOM      6  C   UNL     1      -8.415  -4.715   1.643  0.00  0.00    +0.013 A 
ENDROOT
BRANCH   1   8
ATOM      7  N   UNL     1     -11.174  -5.386   1.921  0.00  0.00    -0.282 N 
ATOM      8  C   UNL     1     -10.715  -4.971   0.724  0.00  0.00    +0.248 C 
ATOM      9  O   UNL     1     -11.475  -4.887  -0.222  0.00  0.00    -0.270 OA
ATOM     10  H   UNL     1     -10.556  -5.518   2.658  0.00  0.00    +0.155 HD
BRANCH   7  14
ATOM     11  C   UNL     1     -15.241  -6.103   2.460  0.00  0.00    +0.000 A 
ATOM     12  C   UNL     1     -14.645  -6.389   1.245  0.00  0.00    +0.002 A 
ATOM     13  C   UNL     1     -13.297  -6.152   1.063  0.00  0.00    +0.023 A 
ATOM     14  C   UNL     1     -12.539  -5.627   2.102  0.00  0.00    +0.034 A 
ATOM     15  C   UNL     1     -13.140  -5.347   3.323  0.00  0.00    +0.023 A 
ATOM     16  C   UNL     1     -14.490  -5.580   3.496  0.00  0.00    +0.002 A 
ENDBRANCH   7  14
ENDBRANCH   1   8
BRANCH   4  17
ATOM     17  C   UNL     1      -5.164  -3.599   0.086  0.00  0.00    +0.112 C 
BRANCH  17  18
ATOM     18  S   UNL     1      -4.932  -1.839   0.444  0.00  0.00    -0.080 S 
BRANCH  18  19
ATOM     19  C   UNL     1      -3.196  -1.699   0.179  0.00  0.00    +0.209 A 
ATOM     20  N   UNL     1      -2.382  -2.666  -0.179  0.00  0.00    -0.120 NA
ATOM     21  N   UNL     1      -1.183  -2.218  -0.289  0.00  0.00    -0.123 NA
ATOM     22  C   UNL     1      -1.155  -0.935   0.003  0.00  0.00    +0.217 A 
ATOM     23  N   UNL     1      -2.446  -0.564   0.308  0.00  0.00    -0.221 N 
BRANCH  22  24
ATOM     24  C   UNL     1       0.029  -0.062  -0.003  0.00  0.00    +0.173 A 
ATOM     25  C   UNL     1       1.328  -0.475  -0.022  0.00  0.00    +0.053 A 
ATOM     26  C   UNL     1       2.123   0.687  -0.021  0.00  0.00    +0.042 A 
ATOM     27  C   UNL     1       1.282   1.741  -0.001  0.00  0.00    +0.196 A 
ATOM     28  O   UNL     1       0.019   1.285   0.010  0.00  0.00    -0.460 OA
ENDBRANCH  22  24
BRANCH  23  29
ATOM     29  N   UNL     1      -2.885   0.680   0.664  0.00  0.00    -0.294 N 
ATOM     30  H   UNL     1      -3.156   1.214  -0.148  0.00  0.00    +0.163 HD
ATOM     31  H   UNL     1      -3.643   0.620   1.327  0.00  0.00    +0.163 HD
ENDBRANCH  23  29
ENDBRANCH  18  19
ENDBRANCH  17  18
ENDBRANCH   4  17
TORSDOF 7
