REMARK  Name = ZINC08918642
REMARK  10 active torsions:
REMARK  status: ('A' for Active; 'I' for Inactive)
REMARK    1  A    between atoms: C_1  and  C_2
REMARK    2  A    between atoms: C_8  and  C_9
REMARK    3  A    between atoms: C_8  and  N_70
REMARK    4  A    between atoms: N_11  and  C_12
REMARK    5  A    between atoms: C_13  and  C_26
REMARK    6  A    between atoms: C_18  and  C_22
REMARK    7  A    between atoms: C_22  and  C_23
REMARK    8  A    between atoms: C_22  and  C_24
REMARK    9  A    between atoms: C_22  and  C_25
REMARK   10  A    between atoms: N_28  and  C_29
REMARK                            x       y       z     vdW  Elec       q    Type
REMARK                         _______ _______ _______ _____ _____    ______ ____
ROOT
ATOM      1  C   UNL     1       5.169   1.755  -2.061  0.00  0.00    +0.084 A 
ATOM      2  C   UNL     1       4.702   2.506  -0.991  0.00  0.00    +0.069 A 
ATOM      3  C   UNL     1       5.361   2.330   0.292  0.00  0.00    -0.023 A 
ATOM      4  C   UNL     1       6.379   1.442   0.298  0.00  0.00    -0.004 A 
ATOM      5  S   UNL     1       6.468   0.844  -1.365  0.00  0.00    -0.077 S 
ATOM      6  C   UNL     1       7.236   1.059   1.466  0.00  0.00    +0.046 C 
ATOM      7  C   UNL     1       7.034   2.100   2.576  0.00  0.00    -0.000 C 
ATOM      8  C   UNL     1       5.532   2.332   2.768  0.00  0.00    +0.009 C 
ATOM      9  C   UNL     1       4.961   3.075   1.560  0.00  0.00    +0.037 C 
ENDROOT
BRANCH   1  12
ATOM     10  C   UNL     1       5.294   0.937  -4.279  0.00  0.00    +0.201 C 
ATOM     11  O   UNL     1       6.223   0.228  -3.954  0.00  0.00    -0.278 OA
ATOM     12  N   UNL     1       4.709   1.740  -3.368  0.00  0.00    -0.281 N 
ATOM     13  H   UNL     1       3.966   2.307  -3.628  0.00  0.00    +0.155 HD
BRANCH  10  14
ATOM     14  C   UNL     1       4.794   0.919  -5.700  0.00  0.00    +0.019 C 
BRANCH  14  21
ATOM     15  C   UNL     1       4.173  -1.798  -6.080  0.00  0.00    -0.013 C 
ATOM     16  C   UNL     1       5.626  -1.321  -6.087  0.00  0.00    -0.071 C 
ATOM     17  C   UNL     1       6.443  -2.185  -7.050  0.00  0.00    -0.016 C 
ATOM     18  C   UNL     1       7.892  -1.690  -7.069  0.00  0.00    -0.003 C 
ATOM     19  C   UNL     1       7.914  -0.215  -7.477  0.00  0.00    -0.019 C 
ATOM     20  C   UNL     1       7.055   0.593  -6.501  0.00  0.00    -0.078 C 
ATOM     21  N   UNL     1       5.668   0.083  -6.549  0.00  0.00    +0.387 N 
ATOM     22  H   UNL     1       5.331   0.125  -7.518  0.00  0.00    -0.081 HD
ENDBRANCH  14  21
ENDBRANCH  10  14
ENDBRANCH   1  12
BRANCH   7  23
ATOM     23  C   UNL     1       7.644   1.584   3.881  0.00  0.00    -0.035 C 
ATOM     24  C   UNL     1       9.141   1.337   3.680  0.00  0.00    +0.011 C 
ATOM     25  C   UNL     1       7.442   2.623   4.985  0.00  0.00    +0.011 C 
ATOM     26  C   UNL     1       6.961   0.275   4.280  0.00  0.00    +0.011 C 
ENDBRANCH   7  23
BRANCH   2  27
ATOM     27  C   UNL     1       3.581   3.438  -1.148  0.00  0.00    +0.251 C 
ATOM     28  O   UNL     1       3.791   4.597  -1.455  0.00  0.00    -0.270 OA
ATOM     29  N   UNL     1       2.317   3.011  -0.953  0.00  0.00    -0.281 N 
ATOM     30  H   UNL     1       2.154   2.107  -0.641  0.00  0.00    +0.155 HD
BRANCH  29  31
ATOM     31  C   UNL     1       1.242   3.872  -1.200  0.00  0.00    +0.034 A 
ATOM     32  C   UNL     1       1.351   5.224  -0.902  0.00  0.00    +0.025 A 
ATOM     33  C   UNL     1       0.286   6.070  -1.141  0.00  0.00    +0.022 A 
ATOM     34  C   UNL     1      -0.884   5.574  -1.689  0.00  0.00    +0.041 A 
ATOM     35  C   UNL     1      -0.995   4.227  -1.987  0.00  0.00    +0.022 A 
ATOM     36  C   UNL     1       0.065   3.375  -1.744  0.00  0.00    +0.025 A 
ATOM     37 CL   UNL     1      -2.219   6.641  -1.994  0.00  0.00    -0.084 Cl
ENDBRANCH  29  31
ENDBRANCH   2  27
TORSDOF 6
