REMARK  Name = ZINC49401250
REMARK  7 active torsions:
REMARK  status: ('A' for Active; 'I' for Inactive)
REMARK    1  A    between atoms: C_1  and  C_2
REMARK    2  A    between atoms: C_3  and  N_9
REMARK    3  A    between atoms: C_10  and  C_12
REMARK    4  A    between atoms: C_12  and  S_13
REMARK    5  A    between atoms: S_13  and  C_14
REMARK    6  A    between atoms: C_22  and  C_25
REMARK    7  A    between atoms: N_27  and  C_28
REMARK                            x       y       z     vdW  Elec       q    Type
REMARK                         _______ _______ _______ _____ _____    ______ ____
ROOT
ATOM      1  C   UNL     1       0.425  -0.023  -7.682  0.00  0.00    +0.120 A 
ATOM      2  C   UNL     1       0.532  -0.590  -8.953  0.00  0.00    +0.040 A 
ATOM      3  C   UNL     1       0.610   0.263 -10.040  0.00  0.00    +0.051 A 
ATOM      4  C   UNL     1       0.578   1.637  -9.797  0.00  0.00    +0.161 A 
ATOM      5  N   UNL     1       0.475   2.085  -8.557  0.00  0.00    -0.130 NA
ATOM      6  N   UNL     1       0.397   1.295  -7.549  0.00  0.00    -0.141 NA
ATOM      7  N   UNL     1       0.655   2.539 -10.865  0.00  0.00    -0.288 N 
ATOM      8  C   UNL     1       0.736   3.895 -10.768  0.00  0.00    +0.127 A 
ATOM      9  C   UNL     1       0.792   4.378 -12.043  0.00  0.00    +0.143 A 
ATOM     10  N   UNL     1       0.745   3.315 -12.887  0.00  0.00    -0.231 NA
ATOM     11  C   UNL     1       0.668   2.220 -12.188  0.00  0.00    +0.206 A 
ENDROOT
BRANCH   9  12
ATOM     12  C   UNL     1       0.887   5.795 -12.433  0.00  0.00    +0.264 C 
ATOM     13  O   UNL     1       0.921   6.660 -11.578  0.00  0.00    -0.268 OA
ATOM     14  N   UNL     1       0.935   6.133 -13.737  0.00  0.00    -0.313 N 
ATOM     15  C   UNL     1       1.029   7.543 -14.124  0.00  0.00    +0.128 C 
ATOM     16  H   UNL     1       0.907   5.444 -14.418  0.00  0.00    +0.149 HD
ENDBRANCH   9  12
BRANCH   1  17
ATOM     17  S   UNL     1       0.322  -1.057  -6.259  0.00  0.00    -0.095 S 
BRANCH  17  18
ATOM     18  C   UNL     1       0.192   0.111  -4.876  0.00  0.00    +0.172 C 
BRANCH  18  20
ATOM     19  N   UNL     1      -0.010   0.011  -2.413  0.00  0.00    -0.285 N 
ATOM     20  C   UNL     1       0.095  -0.653  -3.581  0.00  0.00    +0.227 C 
ATOM     21  O   UNL     1       0.112  -1.866  -3.590  0.00  0.00    -0.275 OA
ATOM     22  H   UNL     1      -0.104   0.977  -2.411  0.00  0.00    +0.155 HD
BRANCH  19  25
ATOM     23  C   UNL     1      -1.263   1.190  -0.146  0.00  0.00    +0.047 C 
ATOM     24  C   UNL     1      -0.583  -0.153  -0.073  0.00  0.00    -0.011 A 
ATOM     25  C   UNL     1       0.017  -0.692  -1.204  0.00  0.00    +0.038 A 
ATOM     26  C   UNL     1       0.642  -1.929  -1.132  0.00  0.00    +0.023 A 
ATOM     27  C   UNL     1       0.667  -2.621   0.064  0.00  0.00    +0.003 A 
ATOM     28  C   UNL     1       0.069  -2.084   1.188  0.00  0.00    +0.020 A 
ATOM     29  C   UNL     1      -0.550  -0.848   1.122  0.00  0.00    +0.046 A 
ATOM     30 CL   UNL     1      -1.293  -0.173   2.538  0.00  0.00    -0.083 Cl
ENDBRANCH  19  25
ENDBRANCH  18  20
ENDBRANCH  17  18
ENDBRANCH   1  17
TORSDOF 5
