REMARK  Name = ZINC10125368
REMARK  9 active torsions:
REMARK  status: ('A' for Active; 'I' for Inactive)
REMARK    1  A    between atoms: C_4  and  C_7
REMARK    2  A    between atoms: C_7  and  N_8
REMARK    3  A    between atoms: N_8  and  C_9
REMARK    4  A    between atoms: C_12  and  C_18
REMARK    5  A    between atoms: C_14  and  N_15
REMARK    6  A    between atoms: C_18  and  O_20
REMARK    7  A    between atoms: O_20  and  C_21
REMARK    8  A    between atoms: C_21  and  C_23
REMARK    9  A    between atoms: C_21  and  C_29
REMARK                            x       y       z     vdW  Elec       q    Type
REMARK                         _______ _______ _______ _____ _____    ______ ____
ROOT
ATOM      1  C   UNL     1       5.305  -1.620  -1.693  0.00  0.00    +0.058 A 
ATOM      2  C   UNL     1       6.155  -1.975  -0.649  0.00  0.00    +0.026 A 
ATOM      3  C   UNL     1       7.334  -2.613  -0.908  0.00  0.00    +0.017 A 
ATOM      4  C   UNL     1       7.692  -2.913  -2.227  0.00  0.00    +0.061 A 
ATOM      5  C   UNL     1       6.840  -2.558  -3.278  0.00  0.00    +0.049 A 
ATOM      6  C   UNL     1       5.651  -1.920  -3.008  0.00  0.00    +0.148 A 
ENDROOT
BRANCH   6   7
ATOM      7  N   UNL     1       4.743  -1.547  -4.116  0.00  0.00    +0.058 N 
ATOM      8  O   UNL     1       4.992  -1.903  -5.254  0.00  0.00    -0.126 OA
ATOM      9  O   UNL     1       3.746  -0.885  -3.890  0.00  0.00    -0.126 OA
ENDBRANCH   6   7
BRANCH   1  10
ATOM     10  N   UNL     1       4.106  -0.970  -1.422  0.00  0.00    -0.338 N 
ATOM     11  H   UNL     1       3.554  -0.649  -2.151  0.00  0.00    +0.146 HD
BRANCH  10  12
ATOM     12  C   UNL     1       3.678  -0.772  -0.035  0.00  0.00    +0.137 C 
BRANCH  12  16
ATOM     13  C   UNL     1      -0.068   1.279   0.018  0.00  0.00    +0.000 A 
ATOM     14  C   UNL     1       1.113   1.997   0.037  0.00  0.00    +0.000 A 
ATOM     15  C   UNL     1       2.325   1.333   0.019  0.00  0.00    +0.005 A 
ATOM     16  C   UNL     1       2.357  -0.048  -0.017  0.00  0.00    -0.030 A 
ATOM     17  C   UNL     1       1.175  -0.766  -0.035  0.00  0.00    +0.005 A 
ATOM     18  C   UNL     1      -0.037  -0.102  -0.018  0.00  0.00    +0.000 A 
ENDBRANCH  12  16
ENDBRANCH  10  12
ENDBRANCH   1  10
BRANCH   4  19
ATOM     19  C   UNL     1       8.964  -3.602  -2.508  0.00  0.00    +0.340 C 
ATOM     20  O   UNL     1       9.274  -3.862  -3.654  0.00  0.00    -0.245 OA
BRANCH  19  21
ATOM     21  O   UNL     1       9.784  -3.943  -1.494  0.00  0.00    -0.444 OA
BRANCH  21  22
ATOM     22  C   UNL     1      11.021  -4.618  -1.845  0.00  0.00    +0.292 C 
BRANCH  22  23
ATOM     23  C   UNL     1      12.082  -4.282  -0.830  0.00  0.00    +0.002 A 
ATOM     24  C   UNL     1      11.757  -4.204   0.511  0.00  0.00    +0.008 A 
ATOM     25  C   UNL     1      12.732  -3.900   1.443  0.00  0.00    +0.000 A 
ATOM     26  C   UNL     1      14.030  -3.665   1.033  0.00  0.00    +0.000 A 
ATOM     27  C   UNL     1      14.355  -3.737  -0.309  0.00  0.00    +0.000 A 
ATOM     28  C   UNL     1      13.381  -4.046  -1.240  0.00  0.00    +0.008 A 
ENDBRANCH  22  23
BRANCH  22  29
ATOM     29  C   UNL     1      10.793  -6.108  -1.859  0.00  0.00    +0.256 C 
ATOM     30  O   UNL     1       9.696  -6.556  -1.598  0.00  0.00    -0.272 OA
ATOM     31  N   UNL     1      11.807  -6.942  -2.160  0.00  0.00    -0.326 N 
ATOM     32  H   UNL     1      12.684  -6.584  -2.368  0.00  0.00    +0.145 HD
ATOM     33  H   UNL     1      11.661  -7.901  -2.169  0.00  0.00    +0.145 HD
ENDBRANCH  22  29
ENDBRANCH  21  22
ENDBRANCH  19  21
ENDBRANCH   4  19
TORSDOF 9
