REMARK  Name = ZINC59418278
REMARK  5 active torsions:
REMARK  status: ('A' for Active; 'I' for Inactive)
REMARK    1  A    between atoms: C_6  and  C_7
REMARK    2  A    between atoms: C_7  and  O_8
REMARK    3  A    between atoms: O_8  and  C_9
REMARK    4  A    between atoms: C_12  and  C_15
REMARK    5  A    between atoms: N_16  and  N_17
REMARK                            x       y       z     vdW  Elec       q    Type
REMARK                         _______ _______ _______ _____ _____    ______ ____
ROOT
ATOM      1  N   UNL     1      -8.127  -4.809  -3.411  0.00  0.00    -0.205 N 
ATOM      2  C   UNL     1      -8.590  -5.077  -4.684  0.00  0.00    +0.241 A 
ATOM      3  N   UNL     1      -7.899  -4.666  -5.743  0.00  0.00    -0.180 NA
ATOM      4  C   UNL     1      -8.345  -4.923  -6.968  0.00  0.00    +0.224 A 
ATOM      5  N   UNL     1      -9.482  -5.592  -7.135  0.00  0.00    -0.181 NA
ATOM      6  C   UNL     1     -10.173  -6.003  -6.076  0.00  0.00    +0.224 A 
ATOM      7  N   UNL     1      -9.725  -5.750  -4.851  0.00  0.00    -0.180 NA
ATOM      8  N   UNL     1     -11.354  -6.696  -6.250  0.00  0.00    -0.299 N 
ATOM      9  C   UNL     1     -11.957  -7.052  -7.543  0.00  0.00    +0.108 C 
ATOM     10  C   UNL     1     -13.276  -7.795  -7.244  0.00  0.00    +0.020 C 
ATOM     11  C   UNL     1     -13.625  -7.320  -5.809  0.00  0.00    +0.020 C 
ATOM     12  C   UNL     1     -12.216  -7.208  -5.169  0.00  0.00    +0.108 C 
ATOM     13  N   UNL     1      -7.628  -4.497  -8.067  0.00  0.00    -0.299 N 
ATOM     14  C   UNL     1      -8.007  -4.707  -9.472  0.00  0.00    +0.108 C 
ATOM     15  C   UNL     1      -6.897  -4.083 -10.345  0.00  0.00    +0.020 C 
ATOM     16  C   UNL     1      -5.676  -4.056  -9.387  0.00  0.00    +0.020 C 
ATOM     17  C   UNL     1      -6.357  -3.749  -8.027  0.00  0.00    +0.108 C 
ATOM     18  H   UNL     1      -8.629  -5.113  -2.638  0.00  0.00    +0.177 HD
ENDROOT
BRANCH   1  20
ATOM     19  C   UNL     1      -6.497  -3.848  -2.038  0.00  0.00    +0.138 C 
ATOM     20  N   UNL     1      -6.932  -4.100  -3.235  0.00  0.00    -0.188 NA
BRANCH  19  24
ATOM     21  C   UNL     1      -2.874  -1.699  -1.505  0.00  0.00    +0.121 A 
ATOM     22  C   UNL     1      -3.592  -2.131  -0.397  0.00  0.00    +0.046 A 
ATOM     23  C   UNL     1      -4.769  -2.829  -0.566  0.00  0.00    +0.013 A 
ATOM     24  C   UNL     1      -5.239  -3.101  -1.853  0.00  0.00    -0.005 A 
ATOM     25  C   UNL     1      -4.514  -2.664  -2.964  0.00  0.00    +0.013 A 
ATOM     26  C   UNL     1      -3.341  -1.962  -2.786  0.00  0.00    +0.046 A 
BRANCH  21  27
ATOM     27  O   UNL     1      -1.715  -1.011  -1.334  0.00  0.00    -0.487 OA
BRANCH  27  28
ATOM     28  C   UNL     1      -1.293  -0.775   0.010  0.00  0.00    +0.264 C 
BRANCH  28  34
ATOM     29  C   UNL     1      -0.017   1.378   0.010  0.00  0.00    +0.010 A 
ATOM     30  C   UNL     1       1.170   2.086   0.002  0.00  0.00    +0.039 A 
ATOM     31  C   UNL     1       2.379   1.410  -0.013  0.00  0.00    +0.123 A 
ATOM     32  C   UNL     1       2.396   0.026  -0.021  0.00  0.00    +0.039 A 
ATOM     33  C   UNL     1       1.208  -0.680  -0.013  0.00  0.00    +0.010 A 
ATOM     34  C   UNL     1       0.002  -0.004   0.002  0.00  0.00    -0.010 A 
ATOM     35  F   UNL     1       3.540   2.101  -0.021  0.00  0.00    -0.205 F 
ENDBRANCH  28  34
ENDBRANCH  27  28
ENDBRANCH  21  27
ENDBRANCH  19  24
ENDBRANCH   1  20
TORSDOF 5
