REMARK  Name = ZINC17042693
REMARK  7 active torsions:
REMARK  status: ('A' for Active; 'I' for Inactive)
REMARK    1  A    between atoms: C_1  and  C_2
REMARK    2  A    between atoms: C_2  and  O_3
REMARK    3  A    between atoms: O_3  and  C_4
REMARK    4  A    between atoms: C_7  and  C_10
REMARK    5  A    between atoms: N_19  and  C_22
REMARK    6  A    between atoms: C_22  and  C_23
REMARK    7  A    between atoms: N_31  and  C_32
REMARK                            x       y       z     vdW  Elec       q    Type
REMARK                         _______ _______ _______ _____ _____    ______ ____
ROOT
ATOM      1  C   UNL     1       1.109  -6.040  -1.847  0.00  0.00    +0.130 C 
ATOM      2  C   UNL     1       0.068  -6.542  -2.864  0.00  0.00    +0.082 C 
ATOM      3  C   UNL     1       0.893  -7.141  -3.980  0.00  0.00    +0.041 C 
ATOM      4  C   UNL     1       0.391  -7.725  -5.129  0.00  0.00    +0.119 C 
ATOM      5  C   UNL     1      -1.062  -7.813  -5.379  0.00  0.00    +0.278 C 
ATOM      6  N   UNL     1      -1.479  -8.393  -6.516  0.00  0.00    -0.123 NA
ATOM      7  C   UNL     1      -0.640  -8.876  -7.397  0.00  0.00    +0.336 C 
ATOM      8  O   UNL     1      -1.143  -9.441  -8.512  0.00  0.00    -0.250 OA
ATOM      9  N   UNL     1       0.710  -8.840  -7.251  0.00  0.00    -0.216 N 
ATOM     10  C   UNL     1       1.280  -8.283  -6.161  0.00  0.00    +0.261 C 
ATOM     11  O   UNL     1       2.490  -8.246  -6.035  0.00  0.00    -0.269 OA
ATOM     12  O   UNL     1      -1.863  -7.370  -4.573  0.00  0.00    -0.268 OA
ATOM     13  N   UNL     1       2.192  -7.014  -3.673  0.00  0.00    -0.267 N 
ATOM     14  N   UNL     1       2.406  -6.384  -2.446  0.00  0.00    -0.246 N 
ATOM     15  H   UNL     1       2.910  -7.328  -4.245  0.00  0.00    +0.170 HD
ENDROOT
BRANCH   1  19
ATOM     16  C   UNL     1       0.777  -1.810  -1.336  0.00  0.00    +0.121 A 
ATOM     17  C   UNL     1       0.243  -2.669  -0.386  0.00  0.00    +0.046 A 
ATOM     18  C   UNL     1       0.351  -4.036  -0.554  0.00  0.00    +0.009 A 
ATOM     19  C   UNL     1       0.992  -4.548  -1.667  0.00  0.00    -0.025 A 
ATOM     20  C   UNL     1       1.525  -3.694  -2.615  0.00  0.00    +0.009 A 
ATOM     21  C   UNL     1       1.414  -2.327  -2.455  0.00  0.00    +0.046 A 
BRANCH  16  22
ATOM     22  O   UNL     1       0.671  -0.465  -1.174  0.00  0.00    -0.492 OA
BRANCH  22  24
ATOM     23  C   UNL     1      -0.019   1.526   0.010  0.00  0.00    +0.048 C 
ATOM     24  C   UNL     1       0.002  -0.004   0.002  0.00  0.00    +0.225 C 
ENDBRANCH  22  24
ENDBRANCH  16  22
ENDBRANCH   1  19
BRANCH  14  25
ATOM     25  C   UNL     1       3.654  -6.120  -1.877  0.00  0.00    +0.048 A 
ATOM     26  C   UNL     1       3.736  -5.488  -0.642  0.00  0.00    +0.025 A 
ATOM     27  C   UNL     1       4.972  -5.229  -0.082  0.00  0.00    +0.002 A 
ATOM     28  C   UNL     1       6.126  -5.598  -0.749  0.00  0.00    +0.000 A 
ATOM     29  C   UNL     1       6.048  -6.227  -1.977  0.00  0.00    +0.002 A 
ATOM     30  C   UNL     1       4.815  -6.495  -2.541  0.00  0.00    +0.025 A 
ENDBRANCH  14  25
BRANCH   9  31
ATOM     31  C   UNL     1       1.563  -9.410  -8.297  0.00  0.00    +0.153 C 
BRANCH  31  32
ATOM     32  C   UNL     1       1.892  -8.345  -9.312  0.00  0.00    -0.030 A 
ATOM     33  C   UNL     1       1.067  -8.153 -10.404  0.00  0.00    +0.005 A 
ATOM     34  C   UNL     1       1.369  -7.176 -11.335  0.00  0.00    +0.000 A 
ATOM     35  C   UNL     1       2.497  -6.392 -11.173  0.00  0.00    +0.000 A 
ATOM     36  C   UNL     1       3.321  -6.584 -10.080  0.00  0.00    +0.000 A 
ATOM     37  C   UNL     1       3.016  -7.558  -9.147  0.00  0.00    +0.005 A 
ENDBRANCH  31  32
ENDBRANCH   9  31
TORSDOF 6
