REMARK  Name = ZINC10367055
REMARK  8 active torsions:
REMARK  status: ('A' for Active; 'I' for Inactive)
REMARK    1  A    between atoms: C_1  and  C_2
REMARK    2  A    between atoms: C_6  and  N_32
REMARK    3  A    between atoms: C_7  and  N_8
REMARK    4  A    between atoms: C_9  and  C_11
REMARK    5  A    between atoms: C_11  and  S_12
REMARK    6  A    between atoms: S_12  and  C_13
REMARK    7  A    between atoms: N_23  and  C_24
REMARK    8  A    between atoms: C_29  and  C_30
REMARK                            x       y       z     vdW  Elec       q    Type
REMARK                         _______ _______ _______ _____ _____    ______ ____
ROOT
ATOM      1  C   UNL     1      -1.304  -1.557   1.459  0.00  0.00    +0.177 A 
ATOM      2  N   UNL     1      -1.205  -0.567   0.606  0.00  0.00    -0.223 NA
ATOM      3  C   UNL     1      -0.019   0.034   0.353  0.00  0.00    +0.079 A 
ATOM      4  C   UNL     1       0.088   1.089  -0.557  0.00  0.00    +0.028 A 
ATOM      5  C   UNL     1       1.306   1.667  -0.782  0.00  0.00    +0.002 A 
ATOM      6  C   UNL     1       2.442   1.222  -0.118  0.00  0.00    +0.001 A 
ATOM      7  C   UNL     1       2.369   0.191   0.778  0.00  0.00    +0.015 A 
ATOM      8  C   UNL     1       1.139  -0.417   1.026  0.00  0.00    +0.065 A 
ATOM      9  C   UNL     1       1.001  -1.527   1.978  0.00  0.00    +0.267 A 
ATOM     10  O   UNL     1       1.962  -1.959   2.588  0.00  0.00    -0.267 OA
ATOM     11  N   UNL     1      -0.234  -2.053   2.152  0.00  0.00    -0.255 N 
ENDROOT
BRANCH  11  12
ATOM     12  C   UNL     1      -0.418  -3.113   3.049  0.00  0.00    +0.056 A 
ATOM     13  C   UNL     1      -0.719  -2.854   4.380  0.00  0.00    +0.027 A 
ATOM     14  C   UNL     1      -0.900  -3.901   5.262  0.00  0.00    +0.003 A 
ATOM     15  C   UNL     1      -0.783  -5.206   4.822  0.00  0.00    +0.020 A 
ATOM     16  C   UNL     1      -0.484  -5.468   3.497  0.00  0.00    +0.046 A 
ATOM     17  C   UNL     1      -0.306  -4.424   2.608  0.00  0.00    -0.008 A 
ATOM     18  C   UNL     1       0.014  -4.709   1.163  0.00  0.00    +0.047 C 
ATOM     19 CL   UNL     1      -0.338  -7.109   2.948  0.00  0.00    -0.083 Cl
ENDBRANCH  11  12
BRANCH   1  20
ATOM     20  S   UNL     1      -2.888  -2.281   1.727  0.00  0.00    -0.078 S 
BRANCH  20  21
ATOM     21  C   UNL     1      -3.887  -1.277   0.600  0.00  0.00    +0.173 C 
BRANCH  21  23
ATOM     22  N   UNL     1      -6.255  -1.122  -0.098  0.00  0.00    -0.283 N 
ATOM     23  C   UNL     1      -5.322  -1.730   0.662  0.00  0.00    +0.228 C 
ATOM     24  O   UNL     1      -5.639  -2.642   1.397  0.00  0.00    -0.275 OA
ATOM     25  H   UNL     1      -6.016  -0.349  -0.632  0.00  0.00    +0.155 HD
BRANCH  22  32
ATOM     26  C   UNL     1      -6.659  -3.886  -0.638  0.00  0.00    +0.046 C 
ATOM     27  C   UNL     1      -7.809  -2.949  -0.375  0.00  0.00    -0.027 A 
ATOM     28  C   UNL     1      -9.106  -3.425  -0.392  0.00  0.00    +0.005 A 
ATOM     29  C   UNL     1     -10.162  -2.566  -0.152  0.00  0.00    +0.003 A 
ATOM     30  C   UNL     1      -9.925  -1.228   0.106  0.00  0.00    +0.034 A 
ATOM     31  C   UNL     1      -8.630  -0.747   0.131  0.00  0.00    +0.148 A 
ATOM     32  C   UNL     1      -7.567  -1.607  -0.116  0.00  0.00    +0.067 A 
BRANCH  31  33
ATOM     33  N   UNL     1      -8.376   0.683   0.413  0.00  0.00    +0.058 N 
ATOM     34  O   UNL     1      -9.309   1.458   0.522  0.00  0.00    -0.126 OA
ATOM     35  O   UNL     1      -7.233   1.086   0.537  0.00  0.00    -0.126 OA
ENDBRANCH  31  33
ENDBRANCH  22  32
ENDBRANCH  21  23
ENDBRANCH  20  21
ENDBRANCH   1  20
TORSDOF 6
