REMARK  Name = ZINC14008416
REMARK  10 active torsions:
REMARK  status: ('A' for Active; 'I' for Inactive)
REMARK    1  A    between atoms: C_1  and  C_2
REMARK    2  A    between atoms: C_5  and  C_28
REMARK    3  A    between atoms: C_6  and  O_8
REMARK    4  A    between atoms: O_8  and  C_9
REMARK    5  A    between atoms: C_9  and  C_11
REMARK    6  A    between atoms: C_9  and  C_12
REMARK    7  A    between atoms: N_14  and  N_15
REMARK    8  A    between atoms: C_16  and  C_18
REMARK    9  A    between atoms: C_21  and  N_24
REMARK   10  A    between atoms: C_25  and  C_27
REMARK                            x       y       z     vdW  Elec       q    Type
REMARK                         _______ _______ _______ _____ _____    ______ ____
ROOT
ATOM      1  C   UNL     1      -4.440   6.364  -0.102  0.00  0.00    +0.270 C 
ATOM      2  O   UNL     1      -3.338   6.825  -0.309  0.00  0.00    -0.270 OA
ATOM      3  N   UNL     1      -4.633   5.030  -0.151  0.00  0.00    -0.231 N 
ATOM      4  H   UNL     1      -5.514   4.661   0.015  0.00  0.00    +0.173 HD
ENDROOT
BRANCH   3   5
ATOM      5  N   UNL     1      -3.560   4.178  -0.442  0.00  0.00    -0.230 N 
ATOM      6  C   UNL     1      -3.752   2.845  -0.491  0.00  0.00    +0.260 C 
ATOM      7  O   UNL     1      -4.857   2.382  -0.283  0.00  0.00    -0.269 OA
ATOM      8  H   UNL     1      -2.678   4.547  -0.608  0.00  0.00    +0.173 HD
BRANCH   6   9
ATOM      9  C   UNL     1      -2.622   1.947  -0.798  0.00  0.00    +0.038 A 
ATOM     10  C   UNL     1      -2.820   0.565  -0.850  0.00  0.00    +0.015 A 
ATOM     11  C   UNL     1      -1.763  -0.270  -1.137  0.00  0.00    +0.024 A 
ATOM     12  C   UNL     1      -0.500   0.261  -1.375  0.00  0.00    +0.033 A 
ATOM     13  C   UNL     1      -0.298   1.636  -1.319  0.00  0.00    +0.024 A 
ATOM     14  C   UNL     1      -1.351   2.477  -1.038  0.00  0.00    +0.015 A 
BRANCH  12  15
ATOM     15  N   UNL     1       0.568  -0.587  -1.666  0.00  0.00    -0.286 N 
ATOM     16  C   UNL     1       1.800  -0.304  -1.199  0.00  0.00    +0.214 C 
ATOM     17  O   UNL     1       1.997   0.729  -0.596  0.00  0.00    -0.276 OA
ATOM     18  C   UNL     1       2.933  -1.270  -1.428  0.00  0.00    +0.109 C 
ATOM     19  H   UNL     1       0.425  -1.380  -2.207  0.00  0.00    +0.155 HD
ENDBRANCH  12  15
ENDBRANCH   6   9
ENDBRANCH   3   5
BRANCH   1  20
ATOM     20  C   UNL     1      -5.594   7.280   0.212  0.00  0.00    +0.257 C 
ATOM     21  C   UNL     1      -6.632   7.196  -0.909  0.00  0.00    +0.062 C 
BRANCH  20  22
ATOM     22  O   UNL     1      -5.120   8.624   0.321  0.00  0.00    -0.480 OA
BRANCH  22  28
ATOM     23  C   UNL     1      -9.100   9.475   3.014  0.00  0.00    +0.044 C 
ATOM     24  C   UNL     1      -7.791   9.926   2.420  0.00  0.00    -0.047 A 
ATOM     25  C   UNL     1      -7.330  11.208   2.657  0.00  0.00    +0.004 A 
ATOM     26  C   UNL     1      -6.129  11.625   2.112  0.00  0.00    +0.007 A 
ATOM     27  C   UNL     1      -5.385  10.760   1.335  0.00  0.00    -0.009 A 
ATOM     28  C   UNL     1      -5.848   9.475   1.090  0.00  0.00    +0.125 A 
ATOM     29  C   UNL     1      -7.053   9.059   1.638  0.00  0.00    +0.049 A 
ATOM     30  C   UNL     1      -4.073  11.213   0.747  0.00  0.00    +0.047 C 
ENDBRANCH  22  28
ENDBRANCH  20  22
ENDBRANCH   1  20
TORSDOF 6
