REMARK  Name = ZINC35841765
REMARK  10 active torsions:
REMARK  status: ('A' for Active; 'I' for Inactive)
REMARK    1  A    between atoms: C_1  and  O_2
REMARK    2  A    between atoms: O_2  and  C_3
REMARK    3  A    between atoms: C_6  and  N_11
REMARK    4  A    between atoms: C_8  and  O_9
REMARK    5  A    between atoms: O_9  and  C_10
REMARK    6  A    between atoms: N_11  and  C_12
REMARK    7  A    between atoms: N_11  and  S_27
REMARK    8  A    between atoms: N_15  and  C_18
REMARK    9  A    between atoms: C_18  and  C_19
REMARK   10  A    between atoms: S_27  and  C_30
REMARK                            x       y       z     vdW  Elec       q    Type
REMARK                         _______ _______ _______ _____ _____    ______ ____
ROOT
ATOM      1  N   UNL     1      -4.894  -2.579   0.035  0.00  0.00    -0.200 N 
ENDROOT
BRANCH   1   2
ATOM      2  C   UNL     1      -6.007  -1.933  -0.665  0.00  0.00    +0.095 C 
ATOM      3  C   UNL     1      -5.574  -1.571  -2.089  0.00  0.00    +0.006 C 
ATOM      4  C   UNL     1      -6.713  -0.826  -2.788  0.00  0.00    -0.077 C 
ATOM      5  N   UNL     1      -7.030   0.400  -2.045  0.00  0.00    +0.383 N 
ATOM      6  C   UNL     1      -7.514   0.057  -0.702  0.00  0.00    -0.077 C 
ATOM      7  C   UNL     1      -6.406  -0.654   0.077  0.00  0.00    +0.006 C 
ATOM      8  H   UNL     1      -6.200   0.969  -1.968  0.00  0.00    -0.081 HD
BRANCH   5   9
ATOM      9  C   UNL     1      -8.070   1.151  -2.762  0.00  0.00    -0.040 C 
BRANCH   9  10
ATOM     10  C   UNL     1      -8.309   2.466  -2.067  0.00  0.00    -0.029 A 
ATOM     11  C   UNL     1      -9.387   2.611  -1.214  0.00  0.00    +0.007 A 
ATOM     12  C   UNL     1      -9.607   3.817  -0.576  0.00  0.00    +0.039 A 
ATOM     13  C   UNL     1      -8.748   4.882  -0.790  0.00  0.00    +0.126 A 
ATOM     14  C   UNL     1      -7.668   4.738  -1.644  0.00  0.00    +0.076 A 
ATOM     15  C   UNL     1      -7.445   3.527  -2.279  0.00  0.00    +0.127 A 
ATOM     16  F   UNL     1      -6.388   3.384  -3.108  0.00  0.00    -0.205 F 
ATOM     17  F   UNL     1      -8.963   6.061  -0.167  0.00  0.00    -0.205 F 
ENDBRANCH   9  10
ENDBRANCH   5   9
ENDBRANCH   1   2
BRANCH   1  21
ATOM     18  C   UNL     1      -1.327  -0.505   0.647  0.00  0.00    +0.162 A 
ATOM     19  C   UNL     1      -2.326  -0.466   1.607  0.00  0.00    +0.051 A 
ATOM     20  C   UNL     1      -3.508  -1.153   1.405  0.00  0.00    +0.028 A 
ATOM     21  C   UNL     1      -3.697  -1.883   0.239  0.00  0.00    +0.055 A 
ATOM     22  C   UNL     1      -2.699  -1.924  -0.725  0.00  0.00    +0.074 A 
ATOM     23  C   UNL     1      -1.516  -1.231  -0.524  0.00  0.00    +0.163 A 
BRANCH  18  25
ATOM     24  C   UNL     1      -0.038   0.897   2.074  0.00  0.00    +0.277 C 
ATOM     25  O   UNL     1      -0.164   0.172   0.849  0.00  0.00    -0.491 OA
ENDBRANCH  18  25
BRANCH  23  26
ATOM     26  O   UNL     1      -0.539  -1.265  -1.469  0.00  0.00    -0.491 OA
ATOM     27  C   UNL     1      -0.801  -2.030  -2.647  0.00  0.00    +0.277 C 
ENDBRANCH  23  26
ENDBRANCH   1  21
BRANCH   1  28
ATOM     28  S   UNL     1      -5.053  -4.132   0.587  0.00  0.00    +0.075 S 
ATOM     29  O   UNL     1      -6.100  -4.726  -0.169  0.00  0.00    -0.150 OA
ATOM     30  O   UNL     1      -3.744  -4.681   0.637  0.00  0.00    -0.150 OA
BRANCH  28  31
ATOM     31  C   UNL     1      -5.625  -4.039   2.251  0.00  0.00    +0.109 A 
ATOM     32  C   UNL     1      -4.716  -3.975   3.290  0.00  0.00    +0.031 A 
ATOM     33  C   UNL     1      -5.162  -3.901   4.596  0.00  0.00    +0.040 A 
ATOM     34  C   UNL     1      -6.521  -3.891   4.863  0.00  0.00    +0.124 A 
ATOM     35  C   UNL     1      -7.431  -3.955   3.821  0.00  0.00    +0.040 A 
ATOM     36  C   UNL     1      -6.981  -4.023   2.516  0.00  0.00    +0.031 A 
ATOM     37  F   UNL     1      -6.959  -3.819   6.139  0.00  0.00    -0.205 F 
ENDBRANCH  28  31
ENDBRANCH   1  28
TORSDOF 8
