REMARK  Name = ZINC06197744
REMARK  11 active torsions:
REMARK  status: ('A' for Active; 'I' for Inactive)
REMARK    1  A    between atoms: C_1  and  C_2
REMARK    2  A    between atoms: C_2  and  C_3
REMARK    3  A    between atoms: C_10  and  C_15
REMARK    4  A    between atoms: C_15  and  N_16
REMARK    5  A    between atoms: N_16  and  C_17
REMARK    6  A    between atoms: N_16  and  C_24
REMARK    7  A    between atoms: C_17  and  C_18
REMARK    8  A    between atoms: C_18  and  N_66
REMARK    9  A    between atoms: C_24  and  N_26
REMARK   10  A    between atoms: N_26  and  C_27
REMARK   11  A    between atoms: C_27  and  C_28
REMARK                            x       y       z     vdW  Elec       q    Type
REMARK                         _______ _______ _______ _____ _____    ______ ____
ROOT
ATOM      1  N   UNL     1       0.236  -0.478  -1.364  0.00  0.00    -0.310 N 
ENDROOT
BRANCH   1   2
ATOM      2  C   UNL     1       1.492  -0.714  -1.790  0.00  0.00    +0.133 C 
ATOM      3  S   UNL     1       2.805  -0.583  -0.699  0.00  0.00    -0.019 S 
BRANCH   2   4
ATOM      4  N   UNL     1       1.716  -1.053  -3.075  0.00  0.00    -0.324 N 
ATOM      5  H   UNL     1       0.972  -1.127  -3.694  0.00  0.00    +0.148 HD
BRANCH   4   6
ATOM      6  C   UNL     1       3.082  -1.310  -3.538  0.00  0.00    +0.134 C 
BRANCH   6   7
ATOM      7  C   UNL     1       3.057  -1.672  -5.024  0.00  0.00    +0.135 C 
ATOM      8  C   UNL     1       4.490  -1.944  -5.521  0.00  0.00    +0.035 C 
ATOM      9  C   UNL     1       4.437  -3.395  -6.058  0.00  0.00    +0.031 C 
ATOM     10  C   UNL     1       2.921  -3.592  -6.312  0.00  0.00    +0.160 C 
ATOM     11  O   UNL     1       2.301  -2.879  -5.221  0.00  0.00    -0.375 OA
ENDBRANCH   6   7
ENDBRANCH   4   6
ENDBRANCH   2   4
ENDBRANCH   1   2
BRANCH   1  12
ATOM     12  C   UNL     1       0.003   0.003  -0.000  0.00  0.00    +0.147 C 
BRANCH  12  20
ATOM     13  C   UNL     1       1.094  -4.549   4.047  0.00  0.00    -0.047 A 
ATOM     14  C   UNL     1      -0.212  -5.015   4.113  0.00  0.00    +0.005 A 
ATOM     15  C   UNL     1      -1.210  -4.418   3.374  0.00  0.00    +0.026 A 
ATOM     16  C   UNL     1      -0.908  -3.337   2.551  0.00  0.00    +0.049 A 
ATOM     17  C   UNL     1       0.417  -2.868   2.487  0.00  0.00    -0.001 A 
ATOM     18  C   UNL     1       1.414  -3.489   3.247  0.00  0.00    +0.013 A 
ATOM     19  C   UNL     1       0.727  -1.734   1.614  0.00  0.00    +0.020 A 
ATOM     20  C   UNL     1      -0.281  -1.169   0.904  0.00  0.00    +0.035 A 
ATOM     21  C   UNL     1      -1.593  -1.679   1.004  0.00  0.00    +0.254 A 
ATOM     22  O   UNL     1      -2.483  -1.160   0.353  0.00  0.00    -0.268 OA
ATOM     23  N   UNL     1      -1.886  -2.722   1.800  0.00  0.00    -0.322 N 
ATOM     24  H   UNL     1      -2.827  -3.057   1.847  0.00  0.00    +0.169 HD
BRANCH  13  26
ATOM     25  C   UNL     1       2.263  -4.539   6.234  0.00  0.00    +0.009 C 
ATOM     26  C   UNL     1       2.168  -5.218   4.866  0.00  0.00    +0.032 C 
ENDBRANCH  13  26
ENDBRANCH  12  20
ENDBRANCH   1  12
BRANCH   1  27
ATOM     27  C   UNL     1      -0.897  -0.703  -2.265  0.00  0.00    +0.088 C 
BRANCH  27  28
ATOM     28  C   UNL     1      -1.193   0.581  -3.043  0.00  0.00    -0.059 C 
BRANCH  28  34
ATOM     29  C   UNL     1      -1.982  -0.610  -4.999  0.00  0.00    -0.050 C 
ATOM     30  C   UNL     1      -3.209  -0.860  -5.880  0.00  0.00    +0.141 C 
ATOM     31  O   UNL     1      -3.666   0.385  -6.416  0.00  0.00    -0.383 OA
ATOM     32  C   UNL     1      -4.014   1.349  -5.418  0.00  0.00    +0.141 C 
ATOM     33  C   UNL     1      -2.795   1.621  -4.533  0.00  0.00    -0.050 C 
ATOM     34  N   UNL     1      -2.351   0.345  -3.933  0.00  0.00    +0.384 N 
ATOM     35  H   UNL     1      -3.121  -0.051  -3.381  0.00  0.00    -0.082 HD
ENDBRANCH  28  34
ENDBRANCH  27  28
ENDBRANCH   1  27
TORSDOF 10
