REMARK  Name = ZINC36504476
REMARK  7 active torsions:
REMARK  status: ('A' for Active; 'I' for Inactive)
REMARK    1  A    between atoms: C_3  and  C_6
REMARK    2  A    between atoms: C_6  and  N_7
REMARK    3  A    between atoms: N_7  and  C_8
REMARK    4  A    between atoms: C_8  and  C_10
REMARK    5  A    between atoms: C_8  and  C_16
REMARK    6  A    between atoms: N_18  and  C_19
REMARK    7  A    between atoms: C_25  and  C_27
REMARK                            x       y       z     vdW  Elec       q    Type
REMARK                         _______ _______ _______ _____ _____    ______ ____
ROOT
ATOM      1  C   UNL     1       4.419  -0.484   2.089  0.00  0.00    +0.165 C 
ENDROOT
BRANCH   1   2
ATOM      2  C   UNL     1       5.711  -1.196   1.683  0.00  0.00    +0.018 C 
ATOM      3  C   UNL     1       6.841  -0.172   1.562  0.00  0.00    +0.006 C 
ATOM      4  C   UNL     1       8.133  -0.884   1.157  0.00  0.00    +0.000 C 
ATOM      5  C   UNL     1       8.498  -1.923   2.219  0.00  0.00    +0.000 C 
ATOM      6  C   UNL     1       7.368  -2.947   2.341  0.00  0.00    +0.000 C 
ATOM      7  C   UNL     1       6.076  -2.235   2.746  0.00  0.00    +0.006 C 
ENDBRANCH   1   2
BRANCH   1   8
ATOM      8  C   UNL     1       3.289  -1.481   2.134  0.00  0.00    +0.234 C 
ATOM      9  O   UNL     1       2.908  -2.012   1.112  0.00  0.00    -0.274 OA
ATOM     10  N   UNL     1       2.703  -1.782   3.309  0.00  0.00    -0.311 N 
ATOM     11  H   UNL     1       2.962  -1.309   4.116  0.00  0.00    +0.149 HD
BRANCH  10  12
ATOM     12  C   UNL     1       1.673  -2.822   3.369  0.00  0.00    +0.073 C 
ATOM     13  C   UNL     1       0.314  -2.216   3.014  0.00  0.00    +0.022 C 
ATOM     14  C   UNL     1      -0.761  -3.303   3.076  0.00  0.00    +0.002 C 
ATOM     15  C   UNL     1      -0.817  -3.885   4.490  0.00  0.00    +0.000 C 
ATOM     16  C   UNL     1       0.542  -4.491   4.846  0.00  0.00    +0.002 C 
ATOM     17  C   UNL     1       1.617  -3.404   4.783  0.00  0.00    +0.022 C 
ENDBRANCH  10  12
ENDBRANCH   1   8
BRANCH   1  18
ATOM     18  N   UNL     1       4.109   0.561   1.110  0.00  0.00    -0.281 N 
ATOM     19  C   UNL     1       4.163   1.858   1.470  0.00  0.00    +0.237 C 
ATOM     20  O   UNL     1       4.466   2.161   2.604  0.00  0.00    -0.274 OA
BRANCH  19  21
ATOM     21  C   UNL     1       3.844   2.933   0.463  0.00  0.00    +0.159 C 
ATOM     22  C   UNL     1       5.074   3.210  -0.431  0.00  0.00    +0.041 C 
ATOM     23  C   UNL     1       5.747   4.385   0.314  0.00  0.00    +0.098 C 
ATOM     24  C   UNL     1       4.617   5.034   1.082  0.00  0.00    +0.214 C 
ATOM     25  O   UNL     1       4.656   6.144   1.570  0.00  0.00    -0.276 OA
ATOM     26  N   UNL     1       3.561   4.201   1.145  0.00  0.00    -0.304 N 
ATOM     27  H   UNL     1       2.722   4.411   1.584  0.00  0.00    +0.149 HD
ENDBRANCH  19  21
BRANCH  18  28
ATOM     28  C   UNL     1       3.742   0.195  -0.261  0.00  0.00    +0.182 C 
BRANCH  28  31
ATOM     29  C   UNL     1       0.116   0.676  -0.711  0.00  0.00    +0.041 A 
ATOM     30  C   UNL     1       1.442   1.169  -0.719  0.00  0.00    +0.046 A 
ATOM     31  C   UNL     1       2.241   0.141  -0.381  0.00  0.00    +0.122 A 
ATOM     32  O   UNL     1       1.475  -0.942  -0.170  0.00  0.00    -0.466 OA
ATOM     33  C   UNL     1       0.185  -0.623  -0.368  0.00  0.00    +0.195 A 
ENDBRANCH  28  31
ENDBRANCH  18  28
ENDBRANCH   1  18
TORSDOF 7
