REMARK  Name = ZINC60399082
REMARK  7 active torsions:
REMARK  status: ('A' for Active; 'I' for Inactive)
REMARK    1  A    between atoms: C_6  and  N_7
REMARK    2  A    between atoms: C_8  and  C_10
REMARK    3  A    between atoms: C_10  and  C_11
REMARK    4  A    between atoms: C_11  and  C_12
REMARK    5  A    between atoms: C_12  and  N_13
REMARK    6  A    between atoms: C_14  and  C_16
REMARK    7  A    between atoms: C_18  and  N_23
REMARK                            x       y       z     vdW  Elec       q    Type
REMARK                         _______ _______ _______ _____ _____    ______ ____
ROOT
ATOM      1  C   UNL     1      -3.496  -5.100  -0.422  0.00  0.00    +0.105 C 
ENDROOT
BRANCH   1   2
ATOM      2  N   UNL     1      -3.211  -6.532  -0.530  0.00  0.00    -0.311 N 
ATOM      3  C   UNL     1      -4.224  -7.415  -0.635  0.00  0.00    +0.246 C 
ATOM      4  O   UNL     1      -5.374  -7.022  -0.641  0.00  0.00    -0.270 OA
ATOM      5  H   UNL     1      -2.293  -6.846  -0.526  0.00  0.00    +0.149 HD
BRANCH   3   6
ATOM      6  C   UNL     1      -3.937  -8.861  -0.744  0.00  0.00    +0.057 A 
ATOM      7  C   UNL     1      -2.617  -9.316  -0.732  0.00  0.00    +0.047 A 
ATOM      8  C   UNL     1      -2.355 -10.666  -0.833  0.00  0.00    +0.127 A 
ATOM      9  C   UNL     1      -3.397 -11.570  -0.947  0.00  0.00    +0.034 A 
ATOM     10  C   UNL     1      -4.707 -11.127  -0.960  0.00  0.00    +0.023 A 
ATOM     11  C   UNL     1      -4.984  -9.778  -0.853  0.00  0.00    +0.053 A 
ATOM     12 CL   UNL     1      -6.629  -9.224  -0.863  0.00  0.00    -0.083 Cl
BRANCH   8  13
ATOM     13  N   UNL     1      -0.957 -11.150  -0.821  0.00  0.00    +0.056 N 
ATOM     14  O   UNL     1      -0.045 -10.362  -0.722  0.00  0.00    -0.126 OA
ATOM     15  O   UNL     1      -0.726 -12.333  -0.909  0.00  0.00    -0.126 OA
ENDBRANCH   8  13
ENDBRANCH   3   6
ENDBRANCH   1   2
BRANCH   1  16
ATOM     16  C   UNL     1      -2.181  -4.325  -0.316  0.00  0.00    +0.028 C 
BRANCH  16  17
ATOM     17  C   UNL     1      -2.479  -2.828  -0.204  0.00  0.00    +0.097 C 
BRANCH  17  19
ATOM     18  N   UNL     1      -1.200  -0.722   0.010  0.00  0.00    -0.285 N 
ATOM     19  C   UNL     1      -1.183  -2.065  -0.099  0.00  0.00    +0.217 C 
ATOM     20  O   UNL     1      -0.126  -2.659  -0.113  0.00  0.00    -0.275 OA
ATOM     21  H   UNL     1      -2.044  -0.252   0.098  0.00  0.00    +0.155 HD
BRANCH  18  27
ATOM     22  C   UNL     1       1.072  -0.453  -0.766  0.00  0.00    +0.025 A 
ATOM     23  C   UNL     1       2.256   0.257  -0.778  0.00  0.00    +0.022 A 
ATOM     24  C   UNL     1       2.377   1.416  -0.032  0.00  0.00    +0.041 A 
ATOM     25  C   UNL     1       1.312   1.866   0.729  0.00  0.00    +0.022 A 
ATOM     26  C   UNL     1       0.126   1.159   0.745  0.00  0.00    +0.025 A 
ATOM     27  C   UNL     1       0.002  -0.004  -0.004  0.00  0.00    +0.033 A 
ATOM     28 CL   UNL     1       3.867   2.306  -0.048  0.00  0.00    -0.084 Cl
ENDBRANCH  18  27
ENDBRANCH  17  19
ENDBRANCH  16  17
ENDBRANCH   1  16
TORSDOF 7
