REMARK  Name = ZINC43706752
REMARK  5 active torsions:
REMARK  status: ('A' for Active; 'I' for Inactive)
REMARK    1  A    between atoms: C_1  and  C_2
REMARK    2  A    between atoms: C_2  and  C_3
REMARK    3  A    between atoms: C_3  and  N_4
REMARK    4  A    between atoms: N_4  and  C_5
REMARK    5  A    between atoms: C_17  and  C_20
REMARK                            x       y       z     vdW  Elec       q    Type
REMARK                         _______ _______ _______ _____ _____    ______ ____
ROOT
ATOM      1  N   UNL     1       0.760  -1.929  -1.363  0.00  0.00    -0.283 N 
ATOM      2  C   UNL     1       1.835  -2.464  -0.751  0.00  0.00    +0.305 C 
ATOM      3  O   UNL     1       2.624  -1.745  -0.171  0.00  0.00    -0.252 OA
ATOM      4  N   UNL     1       2.034  -3.797  -0.783  0.00  0.00    -0.280 N 
ATOM      5  C   UNL     1       1.006  -4.705  -1.315  0.00  0.00    +0.137 C 
ATOM      6  C   UNL     1       1.665  -5.635  -2.340  0.00  0.00    +0.180 C 
ATOM      7  O   UNL     1       2.810  -6.252  -1.746  0.00  0.00    -0.362 OA
ATOM      8  C   UNL     1       3.836  -5.333  -1.360  0.00  0.00    +0.248 C 
ATOM      9  C   UNL     1       3.289  -4.387  -0.291  0.00  0.00    +0.152 C 
ENDROOT
BRANCH   1  10
ATOM     10  C   UNL     1      -0.209  -2.799  -2.035  0.00  0.00    +0.074 C 
ATOM     11  C   UNL     1       0.508  -3.647  -3.090  0.00  0.00    +0.003 C 
ATOM     12  C   UNL     1      -0.494  -4.608  -3.731  0.00  0.00    -0.081 C 
ATOM     13  N   UNL     1      -1.064  -5.485  -2.701  0.00  0.00    +0.379 N 
ATOM     14  C   UNL     1      -1.815  -4.686  -1.726  0.00  0.00    -0.081 C 
ATOM     15  C   UNL     1      -0.863  -3.727  -1.007  0.00  0.00    +0.003 C 
ATOM     16  H   UNL     1      -1.684  -6.153  -3.135  0.00  0.00    -0.086 HD
ATOM     17  H   UNL     1      -0.320  -5.977  -2.231  0.00  0.00    -0.086 HD
ENDBRANCH   1  10
BRANCH   8  18
ATOM     18  C   UNL     1       5.013  -6.095  -0.808  0.00  0.00    +0.386 C 
ATOM     19  O   UNL     1       4.978  -7.313  -0.750  0.00  0.00    -0.243 OA
ATOM     20  O   UNL     1       6.000  -5.495  -0.419  0.00  0.00    -0.243 OA
ENDBRANCH   8  18
BRANCH   1  21
ATOM     21  C   UNL     1       0.560  -0.478  -1.357  0.00  0.00    +0.109 C 
BRANCH  21  23
ATOM     22  C   UNL     1      -0.572   1.421  -0.194  0.00  0.00    +0.005 C 
ATOM     23  C   UNL     1      -0.364  -0.095  -0.200  0.00  0.00    +0.016 C 
ENDBRANCH  21  23
ENDBRANCH   1  21
TORSDOF 4
