REMARK  Name = ZINC00222737
REMARK  4 active torsions:
REMARK  status: ('A' for Active; 'I' for Inactive)
REMARK    1  A    between atoms: C_1  and  C_2
REMARK    2  A    between atoms: C_2  and  C_3
REMARK    3  A    between atoms: C_6  and  C_9
REMARK    4  A    between atoms: C_11  and  C_19
REMARK                            x       y       z     vdW  Elec       q    Type
REMARK                         _______ _______ _______ _____ _____    ______ ____
ROOT
ATOM      1  C   UNL     1       2.698  -1.862  -4.737  0.00  0.00    +0.073 C 
ATOM      2  C   UNL     1       4.026  -2.072  -4.691  0.00  0.00    +0.030 C 
ATOM      3  C   UNL     1       4.699  -2.563  -5.961  0.00  0.00    +0.155 C 
ATOM      4  N   UNL     1       3.828  -2.761  -7.123  0.00  0.00    -0.208 N 
ATOM      5  C   UNL     1       2.478  -2.497  -6.999  0.00  0.00    +0.237 C 
ATOM      6  N   UNL     1       1.974  -2.080  -5.862  0.00  0.00    -0.213 NA
ATOM      7  N   UNL     1       1.913  -2.758  -8.199  0.00  0.00    -0.205 NA
ATOM      8  C   UNL     1       2.818  -3.162  -9.048  0.00  0.00    +0.203 C 
ATOM      9  N   UNL     1       4.035  -3.186  -8.438  0.00  0.00    -0.251 N 
ATOM     10  H   UNL     1       4.880  -3.446  -8.837  0.00  0.00    +0.171 HD
ENDROOT
BRANCH   3  11
ATOM     11  C   UNL     1       5.374  -3.876  -5.657  0.00  0.00    +0.014 A 
ATOM     12  C   UNL     1       4.768  -5.064  -6.018  0.00  0.00    +0.008 A 
ATOM     13  C   UNL     1       5.387  -6.268  -5.739  0.00  0.00    +0.001 A 
ATOM     14  C   UNL     1       6.612  -6.286  -5.098  0.00  0.00    +0.003 A 
ATOM     15  C   UNL     1       7.219  -5.099  -4.736  0.00  0.00    +0.039 A 
ATOM     16  C   UNL     1       6.603  -3.891  -5.020  0.00  0.00    +0.129 A 
ATOM     17  F   UNL     1       7.198  -2.730  -4.670  0.00  0.00    -0.205 F 
ENDBRANCH   3  11
BRANCH   1  21
ATOM     18  C   UNL     1       0.707  -0.490  -1.238  0.00  0.00    -0.048 A 
ATOM     19  C   UNL     1      -0.013  -0.718  -2.396  0.00  0.00    +0.004 A 
ATOM     20  C   UNL     1       0.627  -1.163  -3.535  0.00  0.00    +0.010 A 
ATOM     21  C   UNL     1       2.003  -1.383  -3.516  0.00  0.00    +0.000 A 
ATOM     22  C   UNL     1       2.724  -1.152  -2.346  0.00  0.00    +0.010 A 
ATOM     23  C   UNL     1       2.074  -0.701  -1.215  0.00  0.00    +0.004 A 
BRANCH  18  25
ATOM     24  C   UNL     1      -0.019   1.526   0.010  0.00  0.00    +0.009 C 
ATOM     25  C   UNL     1       0.002  -0.004   0.002  0.00  0.00    +0.032 C 
ENDBRANCH  18  25
ENDBRANCH   1  21
TORSDOF 3
