REMARK  Name = ZINC45618311
REMARK  8 active torsions:
REMARK  status: ('A' for Active; 'I' for Inactive)
REMARK    1  A    between atoms: C_1  and  C_2
REMARK    2  A    between atoms: C_2  and  C_4
REMARK    3  A    between atoms: C_2  and  S_20
REMARK    4  A    between atoms: C_10  and  C_15
REMARK    5  A    between atoms: S_20  and  C_21
REMARK    6  A    between atoms: C_21  and  C_23
REMARK    7  A    between atoms: C_21  and  C_24
REMARK    8  A    between atoms: N_26  and  C_27
REMARK                            x       y       z     vdW  Elec       q    Type
REMARK                         _______ _______ _______ _____ _____    ______ ____
ROOT
ATOM      1  C   UNL     1      -1.542  -0.263   0.146  0.00  0.00    +0.027 C 
ATOM      2  C   UNL     1      -2.690  -0.864   0.960  0.00  0.00    +0.110 C 
ENDROOT
BRANCH   2   3
ATOM      3  C   UNL     1      -3.359  -1.950   0.159  0.00  0.00    +0.124 A 
ATOM      4  N   UNL     1      -3.825  -1.671  -1.085  0.00  0.00    -0.309 N 
ATOM      5  H   UNL     1      -3.721  -0.775  -1.442  0.00  0.00    +0.170 HD
ATOM      6  C   UNL     1      -4.428  -2.614  -1.834  0.00  0.00    +0.260 A 
ATOM      7  O   UNL     1      -4.841  -2.348  -2.950  0.00  0.00    -0.267 OA
ATOM      8  C   UNL     1      -4.577  -3.933  -1.300  0.00  0.00    +0.083 A 
ATOM      9  C   UNL     1      -5.187  -5.111  -1.908  0.00  0.00    +0.039 A 
ATOM     10  C   UNL     1      -5.212  -6.269  -1.200  0.00  0.00    +0.059 A 
ATOM     11  S   UNL     1      -4.412  -5.834   0.332  0.00  0.00    -0.076 S 
ATOM     12  C   UNL     1      -4.066  -4.128  -0.007  0.00  0.00    +0.116 A 
ATOM     13  N   UNL     1      -3.476  -3.146   0.671  0.00  0.00    -0.225 NA
BRANCH   9  14
ATOM     14  C   UNL     1      -5.764  -5.045  -3.265  0.00  0.00    +0.136 A 
ATOM     15  C   UNL     1      -5.514  -5.912  -4.283  0.00  0.00    +0.050 A 
ATOM     16  C   UNL     1      -6.272  -5.472  -5.388  0.00  0.00    +0.042 A 
ATOM     17  C   UNL     1      -6.940  -4.370  -4.994  0.00  0.00    +0.196 A 
ATOM     18  O   UNL     1      -6.635  -4.118  -3.709  0.00  0.00    -0.463 OA
ENDBRANCH   9  14
ENDBRANCH   2   3
BRANCH   2  19
ATOM     19  S   UNL     1      -2.038  -1.563   2.502  0.00  0.00    -0.137 S 
BRANCH  19  20
ATOM     20  C   UNL     1      -1.411  -0.121   3.407  0.00  0.00    +0.130 C 
ATOM     21  C   UNL     1      -2.576   0.801   3.768  0.00  0.00    +0.029 C 
BRANCH  20  22
ATOM     22  C   UNL     1      -0.724  -0.580   4.667  0.00  0.00    +0.230 C 
ATOM     23  O   UNL     1      -0.961  -1.679   5.122  0.00  0.00    -0.274 OA
ATOM     24  N   UNL     1       0.155   0.231   5.289  0.00  0.00    -0.282 N 
ATOM     25  H   UNL     1       0.400   1.079   4.887  0.00  0.00    +0.155 HD
BRANCH  24  26
ATOM     26  C   UNL     1       0.713  -0.150   6.515  0.00  0.00    +0.070 A 
ATOM     27  C   UNL     1       1.909  -0.857   6.546  0.00  0.00    +0.064 A 
ATOM     28  C   UNL     1       2.457  -1.232   7.759  0.00  0.00    +0.022 A 
ATOM     29  C   UNL     1       1.817  -0.904   8.940  0.00  0.00    +0.003 A 
ATOM     30  C   UNL     1       0.627  -0.201   8.913  0.00  0.00    +0.022 A 
ATOM     31  C   UNL     1       0.076   0.183   7.704  0.00  0.00    +0.064 A 
ATOM     32 CL   UNL     1      -1.414   1.073   7.672  0.00  0.00    -0.082 Cl
ATOM     33 CL   UNL     1       2.713  -1.270   5.064  0.00  0.00    -0.082 Cl
ENDBRANCH  24  26
ENDBRANCH  20  22
ENDBRANCH  19  20
ENDBRANCH   2  19
TORSDOF 6
