REMARK  Name = ZINC12462121
REMARK  9 active torsions:
REMARK  status: ('A' for Active; 'I' for Inactive)
REMARK    1  A    between atoms: C_1  and  C_2
REMARK    2  A    between atoms: C_5  and  N_8
REMARK    3  A    between atoms: C_18  and  S_19
REMARK    4  A    between atoms: S_19  and  C_20
REMARK    5  A    between atoms: C_20  and  C_21
REMARK    6  A    between atoms: N_23  and  C_24
REMARK    7  A    between atoms: C_27  and  C_30
REMARK    8  A    between atoms: C_30  and  C_31
REMARK    9  A    between atoms: C_30  and  C_32
REMARK                            x       y       z     vdW  Elec       q    Type
REMARK                         _______ _______ _______ _____ _____    ______ ____
ROOT
ATOM      1  N   UNL     1      -4.203   8.025   8.456  0.00  0.00    -0.272 N 
ATOM      2  C   UNL     1      -4.813   7.816   9.669  0.00  0.00    +0.173 A 
ATOM      3  C   UNL     1      -4.964   6.433   9.798  0.00  0.00    +0.173 A 
ATOM      4  C   UNL     1      -5.574   5.928  10.972  0.00  0.00    +0.279 A 
ATOM      5  O   UNL     1      -5.728   4.729  11.132  0.00  0.00    -0.265 OA
ATOM      6  N   UNL     1      -5.981   6.810  11.912  0.00  0.00    -0.312 N 
ATOM      7  H   UNL     1      -6.401   6.490  12.725  0.00  0.00    +0.170 HD
ATOM      8  C   UNL     1      -5.804   8.143  11.723  0.00  0.00    +0.201 A 
ATOM      9  N   UNL     1      -5.244   8.623  10.648  0.00  0.00    -0.217 NA
ATOM     10  N   UNL     1      -4.456   5.861   8.678  0.00  0.00    -0.214 NA
ATOM     11  C   UNL     1      -3.999   6.797   7.883  0.00  0.00    +0.176 A 
ENDROOT
BRANCH   1  16
ATOM     12  C   UNL     1      -2.787  13.049   6.228  0.00  0.00    +0.044 C 
ATOM     13  C   UNL     1      -3.163  11.715   6.819  0.00  0.00    -0.050 A 
ATOM     14  C   UNL     1      -4.122  10.933   6.203  0.00  0.00    +0.005 A 
ATOM     15  C   UNL     1      -4.469   9.709   6.743  0.00  0.00    +0.026 A 
ATOM     16  C   UNL     1      -3.854   9.266   7.906  0.00  0.00    +0.050 A 
ATOM     17  C   UNL     1      -2.895  10.056   8.525  0.00  0.00    +0.026 A 
ATOM     18  C   UNL     1      -2.548  11.276   7.978  0.00  0.00    +0.005 A 
ENDBRANCH   1  16
BRANCH  11  19
ATOM     19  S   UNL     1      -3.246   6.520   6.314  0.00  0.00    -0.078 S 
BRANCH  19  20
ATOM     20  C   UNL     1      -3.325   4.713   6.243  0.00  0.00    +0.173 C 
BRANCH  20  21
ATOM     21  C   UNL     1      -2.719   4.234   4.949  0.00  0.00    +0.227 C 
ATOM     22  O   UNL     1      -2.277   5.036   4.153  0.00  0.00    -0.275 OA
ATOM     23  N   UNL     1      -2.668   2.915   4.676  0.00  0.00    -0.285 N 
ATOM     24  H   UNL     1      -3.089   2.279   5.275  0.00  0.00    +0.155 HD
BRANCH  23  25
ATOM     25  C   UNL     1      -2.008   2.464   3.528  0.00  0.00    +0.033 A 
ATOM     26  C   UNL     1      -0.888   3.138   3.058  0.00  0.00    +0.023 A 
ATOM     27  C   UNL     1      -0.238   2.689   1.925  0.00  0.00    +0.006 A 
ATOM     28  C   UNL     1      -0.701   1.570   1.258  0.00  0.00    -0.045 A 
ATOM     29  C   UNL     1      -1.819   0.900   1.720  0.00  0.00    +0.006 A 
ATOM     30  C   UNL     1      -2.471   1.340   2.855  0.00  0.00    +0.023 A 
BRANCH  28  31
ATOM     31  C   UNL     1       0.010   1.083   0.022  0.00  0.00    +0.013 C 
ATOM     32  C   UNL     1      -0.956   1.103  -1.164  0.00  0.00    +0.012 C 
ATOM     33  C   UNL     1       0.508  -0.346   0.250  0.00  0.00    +0.012 C 
ENDBRANCH  28  31
ENDBRANCH  23  25
ENDBRANCH  20  21
ENDBRANCH  19  20
ENDBRANCH  11  19
TORSDOF 6
