REMARK  Name = ZINC57315891
REMARK  8 active torsions:
REMARK  status: ('A' for Active; 'I' for Inactive)
REMARK    1  A    between atoms: C_1  and  C_2
REMARK    2  A    between atoms: C_2  and  C_3
REMARK    3  A    between atoms: C_11  and  N_15
REMARK    4  A    between atoms: N_15  and  C_16
REMARK    5  A    between atoms: C_16  and  N_18
REMARK    6  A    between atoms: C_19  and  C_21
REMARK    7  A    between atoms: C_24  and  C_28
REMARK    8  A    between atoms: C_25  and  C_27
REMARK                            x       y       z     vdW  Elec       q    Type
REMARK                         _______ _______ _______ _____ _____    ______ ____
ROOT
ATOM      1  N   UNL     1      -8.812  -4.559   0.065  0.00  0.00    -0.297 N 
ATOM      2  H   UNL     1      -8.771  -5.526   0.002  0.00  0.00    +0.154 HD
ENDROOT
BRANCH   1  11
ATOM      3  C   UNL     1      -1.972   0.335  -0.477  0.00  0.00    +0.218 C 
ATOM      4  O   UNL     1      -1.794  -0.602   0.271  0.00  0.00    -0.275 OA
ATOM      5  N   UNL     1      -3.159   0.486  -1.098  0.00  0.00    -0.265 N 
ATOM      6  C   UNL     1      -4.175  -0.431  -0.881  0.00  0.00    +0.165 A 
ATOM      7  N   UNL     1      -4.174  -1.494  -0.112  0.00  0.00    -0.225 NA
ATOM      8  C   UNL     1      -5.247  -2.308   0.005  0.00  0.00    +0.080 A 
ATOM      9  C   UNL     1      -5.375  -3.475   0.792  0.00  0.00    +0.031 A 
ATOM     10  C   UNL     1      -6.532  -4.190   0.801  0.00  0.00    +0.025 A 
ATOM     11  C   UNL     1      -7.633  -3.804   0.039  0.00  0.00    +0.034 A 
ATOM     12  C   UNL     1      -7.546  -2.663  -0.748  0.00  0.00    +0.040 A 
ATOM     13  C   UNL     1      -6.379  -1.940  -0.758  0.00  0.00    +0.043 A 
ATOM     14  S   UNL     1      -5.823  -0.462  -1.572  0.00  0.00    -0.052 S 
ATOM     15  H   UNL     1      -3.301   1.235  -1.697  0.00  0.00    +0.157 HD
BRANCH   3  17
ATOM     16  C   UNL     1       0.363   0.933   0.105  0.00  0.00    +0.013 C 
ATOM     17  C   UNL     1      -0.867   1.332  -0.713  0.00  0.00    +0.093 C 
ENDBRANCH   3  17
ENDBRANCH   1  11
BRANCH   1  18
ATOM     18  C   UNL     1     -10.005  -3.941   0.177  0.00  0.00    +0.141 C 
ATOM     19  S   UNL     1     -10.087  -2.231   0.178  0.00  0.00    -0.018 S 
BRANCH  18  20
ATOM     20  N   UNL     1     -11.134  -4.670   0.288  0.00  0.00    -0.264 N 
ATOM     21  C   UNL     1     -12.326  -4.053   0.401  0.00  0.00    +0.250 C 
ATOM     22  O   UNL     1     -12.384  -2.839   0.401  0.00  0.00    -0.270 OA
ATOM     23  H   UNL     1     -11.087  -5.639   0.288  0.00  0.00    +0.157 HD
BRANCH  21  24
ATOM     24  C   UNL     1     -13.563  -4.851   0.523  0.00  0.00    +0.037 A 
ATOM     25  C   UNL     1     -13.500  -6.246   0.528  0.00  0.00    +0.013 A 
ATOM     26  C   UNL     1     -14.658  -6.986   0.642  0.00  0.00    +0.004 A 
ATOM     27  C   UNL     1     -15.882  -6.349   0.751  0.00  0.00    -0.047 A 
ATOM     28  C   UNL     1     -15.952  -4.967   0.746  0.00  0.00    -0.047 A 
ATOM     29  C   UNL     1     -14.800  -4.215   0.639  0.00  0.00    +0.016 A 
ATOM     30  C   UNL     1     -17.289  -4.282   0.865  0.00  0.00    +0.044 C 
ATOM     31  C   UNL     1     -17.143  -7.163   0.876  0.00  0.00    +0.044 C 
ENDBRANCH  21  24
ENDBRANCH  18  20
ENDBRANCH   1  18
TORSDOF 5
