REMARK  Name = ZINC13079594
REMARK  11 active torsions:
REMARK  status: ('A' for Active; 'I' for Inactive)
REMARK    1  A    between atoms: C_1  and  C_2
REMARK    2  A    between atoms: C_4  and  C_29
REMARK    3  A    between atoms: C_6  and  C_28
REMARK    4  A    between atoms: C_7  and  S_8
REMARK    5  A    between atoms: S_8  and  N_11
REMARK    6  A    between atoms: N_14  and  C_17
REMARK    7  A    between atoms: C_20  and  C_26
REMARK    8  A    between atoms: C_22  and  N_23
REMARK    9  A    between atoms: C_29  and  C_30
REMARK   10  A    between atoms: C_29  and  C_31
REMARK   11  A    between atoms: C_29  and  C_32
REMARK                            x       y       z     vdW  Elec       q    Type
REMARK                         _______ _______ _______ _____ _____    ______ ____
ROOT
ATOM      1  N   UNL     1       0.572   0.111   0.051  0.00  0.00    -0.174 NA
ATOM      2  C   UNL     1       0.078   1.486   0.215  0.00  0.00    +0.128 C 
ATOM      3  C   UNL     1       1.189   2.455  -0.204  0.00  0.00    +0.122 C 
ATOM      4  N   UNL     1       2.415   2.142   0.542  0.00  0.00    -0.326 N 
ATOM      5  C   UNL     1       2.906   0.796   0.220  0.00  0.00    +0.122 C 
ATOM      6  C   UNL     1       1.866  -0.241   0.657  0.00  0.00    +0.128 C 
ENDROOT
BRANCH   4   7
ATOM      7  C   UNL     1       3.397   3.099   0.311  0.00  0.00    +0.060 A 
ATOM      8  C   UNL     1       3.927   3.255  -0.967  0.00  0.00    +0.026 A 
ATOM      9  C   UNL     1       4.892   4.193  -1.201  0.00  0.00    +0.017 A 
ATOM     10  C   UNL     1       5.350   5.002  -0.156  0.00  0.00    +0.065 A 
ATOM     11  C   UNL     1       4.819   4.847   1.128  0.00  0.00    +0.049 A 
ATOM     12  C   UNL     1       3.843   3.903   1.356  0.00  0.00    +0.148 A 
BRANCH  12  13
ATOM     13  N   UNL     1       3.274   3.739   2.712  0.00  0.00    +0.058 N 
ATOM     14  O   UNL     1       3.665   4.442   3.626  0.00  0.00    -0.126 OA
ATOM     15  O   UNL     1       2.414   2.900   2.914  0.00  0.00    -0.126 OA
ENDBRANCH  12  13
BRANCH  10  16
ATOM     16  C   UNL     1       6.391   6.014  -0.408  0.00  0.00    +0.387 C 
ATOM     17  O   UNL     1       6.789   6.716   0.501  0.00  0.00    -0.241 OA
ATOM     18  O   UNL     1       6.902   6.162  -1.646  0.00  0.00    -0.241 OA
ENDBRANCH  10  16
ENDBRANCH   4   7
BRANCH   1  19
ATOM     19  S   UNL     1      -0.305  -1.013  -0.792  0.00  0.00    +0.061 S 
ATOM     20  O   UNL     1      -0.009  -2.277  -0.214  0.00  0.00    -0.153 OA
ATOM     21  O   UNL     1      -1.630  -0.508  -0.883  0.00  0.00    -0.153 OA
BRANCH  19  28
ATOM     22  C   UNL     1       1.628  -3.101  -1.819  0.00  0.00    +0.046 C 
ATOM     23  C   UNL     1       1.215  -2.044  -2.812  0.00  0.00    -0.024 A 
ATOM     24  C   UNL     1       1.713  -2.074  -4.101  0.00  0.00    +0.009 A 
ATOM     25  C   UNL     1       1.339  -1.102  -5.009  0.00  0.00    -0.041 A 
ATOM     26  C   UNL     1       0.462  -0.102  -4.630  0.00  0.00    +0.009 A 
ATOM     27  C   UNL     1      -0.040  -0.075  -3.342  0.00  0.00    -0.024 A 
ATOM     28  C   UNL     1       0.335  -1.048  -2.434  0.00  0.00    +0.111 A 
ATOM     29  C   UNL     1      -0.995   1.015  -2.929  0.00  0.00    +0.046 C 
BRANCH  25  30
ATOM     30  C   UNL     1       1.886  -1.132  -6.413  0.00  0.00    -0.013 C 
ATOM     31  C   UNL     1       2.658   0.161  -6.687  0.00  0.00    +0.015 C 
ATOM     32  C   UNL     1       2.825  -2.329  -6.569  0.00  0.00    +0.015 C 
ATOM     33  C   UNL     1       0.730  -1.256  -7.408  0.00  0.00    +0.015 C 
ENDBRANCH  25  30
ENDBRANCH  19  28
ENDBRANCH   1  19
TORSDOF 6
