REMARK  Name = ZINC65859044
REMARK  6 active torsions:
REMARK  status: ('A' for Active; 'I' for Inactive)
REMARK    1  A    between atoms: C_1  and  C_2
REMARK    2  A    between atoms: C_2  and  N_3
REMARK    3  A    between atoms: N_3  and  C_4
REMARK    4  A    between atoms: C_6  and  C_11
REMARK    5  A    between atoms: C_9  and  C_10
REMARK    6  A    between atoms: C_12  and  C_14
REMARK                            x       y       z     vdW  Elec       q    Type
REMARK                         _______ _______ _______ _____ _____    ______ ____
ROOT
ATOM      1  N   UNL     1      -1.306  -0.656   0.015  0.00  0.00    -0.266 N 
ATOM      2  C   UNL     1      -1.958  -0.846   1.179  0.00  0.00    +0.267 C 
ATOM      3  O   UNL     1      -1.441  -0.511   2.228  0.00  0.00    -0.268 OA
ENDROOT
BRANCH   2   4
ATOM      4  C   UNL     1      -3.299  -1.459   1.181  0.00  0.00    +0.106 A 
ATOM      5  C   UNL     1      -3.403  -2.811   1.224  0.00  0.00    +0.039 A 
ATOM      6  C   UNL     1      -4.729  -3.429   1.226  0.00  0.00    -0.011 A 
ATOM      7  C   UNL     1      -4.894  -4.815   1.270  0.00  0.00    +0.009 A 
ATOM      8  C   UNL     1      -6.165  -5.347   1.271  0.00  0.00    +0.001 A 
ATOM      9  C   UNL     1      -7.280  -4.521   1.229  0.00  0.00    +0.001 A 
ATOM     10  C   UNL     1      -7.140  -3.150   1.186  0.00  0.00    +0.014 A 
ATOM     11  C   UNL     1      -5.865  -2.589   1.184  0.00  0.00    +0.046 A 
ATOM     12  C   UNL     1      -5.661  -1.134   1.140  0.00  0.00    +0.257 A 
ATOM     13  O   UNL     1      -6.617  -0.380   1.103  0.00  0.00    -0.267 OA
ATOM     14  N   UNL     1      -4.407  -0.641   1.146  0.00  0.00    -0.318 N 
ATOM     15  H   UNL     1      -4.280   0.321   1.120  0.00  0.00    +0.169 HD
ENDBRANCH   2   4
BRANCH   1  16
ATOM     16  C   UNL     1      -1.940  -0.945  -1.197  0.00  0.00    +0.040 A 
ATOM     17  C   UNL     1      -1.845  -2.216  -1.748  0.00  0.00    +0.027 A 
ATOM     18  C   UNL     1      -2.473  -2.498  -2.945  0.00  0.00    -0.049 A 
ATOM     19  C   UNL     1      -3.196  -1.515  -3.596  0.00  0.00    +0.004 A 
ATOM     20  C   UNL     1      -3.293  -0.248  -3.050  0.00  0.00    +0.005 A 
ATOM     21  C   UNL     1      -2.673   0.038  -1.850  0.00  0.00    -0.029 A 
ATOM     22  C   UNL     1      -2.784   1.417  -1.253  0.00  0.00    +0.045 C 
ATOM     23  C   UNL     1      -2.369  -3.877  -3.543  0.00  0.00    +0.044 C 
ENDBRANCH   1  16
BRANCH   1  25
ATOM     24  C   UNL     1       0.050   1.374  -0.136  0.00  0.00    +0.025 C 
ATOM     25  C   UNL     1       0.068  -0.148   0.020  0.00  0.00    +0.110 C 
ENDBRANCH   1  25
TORSDOF 3
