REMARK  Name = ZINC35361315
REMARK  10 active torsions:
REMARK  status: ('A' for Active; 'I' for Inactive)
REMARK    1  A    between atoms: C_1  and  C_2
REMARK    2  A    between atoms: C_2  and  O_3
REMARK    3  A    between atoms: O_3  and  C_4
REMARK    4  A    between atoms: C_4  and  C_6
REMARK    5  A    between atoms: C_6  and  C_35
REMARK    6  A    between atoms: C_13  and  C_34
REMARK    7  A    between atoms: C_23  and  C_33
REMARK    8  A    between atoms: C_26  and  O_29
REMARK    9  A    between atoms: O_29  and  C_30
REMARK   10  A    between atoms: C_30  and  C_32
REMARK                            x       y       z     vdW  Elec       q    Type
REMARK                         _______ _______ _______ _____ _____    ______ ____
ROOT
ATOM      1  C   UNL     1       1.529  -2.387  -2.580  0.00  0.00    +0.271 C 
ATOM      2  C   UNL     1       1.222  -3.803  -3.028  0.00  0.00    +0.125 C 
ATOM      3  O   UNL     1       0.711  -2.665  -3.723  0.00  0.00    -0.341 OA
ATOM      4  C   UNL     1       2.330  -4.667  -3.670  0.00  0.00    +0.040 C 
ATOM      5  C   UNL     1       1.930  -6.142  -3.433  0.00  0.00    +0.007 C 
ATOM      6  C   UNL     1       0.400  -6.079  -3.174  0.00  0.00    +0.002 C 
ATOM      7  C   UNL     1       0.286  -4.781  -2.332  0.00  0.00    +0.004 C 
ATOM      8  C   UNL     1      -1.140  -4.329  -2.181  0.00  0.00    +0.010 C 
ATOM      9  C   UNL     1      -1.967  -4.332  -3.455  0.00  0.00    +0.005 C 
ATOM     10  C   UNL     1      -1.771  -5.560  -4.330  0.00  0.00    +0.003 C 
ATOM     11  C   UNL     1      -0.291  -5.850  -4.513  0.00  0.00    +0.000 C 
ATOM     12  C   UNL     1      -0.079  -7.019  -5.466  0.00  0.00    +0.031 C 
ATOM     13  C   UNL     1      -0.946  -8.181  -5.086  0.00  0.00    -0.027 C 
ATOM     14  C   UNL     1      -2.061  -8.059  -4.435  0.00  0.00    -0.064 C 
ATOM     15  C   UNL     1      -2.611  -6.750  -3.936  0.00  0.00    -0.008 C 
ATOM     16  C   UNL     1      -4.028  -6.591  -4.513  0.00  0.00    +0.015 C 
ATOM     17  C   UNL     1      -4.887  -7.806  -4.179  0.00  0.00    +0.046 C 
ATOM     18  C   UNL     1      -4.276  -9.089  -4.739  0.00  0.00    +0.180 C 
ATOM     19  C   UNL     1      -2.878  -9.308  -4.152  0.00  0.00    +0.075 C 
ATOM     20  C   UNL     1      -2.741  -6.858  -2.419  0.00  0.00    +0.016 C 
ATOM     21  C   UNL     1       0.839  -5.100  -0.935  0.00  0.00    +0.014 C 
ENDROOT
BRANCH   1  22
ATOM     22  C   UNL     1       2.909  -1.833  -2.862  0.00  0.00    +0.257 C 
ATOM     23  O   UNL     1       3.867  -2.575  -2.887  0.00  0.00    -0.272 OA
ATOM     24  N   UNL     1       3.072  -0.514  -3.087  0.00  0.00    -0.326 N 
ATOM     25  H   UNL     1       2.306   0.080  -3.068  0.00  0.00    +0.145 HD
ATOM     26  H   UNL     1       3.957  -0.159  -3.268  0.00  0.00    +0.145 HD
ENDBRANCH   1  22
BRANCH   1  27
ATOM     27  C   UNL     1       0.861  -1.797  -1.369  0.00  0.00    +0.352 C 
ATOM     28  O   UNL     1       1.253  -2.084  -0.263  0.00  0.00    -0.247 OA
BRANCH  27  29
ATOM     29  O   UNL     1      -0.172  -0.952  -1.516  0.00  0.00    -0.462 OA
BRANCH  29  31
ATOM     30  C   UNL     1      -1.912   0.507  -0.689  0.00  0.00    +0.048 C 
ATOM     31  C   UNL     1      -0.759  -0.430  -0.323  0.00  0.00    +0.229 C 
ENDBRANCH  29  31
ENDBRANCH  27  29
ENDBRANCH   1  27
BRANCH  18  32
ATOM     32  O   UNL     1      -5.111 -10.199  -4.400  0.00  0.00    -0.461 OA
BRANCH  32  33
ATOM     33  C   UNL     1      -5.122 -11.236  -5.252  0.00  0.00    +0.304 C 
ATOM     34  O   UNL     1      -4.445 -11.203  -6.253  0.00  0.00    -0.251 OA
ATOM     35  C   UNL     1      -5.977 -12.442  -4.960  0.00  0.00    +0.136 C 
ENDBRANCH  32  33
ENDBRANCH  18  32
TORSDOF 6
