REMARK  Name = ZINC54114290
REMARK  7 active torsions:
REMARK  status: ('A' for Active; 'I' for Inactive)
REMARK    1  A    between atoms: C_6  and  C_12
REMARK    2  A    between atoms: C_7  and  O_11
REMARK    3  A    between atoms: C_12  and  C_14
REMARK    4  A    between atoms: C_12  and  N_24
REMARK    5  A    between atoms: C_17  and  O_20
REMARK    6  A    between atoms: O_20  and  C_21
REMARK    7  A    between atoms: C_26  and  O_31
REMARK                            x       y       z     vdW  Elec       q    Type
REMARK                         _______ _______ _______ _____ _____    ______ ____
ROOT
ATOM      1  C   UNL     1       5.983  -0.927  -0.062  0.00  0.00    +0.136 C 
ENDROOT
BRANCH   1   7
ATOM      2  C   UNL     1       0.271   2.032  -0.214  0.00  0.00    +0.020 A 
ATOM      3  C   UNL     1       1.514   2.591  -0.128  0.00  0.00    +0.011 A 
ATOM      4  C   UNL     1       2.629   1.732  -0.110  0.00  0.00    +0.004 A 
ATOM      5  C   UNL     1       3.938   2.234  -0.022  0.00  0.00    +0.010 A 
ATOM      6  C   UNL     1       4.992   1.373  -0.008  0.00  0.00    +0.010 A 
ATOM      7  C   UNL     1       4.793  -0.004  -0.080  0.00  0.00    +0.021 A 
ATOM      8  C   UNL     1       3.535  -0.529  -0.166  0.00  0.00    +0.148 A 
ATOM      9  C   UNL     1       2.419   0.333  -0.183  0.00  0.00    +0.113 A 
ATOM     10  N   UNL     1       1.176  -0.149  -0.266  0.00  0.00    -0.251 NA
ATOM     11  C   UNL     1       0.135   0.647  -0.283  0.00  0.00    +0.111 A 
BRANCH   8  12
ATOM     12  O   UNL     1       3.360  -1.874  -0.236  0.00  0.00    -0.504 OA
ATOM     13  H   UNL     1       3.266  -2.304   0.625  0.00  0.00    +0.292 HD
ENDBRANCH   8  12
ENDBRANCH   1   7
BRANCH   1  14
ATOM     14  N   UNL     1       7.102  -0.270   0.618  0.00  0.00    -0.315 N 
ATOM     15  C   UNL     1       7.224  -0.357   2.002  0.00  0.00    +0.161 A 
ATOM     16  C   UNL     1       8.348   0.178   2.633  0.00  0.00    +0.157 A 
ATOM     17  C   UNL     1       8.453   0.084   4.013  0.00  0.00    +0.050 A 
ATOM     18  C   UNL     1       7.431  -0.543   4.713  0.00  0.00    +0.023 A 
ATOM     19  C   UNL     1       6.349  -1.049   4.023  0.00  0.00    +0.113 A 
ATOM     20  N   UNL     1       6.271  -0.941   2.709  0.00  0.00    -0.237 NA
ATOM     21  H   UNL     1       7.758   0.226   0.103  0.00  0.00    +0.148 HD
BRANCH  16  22
ATOM     22  O   UNL     1       9.325   0.783   1.906  0.00  0.00    -0.503 OA
ATOM     23  H   UNL     1       9.191   1.733   1.780  0.00  0.00    +0.292 HD
ENDBRANCH  16  22
ENDBRANCH   1  14
BRANCH   1  24
ATOM     24  C   UNL     1       6.381  -1.261  -1.477  0.00  0.00    -0.023 A 
ATOM     25  C   UNL     1       7.034  -0.319  -2.250  0.00  0.00    +0.009 A 
ATOM     26  C   UNL     1       7.400  -0.622  -3.548  0.00  0.00    +0.046 A 
ATOM     27  C   UNL     1       7.111  -1.873  -4.074  0.00  0.00    +0.127 A 
ATOM     28  C   UNL     1       6.456  -2.816  -3.296  0.00  0.00    +0.046 A 
ATOM     29  C   UNL     1       6.098  -2.510  -1.997  0.00  0.00    +0.009 A 
BRANCH  27  30
ATOM     30  O   UNL     1       7.469  -2.173  -5.350  0.00  0.00    -0.434 OA
BRANCH  30  31
ATOM     31  C   UNL     1       7.140  -3.480  -5.826  0.00  0.00    +0.541 C 
ATOM     32  F   UNL     1       7.767  -4.440  -5.024  0.00  0.00    -0.166 F 
ATOM     33  F   UNL     1       5.754  -3.661  -5.772  0.00  0.00    -0.166 F 
ENDBRANCH  30  31
ENDBRANCH  27  30
ENDBRANCH   1  24
TORSDOF 7
