REMARK  Name = ZINC12548369
REMARK  6 active torsions:
REMARK  status: ('A' for Active; 'I' for Inactive)
REMARK    1  A    between atoms: C_1  and  C_2
REMARK    2  A    between atoms: C_2  and  C_19
REMARK    3  A    between atoms: N_5  and  C_9
REMARK    4  A    between atoms: C_9  and  C_10
REMARK    5  A    between atoms: C_19  and  C_20
REMARK    6  A    between atoms: C_20  and  C_21
REMARK                            x       y       z     vdW  Elec       q    Type
REMARK                         _______ _______ _______ _____ _____    ______ ____
ROOT
ATOM      1  C   UNL     1       1.762  -1.218   1.237  0.00  0.00    +0.041 C 
ATOM      2  C   UNL     1       1.419  -0.406  -0.014  0.00  0.00    +0.110 C 
ATOM      3  C   UNL     1       2.164   0.914  -0.014  0.00  0.00    +0.247 C 
ATOM      4  O   UNL     1       3.365   1.077  -0.025  0.00  0.00    -0.273 OA
ATOM      5  N   UNL     1       1.213   1.869   0.001  0.00  0.00    -0.218 N 
ATOM      6  C   UNL     1      -0.016   1.341   0.009  0.00  0.00    +0.310 C 
ATOM      7  O   UNL     1      -1.036   2.003   0.018  0.00  0.00    -0.252 OA
ATOM      8  N   UNL     1       0.002  -0.004   0.002  0.00  0.00    -0.285 N 
ATOM      9  H   UNL     1      -0.768  -0.594   0.006  0.00  0.00    +0.151 HD
ENDROOT
BRANCH   5  10
ATOM     10  C   UNL     1       1.491   3.307   0.005  0.00  0.00    +0.175 C 
BRANCH  10  11
ATOM     11  C   UNL     1       1.600   3.794   1.427  0.00  0.00    +0.078 A 
ATOM     12  C   UNL     1       2.747   3.924   2.129  0.00  0.00    +0.117 A 
ATOM     13  N   UNL     1       2.410   4.395   3.369  0.00  0.00    -0.306 N 
ATOM     14  C   UNL     1       3.152   4.709   4.471  0.00  0.00    +0.092 A 
ATOM     15  C   UNL     1       2.556   5.158   5.595  0.00  0.00    +0.018 A 
ATOM     16  C   UNL     1       1.161   5.308   5.647  0.00  0.00    +0.005 A 
ATOM     17  C   UNL     1       0.409   4.999   4.556  0.00  0.00    +0.047 A 
ATOM     18  C   UNL     1       1.046   4.531   3.389  0.00  0.00    +0.138 A 
ATOM     19  N   UNL     1       0.579   4.162   2.204  0.00  0.00    -0.231 NA
ENDBRANCH  10  11
ENDBRANCH   5  10
BRANCH   2  20
ATOM     20  C   UNL     1       1.738  -1.204  -1.279  0.00  0.00    +0.039 C 
BRANCH  20  21
ATOM     21  C   UNL     1       0.805  -2.413  -1.369  0.00  0.00    +0.037 C 
BRANCH  21  22
ATOM     22  C   UNL     1       1.119  -3.200  -2.615  0.00  0.00    -0.047 A 
ATOM     23  C   UNL     1       0.468  -2.908  -3.799  0.00  0.00    +0.003 A 
ATOM     24  C   UNL     1       0.759  -3.626  -4.944  0.00  0.00    +0.000 A 
ATOM     25  C   UNL     1       1.695  -4.642  -4.902  0.00  0.00    +0.000 A 
ATOM     26  C   UNL     1       2.343  -4.937  -3.717  0.00  0.00    +0.000 A 
ATOM     27  C   UNL     1       2.055  -4.216  -2.574  0.00  0.00    +0.003 A 
ENDBRANCH  21  22
ENDBRANCH  20  21
ENDBRANCH   2  20
TORSDOF 5
