REMARK  Name = ZINC03039851
REMARK  7 active torsions:
REMARK  status: ('A' for Active; 'I' for Inactive)
REMARK    1  A    between atoms: C_3  and  N_8
REMARK    2  A    between atoms: C_9  and  C_11
REMARK    3  A    between atoms: C_11  and  C_12
REMARK    4  A    between atoms: C_12  and  C_13
REMARK    5  A    between atoms: C_13  and  C_14
REMARK    6  A    between atoms: N_16  and  N_17
REMARK    7  A    between atoms: C_18  and  C_19
REMARK                            x       y       z     vdW  Elec       q    Type
REMARK                         _______ _______ _______ _____ _____    ______ ____
ROOT
ATOM      1  C   UNL     1      -2.345   4.163   0.043  0.00  0.00    +0.232 C 
ATOM      2  O   UNL     1      -3.387   3.542   0.036  0.00  0.00    -0.274 OA
ATOM      3  N   UNL     1      -1.169   3.505   0.041  0.00  0.00    -0.207 N 
ATOM      4  H   UNL     1      -0.336   4.001   0.046  0.00  0.00    +0.177 HD
ENDROOT
BRANCH   3   5
ATOM      5  N   UNL     1      -1.150   2.104   0.029  0.00  0.00    -0.188 NA
ATOM      6  C   UNL     1      -0.017   1.470   0.026  0.00  0.00    +0.138 C 
BRANCH   6   7
ATOM      7  C   UNL     1       0.003  -0.004   0.015  0.00  0.00    -0.002 A 
ATOM      8  C   UNL     1      -1.196  -0.721   0.018  0.00  0.00    +0.013 A 
ATOM      9  C   UNL     1      -1.175  -2.099   0.001  0.00  0.00    +0.050 A 
ATOM     10  C   UNL     1       0.035  -2.779  -0.008  0.00  0.00    +0.166 A 
ATOM     11  C   UNL     1       1.236  -2.070  -0.005  0.00  0.00    +0.167 A 
ATOM     12  C   UNL     1       1.221  -0.687   0.006  0.00  0.00    +0.059 A 
ATOM     13  O   UNL     1       2.269  -2.962  -0.015  0.00  0.00    -0.453 OA
ATOM     14  C   UNL     1       1.693  -4.212  -0.437  0.00  0.00    +0.466 C 
ATOM     15  O   UNL     1       0.319  -4.114  -0.019  0.00  0.00    -0.453 OA
ENDBRANCH   6   7
ENDBRANCH   3   5
BRANCH   1  16
ATOM     16  C   UNL     1      -2.366   5.670   0.056  0.00  0.00    +0.098 C 
BRANCH  16  17
ATOM     17  C   UNL     1      -3.815   6.160   0.056  0.00  0.00    +0.018 C 
BRANCH  17  18
ATOM     18  C   UNL     1      -3.836   7.690   0.069  0.00  0.00    +0.096 C 
BRANCH  18  20
ATOM     19  N   UNL     1      -5.528   9.494   0.080  0.00  0.00    -0.285 N 
ATOM     20  C   UNL     1      -5.264   8.172   0.070  0.00  0.00    +0.217 C 
ATOM     21  O   UNL     1      -6.175   7.372   0.061  0.00  0.00    -0.275 OA
ATOM     22  H   UNL     1      -4.802  10.133   0.154  0.00  0.00    +0.155 HD
BRANCH  19  25
ATOM     23  C   UNL     1      -8.442  11.557  -0.799  0.00  0.00    +0.003 A 
ATOM     24  C   UNL     1      -7.136  11.118  -0.701  0.00  0.00    +0.023 A 
ATOM     25  C   UNL     1      -6.849   9.944  -0.017  0.00  0.00    +0.034 A 
ATOM     26  C   UNL     1      -7.876   9.220   0.575  0.00  0.00    +0.038 A 
ATOM     27  C   UNL     1      -9.180   9.667   0.478  0.00  0.00    +0.020 A 
ATOM     28  C   UNL     1      -9.463  10.835  -0.209  0.00  0.00    +0.015 A 
ATOM     29 BR   UNL     1     -10.579   8.683   1.284  0.00  0.00    -0.050 Br
ENDBRANCH  19  25
ENDBRANCH  18  20
ENDBRANCH  17  18
ENDBRANCH  16  17
ENDBRANCH   1  16
TORSDOF 7
