REMARK  Name = ZINC33276311
REMARK  6 active torsions:
REMARK  status: ('A' for Active; 'I' for Inactive)
REMARK    1  A    between atoms: C_1  and  S_2
REMARK    2  A    between atoms: S_2  and  N_5
REMARK    3  A    between atoms: N_5  and  C_6
REMARK    4  A    between atoms: C_9  and  C_12
REMARK    5  A    between atoms: C_14  and  C_17
REMARK    6  A    between atoms: C_17  and  C_18
REMARK                            x       y       z     vdW  Elec       q    Type
REMARK                         _______ _______ _______ _____ _____    ______ ____
ROOT
ATOM      1  C   UNL     1       3.776   1.450  -3.202  0.00  0.00    +0.202 A 
ATOM      2  N   UNL     1       3.665   2.182  -2.070  0.00  0.00    -0.191 NA
ATOM      3  C   UNL     1       2.929   1.465  -1.258  0.00  0.00    +0.232 A 
ATOM      4  O   UNL     1       2.621   0.334  -1.901  0.00  0.00    -0.337 OA
ATOM      5  N   UNL     1       3.107   0.342  -3.012  0.00  0.00    -0.056 NA
ENDROOT
BRANCH   1   9
ATOM      6  C   UNL     1       5.901   2.546  -6.720  0.00  0.00    +0.048 A 
ATOM      7  C   UNL     1       5.234   1.328  -6.663  0.00  0.00    +0.025 A 
ATOM      8  C   UNL     1       4.545   0.971  -5.524  0.00  0.00    +0.013 A 
ATOM      9  C   UNL     1       4.518   1.832  -4.428  0.00  0.00    +0.023 A 
ATOM     10  C   UNL     1       5.183   3.056  -4.489  0.00  0.00    +0.013 A 
ATOM     11  C   UNL     1       5.875   3.407  -5.628  0.00  0.00    +0.025 A 
BRANCH   6  12
ATOM     12  N   UNL     1       6.598   2.906  -7.873  0.00  0.00    -0.221 N 
ATOM     13  H   UNL     1       7.697   2.857  -7.889  0.00  0.00    +0.173 HD
BRANCH  12  15
ATOM     14  C   UNL     1       4.954   4.945  -8.716  0.00  0.00    +0.218 C 
ATOM     15  S   UNL     1       5.772   3.406  -9.218  0.00  0.00    +0.040 S 
ATOM     16  O   UNL     1       6.779   3.678 -10.182  0.00  0.00    -0.155 OA
ATOM     17  O   UNL     1       4.805   2.390  -9.447  0.00  0.00    -0.155 OA
ENDBRANCH  12  15
ENDBRANCH   6  12
ENDBRANCH   1   9
BRANCH   3  18
ATOM     18  C   UNL     1       2.512   1.842   0.140  0.00  0.00    +0.134 C 
BRANCH  18  19
ATOM     19  C   UNL     1       1.202   2.586   0.091  0.00  0.00    -0.036 A 
ATOM     20  C   UNL     1       1.193   3.962  -0.035  0.00  0.00    +0.004 A 
ATOM     21  C   UNL     1      -0.007   4.646  -0.080  0.00  0.00    +0.003 A 
ATOM     22  C   UNL     1      -1.201   3.954   0.001  0.00  0.00    +0.038 A 
ATOM     23  C   UNL     1      -1.194   2.574   0.119  0.00  0.00    +0.124 A 
ATOM     24  C   UNL     1       0.010   1.891   0.171  0.00  0.00    +0.042 A 
ATOM     25  F   UNL     1      -2.360   1.896   0.191  0.00  0.00    -0.205 F 
ENDBRANCH  18  19
ENDBRANCH   3  18
TORSDOF 5
