REMARK  Name = ZINC61770608
REMARK  6 active torsions:
REMARK  status: ('A' for Active; 'I' for Inactive)
REMARK    1  A    between atoms: C_1  and  C_2
REMARK    2  A    between atoms: C_4  and  C_7
REMARK    3  A    between atoms: C_7  and  N_8
REMARK    4  A    between atoms: N_11  and  C_12
REMARK    5  A    between atoms: C_14  and  C_19
REMARK    6  A    between atoms: N_21  and  C_22
REMARK                            x       y       z     vdW  Elec       q    Type
REMARK                         _______ _______ _______ _____ _____    ______ ____
ROOT
ATOM      1  N   UNL     1       1.423  -3.685  -1.941  0.00  0.00    -0.292 N 
ATOM      2  C   UNL     1       1.681  -4.753  -2.722  0.00  0.00    +0.304 C 
ATOM      3  O   UNL     1       0.763  -5.403  -3.184  0.00  0.00    -0.252 OA
ATOM      4  N   UNL     1       2.955  -5.100  -2.990  0.00  0.00    -0.268 N 
ATOM      5  H   UNL     1       2.155  -3.166  -1.573  0.00  0.00    +0.151 HD
ATOM      6  H   UNL     1       3.686  -4.544  -2.676  0.00  0.00    +0.156 HD
ENDROOT
BRANCH   4   7
ATOM      7  C   UNL     1       3.225  -6.263  -3.723  0.00  0.00    +0.054 A 
ATOM      8  C   UNL     1       2.367  -6.658  -4.736  0.00  0.00    +0.038 A 
ATOM      9  C   UNL     1       2.640  -7.817  -5.463  0.00  0.00    +0.039 A 
ATOM     10  C   UNL     1       3.776  -8.572  -5.165  0.00  0.00    +0.014 A 
ATOM     11  C   UNL     1       4.624  -8.171  -4.153  0.00  0.00    +0.022 A 
ATOM     12  C   UNL     1       4.357  -7.018  -3.436  0.00  0.00    +0.062 A 
ATOM     13 CL   UNL     1       5.434  -6.517  -2.170  0.00  0.00    -0.082 Cl
BRANCH   9  14
ATOM     14  C   UNL     1       1.729  -8.245  -6.545  0.00  0.00    +0.244 C 
ATOM     15  O   UNL     1       0.740  -7.587  -6.803  0.00  0.00    -0.270 OA
ATOM     16  N   UNL     1       1.994  -9.365  -7.246  0.00  0.00    -0.314 N 
ATOM     17  C   UNL     1       1.091  -9.789  -8.319  0.00  0.00    +0.128 C 
ATOM     18  H   UNL     1       2.784  -9.890  -7.040  0.00  0.00    +0.149 HD
ENDBRANCH   9  14
ENDBRANCH   4   7
BRANCH   1  19
ATOM     19  C   UNL     1       0.038  -3.308  -1.649  0.00  0.00    +0.183 C 
BRANCH  19  23
ATOM     20  C   UNL     1      -0.019   1.527  -0.043  0.00  0.00    +0.069 C 
ATOM     21  C   UNL     1       0.001   0.020  -0.041  0.00  0.00    +0.081 A 
ATOM     22  C   UNL     1       0.008  -0.808  -1.177  0.00  0.00    +0.072 A 
ATOM     23  C   UNL     1       0.026  -2.089  -0.762  0.00  0.00    +0.154 A 
ATOM     24  O   UNL     1       0.029  -2.091   0.579  0.00  0.00    -0.358 OA
ATOM     25  N   UNL     1       0.019  -0.743   1.015  0.00  0.00    -0.083 NA
ENDBRANCH  19  23
ENDBRANCH   1  19
TORSDOF 4
