REMARK  Name = ZINC42603059
REMARK  7 active torsions:
REMARK  status: ('A' for Active; 'I' for Inactive)
REMARK    1  A    between atoms: C_1  and  C_2
REMARK    2  A    between atoms: C_8  and  N_10
REMARK    3  A    between atoms: N_10  and  C_11
REMARK    4  A    between atoms: N_10  and  C_12
REMARK    5  A    between atoms: C_15  and  S_19
REMARK    6  A    between atoms: C_17  and  N_18
REMARK    7  A    between atoms: S_19  and  N_22
REMARK                            x       y       z     vdW  Elec       q    Type
REMARK                         _______ _______ _______ _____ _____    ______ ____
ROOT
ATOM      1  C   UNL     1       2.255   0.617   2.806  0.00  0.00    +0.051 A 
ATOM      2  C   UNL     1       2.589  -0.182   3.889  0.00  0.00    +0.027 A 
ATOM      3  C   UNL     1       3.313   0.347   4.942  0.00  0.00    +0.030 A 
ATOM      4  C   UNL     1       3.704   1.673   4.919  0.00  0.00    +0.107 A 
ATOM      5  C   UNL     1       3.376   2.477   3.844  0.00  0.00    +0.053 A 
ATOM      6  C   UNL     1       2.655   1.953   2.781  0.00  0.00    +0.048 A 
ENDROOT
BRANCH   6   7
ATOM      7  N   UNL     1       2.325   2.764   1.688  0.00  0.00    -0.356 N 
ATOM      8  H   UNL     1       1.983   2.364   0.873  0.00  0.00    +0.142 HD
ATOM      9  H   UNL     1       2.439   3.726   1.746  0.00  0.00    +0.142 HD
ENDBRANCH   6   7
BRANCH   4  10
ATOM     10  S   UNL     1       4.625   2.339   6.265  0.00  0.00    +0.056 S 
ATOM     11  O   UNL     1       4.401   3.743   6.255  0.00  0.00    -0.153 OA
ATOM     12  O   UNL     1       4.335   1.530   7.396  0.00  0.00    -0.153 OA
BRANCH  10  13
ATOM     13  N   UNL     1       6.229   2.114   5.920  0.00  0.00    -0.204 NA
ATOM     14  H   UNL     1       6.890   2.740   6.256  0.00  0.00    +0.144 HD
ATOM     15  H   UNL     1       6.508   1.356   5.383  0.00  0.00    +0.144 HD
ENDBRANCH  10  13
ENDBRANCH   4  10
BRANCH   1  16
ATOM     16  N   UNL     1       1.523   0.083   1.739  0.00  0.00    -0.328 N 
ATOM     17  C   UNL     1       2.209  -0.318   0.508  0.00  0.00    +0.129 C 
BRANCH  16  24
ATOM     18  C   UNL     1       0.397  -1.763   3.665  0.00  0.00    +0.009 C 
ATOM     19  C   UNL     1      -0.290  -0.448   3.292  0.00  0.00    +0.006 C 
ATOM     20  C   UNL     1       0.178   0.659   4.238  0.00  0.00    +0.005 C 
ATOM     21  C   UNL     1      -0.508   1.974   3.864  0.00  0.00    +0.000 C 
ATOM     22  C   UNL     1      -0.147   2.347   2.425  0.00  0.00    +0.002 C 
ATOM     23  C   UNL     1      -0.616   1.240   1.478  0.00  0.00    +0.023 C 
ATOM     24  C   UNL     1       0.071  -0.075   1.852  0.00  0.00    +0.076 C 
ENDBRANCH  16  24
ENDBRANCH   1  16
TORSDOF 5
