REMARK  Name = ZINC59006603
REMARK  10 active torsions:
REMARK  status: ('A' for Active; 'I' for Inactive)
REMARK    1  A    between atoms: C_1  and  C_2
REMARK    2  A    between atoms: C_2  and  C_3
REMARK    3  A    between atoms: C_3  and  C_4
REMARK    4  A    between atoms: C_4  and  S_5
REMARK    5  A    between atoms: S_5  and  C_6
REMARK    6  A    between atoms: C_12  and  C_14
REMARK    7  A    between atoms: C_14  and  S_15
REMARK    8  A    between atoms: S_15  and  C_16
REMARK    9  A    between atoms: N_21  and  N_22
REMARK   10  A    between atoms: C_23  and  C_24
REMARK                            x       y       z     vdW  Elec       q    Type
REMARK                         _______ _______ _______ _____ _____    ______ ____
ROOT
ATOM      1  C   UNL     1      -1.349 -13.412  -0.055  0.00  0.00    +0.211 A 
ATOM      2  N   UNL     1      -0.504 -14.449  -0.059  0.00  0.00    -0.186 NA
ATOM      3  C   UNL     1      -1.185 -15.576  -0.065  0.00  0.00    +0.232 A 
ATOM      4  N   UNL     1      -2.500 -15.267  -0.065  0.00  0.00    -0.245 N 
ATOM      5  N   UNL     1      -2.580 -13.866  -0.053  0.00  0.00    -0.144 NA
ATOM      6  N   UNL     1      -0.649 -16.849  -0.072  0.00  0.00    -0.205 N 
ATOM      7  H   UNL     1      -1.236 -17.622  -0.076  0.00  0.00    +0.177 HD
ATOM      8  H   UNL     1      -3.243 -15.891  -0.070  0.00  0.00    +0.192 HD
ENDROOT
BRANCH   6   9
ATOM      9  N   UNL     1       0.741 -17.024  -0.071  0.00  0.00    -0.187 NA
ATOM     10  C   UNL     1       1.244 -18.222  -0.077  0.00  0.00    +0.140 C 
BRANCH  10  11
ATOM     11  C   UNL     1       2.705 -18.406  -0.076  0.00  0.00    +0.020 A 
ATOM     12  C   UNL     1       3.375 -19.589  -0.088  0.00  0.00    +0.093 A 
ATOM     13  N   UNL     1       4.720 -19.356  -0.083  0.00  0.00    -0.360 N 
ATOM     14  H   UNL     1       5.402 -20.045  -0.090  0.00  0.00    +0.165 HD
ATOM     15  C   UNL     1       4.969 -18.000  -0.068  0.00  0.00    +0.047 A 
ATOM     16  C   UNL     1       3.727 -17.344  -0.070  0.00  0.00    +0.008 A 
ATOM     17  C   UNL     1       3.673 -15.951  -0.062  0.00  0.00    +0.010 A 
ATOM     18  C   UNL     1       4.843 -15.224  -0.057  0.00  0.00    +0.001 A 
ATOM     19  C   UNL     1       6.071 -15.871  -0.059  0.00  0.00    +0.002 A 
ATOM     20  C   UNL     1       6.139 -17.247  -0.058  0.00  0.00    +0.026 A 
ENDBRANCH  10  11
ENDBRANCH   6   9
BRANCH   1  21
ATOM     21  S   UNL     1      -0.884 -11.713  -0.046  0.00  0.00    -0.075 S 
BRANCH  21  22
ATOM     22  C   UNL     1      -2.466 -10.825  -0.035  0.00  0.00    +0.173 C 
BRANCH  22  29
ATOM     23  C   UNL     1      -2.923  -4.443   0.006  0.00  0.00    +0.160 A 
ATOM     24  N   UNL     1      -1.821  -5.179  -0.003  0.00  0.00    -0.133 NA
ATOM     25  N   UNL     1      -1.862  -6.440  -0.010  0.00  0.00    -0.125 NA
ATOM     26  C   UNL     1      -3.006  -7.105  -0.010  0.00  0.00    +0.189 A 
ATOM     27  S   UNL     1      -4.160  -5.737   0.011  0.00  0.00    -0.024 S 
ATOM     28  N   UNL     1      -3.243  -8.477  -0.017  0.00  0.00    -0.263 N 
ATOM     29  C   UNL     1      -2.208  -9.340  -0.026  0.00  0.00    +0.229 C 
ATOM     30  O   UNL     1      -1.070  -8.922  -0.028  0.00  0.00    -0.275 OA
ATOM     31  H   UNL     1      -4.154  -8.811  -0.016  0.00  0.00    +0.157 HD
BRANCH  23  32
ATOM     32  S   UNL     1      -3.114  -2.691   0.017  0.00  0.00    -0.097 S 
BRANCH  32  33
ATOM     33  C   UNL     1      -1.413  -2.063   0.004  0.00  0.00    +0.076 C 
BRANCH  33  34
ATOM     34  C   UNL     1      -1.433  -0.534   0.013  0.00  0.00    +0.011 C 
BRANCH  34  36
ATOM     35  C   UNL     1      -0.019   1.526   0.010  0.00  0.00    +0.004 C 
ATOM     36  C   UNL     1       0.002  -0.004   0.002  0.00  0.00    -0.003 C 
ENDBRANCH  34  36
ENDBRANCH  33  34
ENDBRANCH  32  33
ENDBRANCH  23  32
ENDBRANCH  22  29
ENDBRANCH  21  22
ENDBRANCH   1  21
TORSDOF 9
