REMARK  Name = ZINC03271587
REMARK  10 active torsions:
REMARK  status: ('A' for Active; 'I' for Inactive)
REMARK    1  A    between atoms: C_1  and  C_2
REMARK    2  A    between atoms: C_5  and  C_8
REMARK    3  A    between atoms: C_11  and  S_14
REMARK    4  A    between atoms: N_12  and  N_13
REMARK    5  A    between atoms: S_14  and  C_15
REMARK    6  A    between atoms: C_15  and  C_16
REMARK    7  A    between atoms: C_16  and  C_18
REMARK    8  A    between atoms: C_20  and  C_29
REMARK    9  A    between atoms: C_20  and  C_30
REMARK   10  A    between atoms: N_27  and  C_28
REMARK                            x       y       z     vdW  Elec       q    Type
REMARK                         _______ _______ _______ _____ _____    ______ ____
ROOT
ATOM      1  S   UNL     1       0.813   7.666  -3.393  0.00  0.00    -0.077 S 
ENDROOT
BRANCH   1   5
ATOM      2  C   UNL     1       1.800  10.399  -6.005  0.00  0.00    +0.182 A 
ATOM      3  N   UNL     1       2.621   9.416  -6.293  0.00  0.00    -0.127 NA
ATOM      4  N   UNL     1       2.416   8.427  -5.499  0.00  0.00    -0.121 NA
ATOM      5  C   UNL     1       1.445   8.714  -4.660  0.00  0.00    +0.209 A 
ATOM      6  N   UNL     1       1.021   9.980  -4.951  0.00  0.00    -0.224 N 
BRANCH   2  11
ATOM      7  C   UNL     1       1.512  15.499  -8.655  0.00  0.00    +0.044 C 
ATOM      8  C   UNL     1       1.587  14.163  -7.962  0.00  0.00    -0.050 A 
ATOM      9  C   UNL     1       1.014  14.003  -6.712  0.00  0.00    +0.004 A 
ATOM     10  C   UNL     1       1.080  12.783  -6.071  0.00  0.00    +0.012 A 
ATOM     11  C   UNL     1       1.725  11.709  -6.686  0.00  0.00    +0.021 A 
ATOM     12  C   UNL     1       2.305  11.879  -7.945  0.00  0.00    +0.012 A 
ATOM     13  C   UNL     1       2.228  13.103  -8.577  0.00  0.00    +0.004 A 
ENDBRANCH   2  11
BRANCH   6  14
ATOM     14  N   UNL     1       0.032  10.683  -4.325  0.00  0.00    -0.295 N 
ATOM     15  H   UNL     1       0.413  11.291  -3.616  0.00  0.00    +0.163 HD
ATOM     16  H   UNL     1      -0.517  11.205  -4.991  0.00  0.00    +0.163 HD
ENDBRANCH   6  14
ENDBRANCH   1   5
BRANCH   1  17
ATOM     17  C   UNL     1       1.858   6.209  -3.641  0.00  0.00    +0.156 C 
BRANCH  17  18
ATOM     18  C   UNL     1       1.485   5.148  -2.638  0.00  0.00    +0.168 C 
ATOM     19  O   UNL     1       0.599   5.356  -1.833  0.00  0.00    -0.292 OA
BRANCH  18  20
ATOM     20  C   UNL     1       2.162   3.920  -2.633  0.00  0.00    +0.067 C 
ATOM     21  C   UNL     1       1.560   2.817  -2.124  0.00  0.00    +0.024 C 
ATOM     22  C   UNL     1       2.250   1.609  -1.525  0.00  0.00    +0.030 C 
ATOM     23  C   UNL     1       1.114   0.696  -1.123  0.00  0.00    -0.015 A 
ATOM     24  C   UNL     1       1.081  -0.546  -0.530  0.00  0.00    +0.006 A 
ATOM     25  C   UNL     1      -0.134  -1.158  -0.276  0.00  0.00    +0.000 A 
ATOM     26  C   UNL     1      -1.312  -0.519  -0.618  0.00  0.00    +0.002 A 
ATOM     27  C   UNL     1      -1.282   0.725  -1.213  0.00  0.00    +0.024 A 
ATOM     28  C   UNL     1      -0.062   1.348  -1.472  0.00  0.00    +0.038 A 
ATOM     29  N   UNL     1       0.222   2.583  -2.054  0.00  0.00    -0.305 N 
ATOM     30  C   UNL     1      -0.799   3.517  -2.534  0.00  0.00    +0.135 C 
ATOM     31  C   UNL     1       3.070   2.015  -0.298  0.00  0.00    +0.022 C 
ATOM     32  C   UNL     1       3.141   0.929  -2.566  0.00  0.00    +0.022 C 
ENDBRANCH  18  20
ENDBRANCH  17  18
ENDBRANCH   1  17
TORSDOF 6
