REMARK  Name = ZINC63078897
REMARK  6 active torsions:
REMARK  status: ('A' for Active; 'I' for Inactive)
REMARK    1  A    between atoms: C_1  and  C_2
REMARK    2  A    between atoms: C_2  and  O_3
REMARK    3  A    between atoms: O_3  and  C_4
REMARK    4  A    between atoms: N_9  and  C_11
REMARK    5  A    between atoms: C_11  and  C_12
REMARK    6  A    between atoms: N_18  and  C_21
REMARK                            x       y       z     vdW  Elec       q    Type
REMARK                         _______ _______ _______ _____ _____    ______ ____
ROOT
ATOM      1  C   UNL     1       3.539  -5.681   2.551  0.00  0.00    +0.147 A 
ATOM      2  N   UNL     1       3.078  -6.449   3.522  0.00  0.00    -0.216 NA
ATOM      3  C   UNL     1       3.177  -7.773   3.457  0.00  0.00    +0.131 A 
ATOM      4  C   UNL     1       3.786  -8.344   2.323  0.00  0.00    +0.078 A 
ATOM      5  C   UNL     1       4.066  -9.662   1.905  0.00  0.00    +0.148 A 
ATOM      6  N   UNL     1       4.658  -9.611   0.746  0.00  0.00    -0.177 NA
ATOM      7  N   UNL     1       4.797  -8.275   0.346  0.00  0.00    -0.249 N 
ATOM      8  C   UNL     1       4.261  -7.481   1.316  0.00  0.00    +0.163 A 
ATOM      9  N   UNL     1       4.110  -6.167   1.472  0.00  0.00    -0.211 NA
ATOM     10  C   UNL     1       5.413  -7.812  -0.899  0.00  0.00    +0.174 C 
ATOM     11  N   UNL     1       2.693  -8.569   4.477  0.00  0.00    -0.342 N 
ATOM     12  H   UNL     1       2.276  -8.163   5.253  0.00  0.00    +0.144 HD
ATOM     13  H   UNL     1       2.771  -9.534   4.417  0.00  0.00    +0.144 HD
ENDROOT
BRANCH   1  14
ATOM     14  C   UNL     1       3.397  -4.186   2.683  0.00  0.00    +0.160 C 
BRANCH  14  19
ATOM     15  C   UNL     1       0.770  -1.902   1.249  0.00  0.00    +0.132 C 
ATOM     16  C   UNL     1      -0.445  -2.432   2.016  0.00  0.00    +0.034 C 
ATOM     17  C   UNL     1      -0.324  -3.951   2.159  0.00  0.00    +0.018 C 
ATOM     18  C   UNL     1       0.986  -4.289   2.874  0.00  0.00    +0.085 C 
ATOM     19  N   UNL     1       2.117  -3.762   2.101  0.00  0.00    -0.293 NA
ATOM     20  C   UNL     1       2.049  -2.299   1.989  0.00  0.00    +0.116 C 
BRANCH  15  21
ATOM     21  O   UNL     1       0.693  -0.477   1.160  0.00  0.00    -0.376 OA
BRANCH  21  23
ATOM     22  C   UNL     1      -0.019   1.526   0.010  0.00  0.00    +0.034 C 
ATOM     23  C   UNL     1       0.002  -0.004   0.002  0.00  0.00    +0.157 C 
ENDBRANCH  21  23
ENDBRANCH  15  21
ENDBRANCH  14  19
ENDBRANCH   1  14
TORSDOF 4
