REMARK  Name = ZINC36570862
REMARK  12 active torsions:
REMARK  status: ('A' for Active; 'I' for Inactive)
REMARK    1  A    between atoms: C_1  and  C_2
REMARK    2  A    between atoms: C_2  and  C_3
REMARK    3  A    between atoms: C_3  and  N_4
REMARK    4  A    between atoms: N_4  and  C_5
REMARK    5  A    between atoms: C_5  and  C_7
REMARK    6  A    between atoms: C_5  and  C_14
REMARK    7  A    between atoms: N_16  and  C_17
REMARK    8  A    between atoms: C_17  and  S_18
REMARK    9  A    between atoms: S_18  and  C_21
REMARK   10  A    between atoms: C_24  and  C_27
REMARK   11  A    between atoms: C_28  and  C_30
REMARK   12  A    between atoms: C_33  and  O_36
REMARK                            x       y       z     vdW  Elec       q    Type
REMARK                         _______ _______ _______ _____ _____    ______ ____
ROOT
ATOM      1  C   UNL     1      -0.460  -2.785  -2.056  0.00  0.00    +0.192 C 
ENDROOT
BRANCH   1   2
ATOM      2  C   UNL     1      -1.734  -2.230  -1.472  0.00  0.00    -0.018 A 
ATOM      3  C   UNL     1      -1.902  -0.862  -1.357  0.00  0.00    +0.007 A 
ATOM      4  C   UNL     1      -3.070  -0.353  -0.821  0.00  0.00    +0.020 A 
ATOM      5  C   UNL     1      -4.070  -1.211  -0.400  0.00  0.00    +0.041 A 
ATOM      6  C   UNL     1      -3.900  -2.579  -0.515  0.00  0.00    +0.020 A 
ATOM      7  C   UNL     1      -2.735  -3.088  -1.056  0.00  0.00    +0.007 A 
ATOM      8 CL   UNL     1      -5.537  -0.572   0.274  0.00  0.00    -0.084 Cl
ENDBRANCH   1   2
BRANCH   1   9
ATOM      9  C   UNL     1      -0.470  -2.597  -3.552  0.00  0.00    +0.239 C 
ATOM     10  O   UNL     1       0.445  -2.015  -4.096  0.00  0.00    -0.273 OA
ATOM     11  N   UNL     1      -1.495  -3.075  -4.284  0.00  0.00    -0.294 N 
ATOM     12  H   UNL     1      -2.227  -3.540  -3.849  0.00  0.00    +0.150 HD
BRANCH  11  13
ATOM     13  C   UNL     1      -1.505  -2.892  -5.738  0.00  0.00    +0.278 C 
BRANCH  13  14
ATOM     14  S   UNL     1      -0.813  -4.366  -6.537  0.00  0.00    +0.013 S 
ATOM     15  O   UNL     1      -0.874  -4.230  -7.950  0.00  0.00    -0.168 OA
ATOM     16  O   UNL     1       0.397  -4.748  -5.897  0.00  0.00    -0.168 OA
BRANCH  14  17
ATOM     17  C   UNL     1      -1.949  -5.660  -6.161  0.00  0.00    +0.090 A 
ATOM     18  C   UNL     1      -1.782  -6.415  -5.014  0.00  0.00    +0.027 A 
ATOM     19  C   UNL     1      -2.672  -7.429  -4.719  0.00  0.00    +0.005 A 
ATOM     20  C   UNL     1      -3.731  -7.689  -5.570  0.00  0.00    -0.050 A 
ATOM     21  C   UNL     1      -3.899  -6.934  -6.715  0.00  0.00    +0.005 A 
ATOM     22  C   UNL     1      -3.010  -5.916  -7.008  0.00  0.00    +0.027 A 
ATOM     23  C   UNL     1      -4.701  -8.796  -5.248  0.00  0.00    +0.044 C 
ENDBRANCH  14  17
ENDBRANCH  13  14
ENDBRANCH  11  13
ENDBRANCH   1   9
BRANCH   1  24
ATOM     24  N   UNL     1       0.689  -2.079  -1.483  0.00  0.00    -0.282 N 
ATOM     25  C   UNL     1       1.023  -2.273  -0.192  0.00  0.00    +0.247 C 
ATOM     26  O   UNL     1       2.026  -1.756   0.261  0.00  0.00    -0.270 OA
BRANCH  25  27
ATOM     27  C   UNL     1       0.171  -3.113   0.673  0.00  0.00    +0.037 A 
ATOM     28  C   UNL     1      -0.915  -3.803   0.128  0.00  0.00    +0.016 A 
ATOM     29  C   UNL     1      -1.708  -4.586   0.938  0.00  0.00    +0.046 A 
ATOM     30  C   UNL     1      -1.428  -4.690   2.296  0.00  0.00    +0.117 A 
ATOM     31  C   UNL     1      -0.348  -4.006   2.841  0.00  0.00    +0.046 A 
ATOM     32  C   UNL     1       0.452  -3.225   2.037  0.00  0.00    +0.016 A 
BRANCH  30  33
ATOM     33  O   UNL     1      -2.211  -5.462   3.090  0.00  0.00    -0.507 OA
ATOM     34  H   UNL     1      -1.917  -6.381   3.160  0.00  0.00    +0.292 HD
ENDBRANCH  30  33
ENDBRANCH  25  27
BRANCH  24  35
ATOM     35  C   UNL     1       1.474  -1.162  -2.313  0.00  0.00    +0.109 C 
BRANCH  35  37
ATOM     36  C   UNL     1       3.271  -1.016  -4.043  0.00  0.00    +0.005 C 
ATOM     37  C   UNL     1       2.534  -1.953  -3.083  0.00  0.00    +0.016 C 
ENDBRANCH  35  37
ENDBRANCH  24  35
ENDBRANCH   1  24
TORSDOF 10
