REMARK  Name = ZINC40408581
REMARK  8 active torsions:
REMARK  status: ('A' for Active; 'I' for Inactive)
REMARK    1  A    between atoms: C_13  and  C_15
REMARK    2  A    between atoms: C_15  and  N_16
REMARK    3  A    between atoms: N_16  and  C_17
REMARK    4  A    between atoms: N_16  and  C_28
REMARK    5  A    between atoms: C_17  and  C_18
REMARK    6  A    between atoms: C_18  and  C_20
REMARK    7  A    between atoms: C_18  and  O_27
REMARK    8  A    between atoms: C_20  and  N_21
REMARK                            x       y       z     vdW  Elec       q    Type
REMARK                         _______ _______ _______ _____ _____    ______ ____
ROOT
ATOM      1  N   UNL     1       7.907  -2.831  -3.064  0.00  0.00    +0.388 N 
ATOM      2  H   UNL     1       7.892  -3.086  -2.088  0.00  0.00    -0.081 HD
ENDROOT
BRANCH   1   3
ATOM      3  C   UNL     1       6.888  -3.601  -3.789  0.00  0.00    -0.068 C 
ATOM      4  C   UNL     1       5.505  -3.279  -3.218  0.00  0.00    -0.015 C 
ATOM      5  C   UNL     1       4.443  -4.081  -3.973  0.00  0.00    -0.002 C 
ATOM      6  C   UNL     1       4.481  -3.709  -5.457  0.00  0.00    -0.000 C 
ATOM      7  C   UNL     1       5.864  -4.031  -6.027  0.00  0.00    -0.002 C 
ATOM      8  C   UNL     1       6.926  -3.229  -5.272  0.00  0.00    -0.015 C 
ENDBRANCH   1   3
BRANCH   1   9
ATOM      9  C   UNL     1       7.625  -1.395  -3.199  0.00  0.00    -0.003 C 
BRANCH   9  22
ATOM     10  C   UNL     1       1.256   0.972   2.638  0.00  0.00    +0.001 C 
ATOM     11  C   UNL     1       2.649   1.546   2.380  0.00  0.00    +0.005 C 
ATOM     12  C   UNL     1       3.057   1.325   0.929  0.00  0.00    +0.037 C 
ATOM     13  C   UNL     1       3.775  -0.014   0.785  0.00  0.00    -0.023 A 
ATOM     14  C   UNL     1       3.553  -1.044   1.628  0.00  0.00    -0.004 A 
ATOM     15  S   UNL     1       4.595  -2.355   1.042  0.00  0.00    -0.073 S 
ATOM     16  C   UNL     1       5.340  -1.511  -0.329  0.00  0.00    +0.116 A 
ATOM     17  C   UNL     1       4.748  -0.240  -0.288  0.00  0.00    +0.075 A 
ATOM     18  C   UNL     1       5.174   0.677  -1.304  0.00  0.00    +0.260 A 
ATOM     19  O   UNL     1       4.718   1.806  -1.351  0.00  0.00    -0.267 OA
ATOM     20  N   UNL     1       6.086   0.269  -2.206  0.00  0.00    -0.312 N 
ATOM     21  H   UNL     1       6.379   0.884  -2.897  0.00  0.00    +0.170 HD
ATOM     22  C   UNL     1       6.606  -0.985  -2.168  0.00  0.00    +0.094 A 
ATOM     23  N   UNL     1       6.238  -1.842  -1.253  0.00  0.00    -0.229 NA
ATOM     24  C   UNL     1       2.640  -1.079   2.814  0.00  0.00    +0.043 C 
ATOM     25  C   UNL     1       1.262  -0.536   2.410  0.00  0.00    +0.005 C 
ENDBRANCH   9  22
ENDBRANCH   1   9
BRANCH   1  26
ATOM     26  C   UNL     1       9.233  -3.124  -3.626  0.00  0.00    -0.045 C 
BRANCH  26  27
ATOM     27  C   UNL     1       9.588  -4.587  -3.357  0.00  0.00    +0.112 C 
BRANCH  27  28
ATOM     28  O   UNL     1       9.604  -4.823  -1.948  0.00  0.00    -0.392 OA
ATOM     29  H   UNL     1      10.243  -4.281  -1.466  0.00  0.00    +0.210 HD
ENDBRANCH  27  28
BRANCH  27  30
ATOM     30  C   UNL     1      10.970  -4.892  -3.941  0.00  0.00    +0.114 C 
BRANCH  30  31
ATOM     31  N   UNL     1      11.320  -6.292  -3.664  0.00  0.00    -0.296 NA
ATOM     32  C   UNL     1      12.770  -6.505  -3.784  0.00  0.00    +0.112 C 
ATOM     33  C   UNL     1      13.096  -7.959  -3.430  0.00  0.00    +0.175 C 
ATOM     34  O   UNL     1      12.349  -8.831  -4.282  0.00  0.00    -0.377 OA
ATOM     35  C   UNL     1      10.933  -8.650  -4.191  0.00  0.00    +0.175 C 
ATOM     36  C   UNL     1      10.584  -7.204  -4.552  0.00  0.00    +0.112 C 
ENDBRANCH  30  31
ENDBRANCH  27  30
ENDBRANCH  26  27
ENDBRANCH   1  26
TORSDOF 8
