REMARK  Name = ZINC08935191
REMARK  10 active torsions:
REMARK  status: ('A' for Active; 'I' for Inactive)
REMARK    1  A    between atoms: C_1  and  C_2
REMARK    2  A    between atoms: C_2  and  O_3
REMARK    3  A    between atoms: O_3  and  C_4
REMARK    4  A    between atoms: C_4  and  C_6
REMARK    5  A    between atoms: C_6  and  N_52
REMARK    6  A    between atoms: C_7  and  C_9
REMARK    7  A    between atoms: C_7  and  C_15
REMARK    8  A    between atoms: C_7  and  N_52
REMARK    9  A    between atoms: C_20  and  N_21
REMARK   10  A    between atoms: C_22  and  C_24
REMARK                            x       y       z     vdW  Elec       q    Type
REMARK                         _______ _______ _______ _____ _____    ______ ____
ROOT
ATOM      1  C   UNL     1      -1.276  -0.525   0.626  0.00  0.00    -0.035 A 
ATOM      2  C   UNL     1      -2.417   0.254   0.627  0.00  0.00    +0.019 A 
ATOM      3  C   UNL     1      -3.585  -0.229   1.190  0.00  0.00    +0.018 A 
ATOM      4  C   UNL     1      -3.612  -1.488   1.763  0.00  0.00    +0.017 A 
ATOM      5  C   UNL     1      -2.473  -2.269   1.770  0.00  0.00    +0.024 A 
ATOM      6  C   UNL     1      -1.300  -1.789   1.200  0.00  0.00    +0.036 A 
ATOM      7 BR   UNL     1      -5.147   0.837   1.183  0.00  0.00    -0.050 Br
ENDROOT
BRANCH   6   8
ATOM      8  N   UNL     1      -0.144  -2.578   1.206  0.00  0.00    -0.281 N 
ATOM      9  C   UNL     1      -0.245  -3.920   1.281  0.00  0.00    +0.248 C 
ATOM     10  O   UNL     1      -1.338  -4.450   1.242  0.00  0.00    -0.270 OA
ATOM     11  H   UNL     1       0.729  -2.159   1.156  0.00  0.00    +0.155 HD
BRANCH   9  12
ATOM     12  C   UNL     1       0.974  -4.746   1.411  0.00  0.00    +0.037 A 
ATOM     13  C   UNL     1       2.231  -4.140   1.450  0.00  0.00    +0.013 A 
ATOM     14  C   UNL     1       3.364  -4.916   1.576  0.00  0.00    +0.001 A 
ATOM     15  C   UNL     1       3.257  -6.294   1.652  0.00  0.00    +0.000 A 
ATOM     16  C   UNL     1       2.015  -6.901   1.609  0.00  0.00    +0.001 A 
ATOM     17  C   UNL     1       0.874  -6.136   1.488  0.00  0.00    +0.013 A 
ENDBRANCH   9  12
ENDBRANCH   6   8
BRANCH   1  18
ATOM     18  C   UNL     1      -0.006  -0.001   0.008  0.00  0.00    -0.007 C 
BRANCH  18  19
ATOM     19  C   UNL     1       0.100  -0.490  -1.414  0.00  0.00    -0.057 A 
ATOM     20  C   UNL     1      -0.614   0.140  -2.416  0.00  0.00    +0.002 A 
ATOM     21  C   UNL     1      -0.513  -0.306  -3.721  0.00  0.00    +0.000 A 
ATOM     22  C   UNL     1       0.293  -1.388  -4.021  0.00  0.00    +0.000 A 
ATOM     23  C   UNL     1       1.003  -2.021  -3.018  0.00  0.00    +0.000 A 
ATOM     24  C   UNL     1       0.906  -1.572  -1.714  0.00  0.00    +0.002 A 
ENDBRANCH  18  19
BRANCH  18  25
ATOM     25  N   UNL     1      -0.034   1.474   0.020  0.00  0.00    +0.393 N 
ATOM     26  H   UNL     1      -0.541   1.810  -0.807  0.00  0.00    -0.084 HD
ATOM     27  H   UNL     1      -0.512   1.796   0.870  0.00  0.00    -0.084 HD
BRANCH  25  28
ATOM     28  C   UNL     1       1.339   2.012   0.001  0.00  0.00    +0.041 C 
BRANCH  28  29
ATOM     29  C   UNL     1       1.279   3.518   0.014  0.00  0.00    +0.290 C 
ATOM     30  O   UNL     1       0.210   4.080   0.037  0.00  0.00    -0.253 OA
BRANCH  29  31
ATOM     31  O   UNL     1       2.414   4.235  -0.000  0.00  0.00    -0.466 OA
BRANCH  31  33
ATOM     32  C   UNL     1       3.670   6.321  -0.005  0.00  0.00    +0.048 C 
ATOM     33  C   UNL     1       2.281   5.681   0.014  0.00  0.00    +0.228 C 
ENDBRANCH  31  33
ENDBRANCH  29  31
ENDBRANCH  28  29
ENDBRANCH  25  28
ENDBRANCH  18  25
ENDBRANCH   1  18
TORSDOF 9
