REMARK  Name = ZINC14784339
REMARK  7 active torsions:
REMARK  status: ('A' for Active; 'I' for Inactive)
REMARK    1  A    between atoms: C_1  and  O_2
REMARK    2  A    between atoms: O_2  and  C_3
REMARK    3  A    between atoms: C_8  and  C_9
REMARK    4  A    between atoms: N_11  and  C_12
REMARK    5  A    between atoms: C_12  and  N_14
REMARK    6  A    between atoms: N_14  and  C_15
REMARK    7  A    between atoms: C_18  and  N_22
REMARK                            x       y       z     vdW  Elec       q    Type
REMARK                         _______ _______ _______ _____ _____    ______ ____
ROOT
ATOM      1  C   UNL     1       3.507   6.017   0.247  0.00  0.00    +0.141 C 
ATOM      2  S   UNL     1       4.977   5.199   0.564  0.00  0.00    -0.018 S 
ENDROOT
BRANCH   1   5
ATOM      3  C   UNL     1       2.340   4.009   0.479  0.00  0.00    +0.253 C 
ATOM      4  O   UNL     1       3.384   3.428   0.704  0.00  0.00    -0.270 OA
ATOM      5  N   UNL     1       2.345   5.335   0.238  0.00  0.00    -0.263 N 
ATOM      6  H   UNL     1       1.512   5.798   0.058  0.00  0.00    +0.157 HD
BRANCH   3  12
ATOM      7  C   UNL     1       1.058   1.884   0.720  0.00  0.00    +0.132 A 
ATOM      8  C   UNL     1      -0.144   1.191   0.708  0.00  0.00    +0.047 A 
ATOM      9  C   UNL     1      -1.324   1.858   0.446  0.00  0.00    +0.019 A 
ATOM     10  C   UNL     1      -1.320   3.223   0.203  0.00  0.00    +0.019 A 
ATOM     11  C   UNL     1      -0.134   3.926   0.211  0.00  0.00    +0.032 A 
ATOM     12  C   UNL     1       1.068   3.263   0.470  0.00  0.00    +0.080 A 
ATOM     13 BR   UNL     1      -2.946   4.121  -0.148  0.00  0.00    -0.050 Br
BRANCH   7  15
ATOM     14  C   UNL     1       2.131  -0.176   1.217  0.00  0.00    +0.277 C 
ATOM     15  O   UNL     1       2.219   1.229   0.972  0.00  0.00    -0.494 OA
ENDBRANCH   7  15
ENDBRANCH   3  12
ENDBRANCH   1   5
BRANCH   1  16
ATOM     16  N   UNL     1       3.512   7.343   0.006  0.00  0.00    -0.295 N 
ATOM     17  H   UNL     1       2.689   7.795  -0.235  0.00  0.00    +0.154 HD
BRANCH  16  18
ATOM     18  C   UNL     1       4.705   8.068   0.103  0.00  0.00    +0.051 A 
ATOM     19  C   UNL     1       5.861   7.590  -0.502  0.00  0.00    +0.027 A 
ATOM     20  C   UNL     1       7.037   8.308  -0.403  0.00  0.00    +0.034 A 
ATOM     21  C   UNL     1       7.066   9.500   0.296  0.00  0.00    +0.128 A 
ATOM     22  C   UNL     1       5.918   9.979   0.900  0.00  0.00    +0.054 A 
ATOM     23  C   UNL     1       4.736   9.269   0.801  0.00  0.00    +0.064 A 
ATOM     24 CL   UNL     1       3.293   9.874   1.553  0.00  0.00    -0.082 Cl
BRANCH  21  25
ATOM     25  N   UNL     1       8.328  10.266   0.399  0.00  0.00    +0.056 N 
ATOM     26  O   UNL     1       9.340   9.845  -0.132  0.00  0.00    -0.126 OA
ATOM     27  O   UNL     1       8.355  11.316   1.015  0.00  0.00    -0.126 OA
ENDBRANCH  21  25
ENDBRANCH  16  18
ENDBRANCH   1  16
TORSDOF 6
