REMARK  Name = ZINC36597443
REMARK  11 active torsions:
REMARK  status: ('A' for Active; 'I' for Inactive)
REMARK    1  A    between atoms: C_1  and  C_2
REMARK    2  A    between atoms: C_5  and  C_7
REMARK    3  A    between atoms: C_7  and  N_8
REMARK    4  A    between atoms: N_8  and  C_9
REMARK    5  A    between atoms: C_9  and  C_11
REMARK    6  A    between atoms: C_9  and  C_18
REMARK    7  A    between atoms: C_14  and  O_17
REMARK    8  A    between atoms: N_20  and  C_21
REMARK    9  A    between atoms: C_27  and  C_29
REMARK   10  A    between atoms: C_30  and  O_36
REMARK   11  A    between atoms: C_34  and  O_35
REMARK                            x       y       z     vdW  Elec       q    Type
REMARK                         _______ _______ _______ _____ _____    ______ ____
ROOT
ATOM      1  N   UNL     1       1.944  -3.477  -1.236  0.00  0.00    -0.274 N 
ATOM      2  C   UNL     1       0.989  -4.363  -1.579  0.00  0.00    +0.255 C 
ATOM      3  O   UNL     1       1.056  -4.948  -2.643  0.00  0.00    -0.270 OA
ENDROOT
BRANCH   2   4
ATOM      4  C   UNL     1      -0.137  -4.622  -0.666  0.00  0.00    +0.119 A 
ATOM      5  C   UNL     1      -1.312  -3.863  -0.761  0.00  0.00    +0.133 A 
ATOM      6  C   UNL     1      -2.366  -4.115   0.103  0.00  0.00    +0.046 A 
ATOM      7  C   UNL     1      -2.262  -5.112   1.055  0.00  0.00    +0.007 A 
ATOM      8  C   UNL     1      -1.107  -5.866   1.158  0.00  0.00    +0.046 A 
ATOM      9  C   UNL     1      -0.044  -5.634   0.300  0.00  0.00    +0.133 A 
BRANCH   9  10
ATOM     10  O   UNL     1       1.085  -6.379   0.399  0.00  0.00    -0.506 OA
ATOM     11  H   UNL     1       1.746  -6.015   1.004  0.00  0.00    +0.292 HD
ENDBRANCH   9  10
BRANCH   5  12
ATOM     12  O   UNL     1      -1.417  -2.884  -1.695  0.00  0.00    -0.506 OA
ATOM     13  H   UNL     1      -1.778  -3.184  -2.540  0.00  0.00    +0.292 HD
ENDBRANCH   5  12
ENDBRANCH   2   4
BRANCH   1  14
ATOM     14  C   UNL     1       1.925  -2.856   0.091  0.00  0.00    +0.183 C 
BRANCH  14  19
ATOM     15  C   UNL     1       0.726   2.014  -0.448  0.00  0.00    +0.086 C 
ATOM     16  C   UNL     1       0.597   0.534  -0.195  0.00  0.00    +0.102 A 
ATOM     17  C   UNL     1      -0.540  -0.116   0.110  0.00  0.00    +0.045 A 
ATOM     18  C   UNL     1      -0.204  -1.481   0.261  0.00  0.00    +0.046 A 
ATOM     19  C   UNL     1       1.118  -1.584   0.039  0.00  0.00    +0.122 A 
ATOM     20  O   UNL     1       1.597  -0.361  -0.243  0.00  0.00    -0.463 OA
ENDBRANCH  14  19
ENDBRANCH   1  14
BRANCH   1  21
ATOM     21  C   UNL     1       3.002  -3.134  -2.189  0.00  0.00    +0.193 C 
BRANCH  21  22
ATOM     22  C   UNL     1       2.383  -2.669  -3.482  0.00  0.00    -0.018 A 
ATOM     23  C   UNL     1       2.154  -3.574  -4.502  0.00  0.00    +0.009 A 
ATOM     24  C   UNL     1       1.587  -3.150  -5.688  0.00  0.00    +0.046 A 
ATOM     25  C   UNL     1       1.246  -1.816  -5.855  0.00  0.00    +0.117 A 
ATOM     26  C   UNL     1       1.476  -0.910  -4.829  0.00  0.00    +0.046 A 
ATOM     27  C   UNL     1       2.039  -1.340  -3.643  0.00  0.00    +0.009 A 
BRANCH  25  28
ATOM     28  O   UNL     1       0.688  -1.396  -7.021  0.00  0.00    -0.507 OA
ATOM     29  H   UNL     1      -0.278  -1.440  -7.033  0.00  0.00    +0.292 HD
ENDBRANCH  25  28
ENDBRANCH  21  22
BRANCH  21  30
ATOM     30  C   UNL     1       3.856  -4.349  -2.450  0.00  0.00    +0.238 C 
ATOM     31  O   UNL     1       3.605  -5.397  -1.893  0.00  0.00    -0.273 OA
ATOM     32  N   UNL     1       4.898  -4.270  -3.300  0.00  0.00    -0.311 N 
ATOM     33  H   UNL     1       5.099  -3.432  -3.745  0.00  0.00    +0.149 HD
BRANCH  32  34
ATOM     34  C   UNL     1       5.728  -5.450  -3.554  0.00  0.00    +0.073 C 
ATOM     35  C   UNL     1       6.807  -5.556  -2.474  0.00  0.00    +0.022 C 
ATOM     36  C   UNL     1       7.673  -6.789  -2.738  0.00  0.00    +0.002 C 
ATOM     37  C   UNL     1       8.337  -6.662  -4.111  0.00  0.00    +0.000 C 
ATOM     38  C   UNL     1       7.258  -6.555  -5.191  0.00  0.00    +0.002 C 
ATOM     39  C   UNL     1       6.392  -5.322  -4.926  0.00  0.00    +0.022 C 
ENDBRANCH  32  34
ENDBRANCH  21  30
ENDBRANCH   1  21
TORSDOF 10
