REMARK  Name = ZINC39539339
REMARK  8 active torsions:
REMARK  status: ('A' for Active; 'I' for Inactive)
REMARK    1  A    between atoms: C_1  and  S_2
REMARK    2  A    between atoms: S_2  and  N_5
REMARK    3  A    between atoms: N_5  and  C_6
REMARK    4  A    between atoms: C_6  and  C_7
REMARK    5  A    between atoms: C_7  and  C_8
REMARK    6  A    between atoms: C_11  and  C_13
REMARK    7  A    between atoms: N_15  and  C_16
REMARK    8  A    between atoms: C_19  and  C_22
REMARK                            x       y       z     vdW  Elec       q    Type
REMARK                         _______ _______ _______ _____ _____    ______ ____
ROOT
ATOM      1  C   UNL     1       7.793   1.205  -3.998  0.00  0.00    +0.255 C 
ATOM      2  O   UNL     1       8.911   0.889  -3.636  0.00  0.00    -0.269 OA
ATOM      3  N   UNL     1       7.626   2.234  -4.852  0.00  0.00    -0.281 N 
ATOM      4  H   UNL     1       6.742   2.444  -5.193  0.00  0.00    +0.155 HD
ENDROOT
BRANCH   3   5
ATOM      5  C   UNL     1       8.725   2.997  -5.247  0.00  0.00    +0.034 A 
ATOM      6  C   UNL     1       9.964   2.390  -5.424  0.00  0.00    +0.024 A 
ATOM      7  C   UNL     1      11.051   3.141  -5.814  0.00  0.00    +0.015 A 
ATOM      8  C   UNL     1      10.909   4.513  -6.032  0.00  0.00    +0.037 A 
ATOM      9  C   UNL     1       9.663   5.120  -5.854  0.00  0.00    +0.015 A 
ATOM     10  C   UNL     1       8.579   4.362  -5.470  0.00  0.00    +0.024 A 
BRANCH   8  11
ATOM     11  C   UNL     1      12.072   5.321  -6.449  0.00  0.00    +0.228 A 
ATOM     12  N   UNL     1      13.279   4.853  -6.649  0.00  0.00    -0.209 NA
ATOM     13  C   UNL     1      14.088   5.877  -7.023  0.00  0.00    +0.110 A 
ATOM     14  C   UNL     1      15.442   5.964  -7.356  0.00  0.00    +0.031 A 
ATOM     15  C   UNL     1      15.983   7.182  -7.702  0.00  0.00    +0.002 A 
ATOM     16  C   UNL     1      15.193   8.322  -7.720  0.00  0.00    +0.004 A 
ATOM     17  C   UNL     1      13.854   8.252  -7.392  0.00  0.00    +0.048 A 
ATOM     18  C   UNL     1      13.292   7.034  -7.043  0.00  0.00    +0.156 A 
ATOM     19  O   UNL     1      12.047   6.647  -6.686  0.00  0.00    -0.435 OA
ENDBRANCH   8  11
ENDBRANCH   3   5
BRANCH   1  23
ATOM     20  C   UNL     1       4.247  -0.509  -2.927  0.00  0.00    -0.008 A 
ATOM     21  C   UNL     1       5.325  -1.095  -2.349  0.00  0.00    +0.012 A 
ATOM     22  C   UNL     1       6.579  -0.609  -2.630  0.00  0.00    +0.021 A 
ATOM     23  C   UNL     1       6.627   0.467  -3.504  0.00  0.00    +0.074 A 
ATOM     24  S   UNL     1       4.901   0.715  -3.874  0.00  0.00    -0.089 S 
BRANCH  20  25
ATOM     25  C   UNL     1       2.794  -0.876  -2.762  0.00  0.00    +0.059 C 
BRANCH  25  26
ATOM     26  C   UNL     1       2.198  -0.086  -1.596  0.00  0.00    +0.110 C 
BRANCH  26  27
ATOM     27  N   UNL     1       0.786  -0.443  -1.435  0.00  0.00    -0.194 NA
ATOM     28  H   UNL     1       0.322  -0.916  -2.144  0.00  0.00    +0.148 HD
BRANCH  27  30
ATOM     29  C   UNL     1      -0.051   1.776  -0.037  0.00  0.00    +0.214 C 
ATOM     30  S   UNL     1      -0.018  -0.038  -0.045  0.00  0.00    +0.027 S 
ATOM     31  O   UNL     1       0.811  -0.517   1.005  0.00  0.00    -0.158 OA
ATOM     32  O   UNL     1      -1.331  -0.551  -0.223  0.00  0.00    -0.158 OA
ENDBRANCH  27  30
ENDBRANCH  26  27
ENDBRANCH  25  26
ENDBRANCH  20  25
ENDBRANCH   1  23
TORSDOF 7
