REMARK  Name = ZINC14153350
REMARK  8 active torsions:
REMARK  status: ('A' for Active; 'I' for Inactive)
REMARK    1  A    between atoms: C_4  and  C_7
REMARK    2  A    between atoms: C_7  and  C_8
REMARK    3  A    between atoms: C_11  and  S_19
REMARK    4  A    between atoms: N_12  and  C_13
REMARK    5  A    between atoms: S_19  and  C_20
REMARK    6  A    between atoms: C_20  and  C_21
REMARK    7  A    between atoms: N_31  and  C_32
REMARK    8  A    between atoms: C_32  and  C_33
REMARK                            x       y       z     vdW  Elec       q    Type
REMARK                         _______ _______ _______ _____ _____    ______ ____
ROOT
ATOM      1  S   UNL     1      -3.141  -1.265   4.800  0.00  0.00    -0.078 S 
ENDROOT
BRANCH   1   5
ATOM      2  C   UNL     1      -2.939   0.715   1.441  0.00  0.00    +0.143 A 
ATOM      3  N   UNL     1      -3.694   1.480   2.177  0.00  0.00    -0.133 NA
ATOM      4  N   UNL     1      -3.858   0.956   3.338  0.00  0.00    -0.122 NA
ATOM      5  C   UNL     1      -3.211  -0.185   3.409  0.00  0.00    +0.197 A 
ATOM      6  N   UNL     1      -2.607  -0.378   2.197  0.00  0.00    -0.274 N 
BRANCH   6   7
ATOM      7  C   UNL     1      -1.813  -1.467   1.810  0.00  0.00    +0.050 A 
ATOM      8  C   UNL     1      -2.244  -2.320   0.803  0.00  0.00    +0.026 A 
ATOM      9  C   UNL     1      -1.456  -3.388   0.420  0.00  0.00    +0.002 A 
ATOM     10  C   UNL     1      -0.245  -3.616   1.047  0.00  0.00    +0.000 A 
ATOM     11  C   UNL     1       0.184  -2.772   2.054  0.00  0.00    +0.002 A 
ATOM     12  C   UNL     1      -0.596  -1.698   2.438  0.00  0.00    +0.026 A 
ENDBRANCH   6   7
BRANCH   2  13
ATOM     13  C   UNL     1      -2.514   0.980   0.019  0.00  0.00    +0.111 C 
BRANCH  13  17
ATOM     14  C   UNL     1       1.156   3.165   0.008  0.00  0.00    +0.000 A 
ATOM     15  C   UNL     1       1.175   1.783   0.000  0.00  0.00    +0.000 A 
ATOM     16  C   UNL     1      -0.013   1.076   0.008  0.00  0.00    +0.004 A 
ATOM     17  C   UNL     1      -1.219   1.751   0.017  0.00  0.00    -0.040 A 
ATOM     18  C   UNL     1      -1.238   3.133   0.030  0.00  0.00    +0.004 A 
ATOM     19  C   UNL     1      -0.050   3.840   0.022  0.00  0.00    +0.000 A 
ENDBRANCH  13  17
ENDBRANCH   2  13
ENDBRANCH   1   5
BRANCH   1  20
ATOM     20  C   UNL     1      -4.168  -0.340   5.968  0.00  0.00    +0.151 C 
BRANCH  20  21
ATOM     21  C   UNL     1      -4.253  -1.096   7.269  0.00  0.00    +0.124 A 
ATOM     22  N   UNL     1      -3.627  -2.229   7.365  0.00  0.00    -0.233 NA
ATOM     23  C   UNL     1      -3.655  -2.963   8.506  0.00  0.00    +0.078 A 
ATOM     24  C   UNL     1      -2.979  -4.180   8.611  0.00  0.00    +0.028 A 
ATOM     25  C   UNL     1      -3.038  -4.894   9.787  0.00  0.00    +0.002 A 
ATOM     26  C   UNL     1      -3.763  -4.418  10.872  0.00  0.00    +0.001 A 
ATOM     27  C   UNL     1      -4.439  -3.220  10.792  0.00  0.00    +0.015 A 
ATOM     28  C   UNL     1      -4.392  -2.483   9.611  0.00  0.00    +0.065 A 
ATOM     29  C   UNL     1      -5.093  -1.198   9.468  0.00  0.00    +0.262 A 
ATOM     30  O   UNL     1      -5.745  -0.728  10.382  0.00  0.00    -0.267 OA
ATOM     31  N   UNL     1      -4.985  -0.559   8.280  0.00  0.00    -0.287 N 
BRANCH  31  32
ATOM     32  C   UNL     1      -5.663   0.725   8.082  0.00  0.00    +0.222 C 
BRANCH  32  33
ATOM     33  C   UNL     1      -7.049   0.482   7.542  0.00  0.00    +0.230 C 
ATOM     34  O   UNL     1      -7.432  -0.651   7.341  0.00  0.00    -0.274 OA
ATOM     35  N   UNL     1      -7.863   1.524   7.281  0.00  0.00    -0.328 N 
ATOM     36  H   UNL     1      -7.556   2.431   7.441  0.00  0.00    +0.145 HD
ATOM     37  H   UNL     1      -8.755   1.368   6.933  0.00  0.00    +0.145 HD
ENDBRANCH  32  33
ENDBRANCH  31  32
ENDBRANCH  20  21
ENDBRANCH   1  20
TORSDOF 8
