REMARK  Name = ZINC06202887
REMARK  7 active torsions:
REMARK  status: ('A' for Active; 'I' for Inactive)
REMARK    1  A    between atoms: C_1  and  C_2
REMARK    2  A    between atoms: C_7  and  N_8
REMARK    3  A    between atoms: C_9  and  C_11
REMARK    4  A    between atoms: C_11  and  S_12
REMARK    5  A    between atoms: S_12  and  C_13
REMARK    6  A    between atoms: C_16  and  C_18
REMARK    7  A    between atoms: C_23  and  N_24
REMARK                            x       y       z     vdW  Elec       q    Type
REMARK                         _______ _______ _______ _____ _____    ______ ____
ROOT
ATOM      1  S   UNL     1       0.308  -0.265   6.142  0.00  0.00    -0.056 S 
ENDROOT
BRANCH   1   2
ATOM      2  C   UNL     1       0.074   0.549   7.686  0.00  0.00    +0.278 A 
ATOM      3  N   UNL     1       0.088   1.846   7.891  0.00  0.00    -0.101 NA
ATOM      4  N   UNL     1      -0.116   2.085   9.138  0.00  0.00    -0.106 NA
ATOM      5  C   UNL     1      -0.269   0.953   9.780  0.00  0.00    +0.251 A 
ATOM      6  O   UNL     1      -0.157  -0.043   8.873  0.00  0.00    -0.411 OA
BRANCH   5   7
ATOM      7  C   UNL     1      -0.521   0.794  11.227  0.00  0.00    +0.069 A 
ATOM      8  C   UNL     1       0.362   0.056  12.016  0.00  0.00    +0.015 A 
ATOM      9  C   UNL     1       0.120  -0.088  13.367  0.00  0.00    +0.001 A 
ATOM     10  C   UNL     1      -0.996   0.496  13.939  0.00  0.00    +0.002 A 
ATOM     11  C   UNL     1      -1.876   1.229  13.162  0.00  0.00    +0.033 A 
ATOM     12  C   UNL     1      -1.642   1.386  11.812  0.00  0.00    +0.138 A 
BRANCH  12  13
ATOM     13  N   UNL     1      -2.581   2.177  10.983  0.00  0.00    +0.057 N 
ATOM     14  O   UNL     1      -3.490   2.778  11.507  0.00  0.00    -0.126 OA
ATOM     15  O   UNL     1      -2.439   2.221   9.783  0.00  0.00    -0.126 OA
ENDBRANCH  12  13
ENDBRANCH   5   7
ENDBRANCH   1   2
BRANCH   1  16
ATOM     16  C   UNL     1       0.570   1.091   4.965  0.00  0.00    +0.175 C 
BRANCH  16  18
ATOM     17  N   UNL     1       1.002   1.351   2.544  0.00  0.00    -0.285 N 
ATOM     18  C   UNL     1       0.785   0.524   3.586  0.00  0.00    +0.228 C 
ATOM     19  O   UNL     1       0.765  -0.676   3.413  0.00  0.00    -0.275 OA
ATOM     20  H   UNL     1       1.083   2.307   2.692  0.00  0.00    +0.155 HD
BRANCH  17  27
ATOM     21  C   UNL     1       0.266   3.023   0.362  0.00  0.00    +0.046 C 
ATOM     22  C   UNL     1       0.759   1.614   0.155  0.00  0.00    -0.027 A 
ATOM     23  C   UNL     1       0.870   1.102  -1.123  0.00  0.00    +0.043 A 
ATOM     24  C   UNL     1       1.323  -0.192  -1.315  0.00  0.00    +0.124 A 
ATOM     25  C   UNL     1       1.665  -0.976  -0.225  0.00  0.00    +0.040 A 
ATOM     26  C   UNL     1       1.556  -0.468   1.054  0.00  0.00    +0.026 A 
ATOM     27  C   UNL     1       1.107   0.832   1.248  0.00  0.00    +0.037 A 
ATOM     28  F   UNL     1       1.431  -0.691  -2.565  0.00  0.00    -0.205 F 
ENDBRANCH  17  27
ENDBRANCH  16  18
ENDBRANCH   1  16
TORSDOF 6
