REMARK  Name = ZINC20933689
REMARK  10 active torsions:
REMARK  status: ('A' for Active; 'I' for Inactive)
REMARK    1  A    between atoms: C_1  and  C_2
REMARK    2  A    between atoms: C_2  and  C_3
REMARK    3  A    between atoms: C_3  and  N_4
REMARK    4  A    between atoms: C_13  and  C_15
REMARK    5  A    between atoms: N_17  and  N_18
REMARK    6  A    between atoms: N_26  and  C_29
REMARK    7  A    between atoms: C_29  and  C_30
REMARK    8  A    between atoms: C_30  and  C_31
REMARK    9  A    between atoms: C_31  and  C_32
REMARK   10  A    between atoms: C_31  and  C_33
REMARK                            x       y       z     vdW  Elec       q    Type
REMARK                         _______ _______ _______ _____ _____    ______ ____
ROOT
ATOM      1  C   UNL     1      -0.387  -1.100  -4.608  0.00  0.00    +0.284 C 
ATOM      2  O   UNL     1       0.061  -1.699  -5.566  0.00  0.00    -0.267 OA
ATOM      3  N   UNL     1      -1.708  -0.843  -4.531  0.00  0.00    -0.201 N 
ATOM      4  H   UNL     1      -2.113  -0.301  -3.663  0.00  0.00    +0.178 HD
ENDROOT
BRANCH   1  14
ATOM      5  N   UNL     1       0.754   0.412  -1.516  0.00  0.00    -0.228 N 
ATOM      6  C   UNL     1       2.090   0.242  -1.444  0.00  0.00    +0.275 A 
ATOM      7  O   UNL     1       2.721   0.667  -0.494  0.00  0.00    -0.266 OA
ATOM      8  C   UNL     1       2.765  -0.473  -2.536  0.00  0.00    +0.050 A 
ATOM      9  C   UNL     1       4.137  -0.705  -2.553  0.00  0.00    +0.014 A 
ATOM     10  C   UNL     1       4.695  -1.380  -3.618  0.00  0.00    +0.001 A 
ATOM     11  C   UNL     1       3.903  -1.828  -4.668  0.00  0.00    +0.001 A 
ATOM     12  C   UNL     1       2.542  -1.608  -4.669  0.00  0.00    +0.011 A 
ATOM     13  C   UNL     1       1.959  -0.930  -3.605  0.00  0.00    +0.020 A 
ATOM     14  C   UNL     1       0.515  -0.654  -3.529  0.00  0.00    +0.155 A 
ATOM     15  N   UNL     1       0.040  -0.008  -2.492  0.00  0.00    -0.163 NA
BRANCH   5  16
ATOM     16  C   UNL     1       0.085   1.121  -0.423  0.00  0.00    +0.147 C 
BRANCH  16  18
ATOM     17  C   UNL     1      -0.643   3.360   0.413  0.00  0.00    +0.005 C 
ATOM     18  C   UNL     1       0.055   2.620  -0.729  0.00  0.00    +0.020 C 
ENDBRANCH  16  18
ENDBRANCH   5  16
ENDBRANCH   1  14
BRANCH   3  19
ATOM     19  N   UNL     1      -2.565  -1.266  -5.555  0.00  0.00    -0.174 NA
ATOM     20  C   UNL     1      -3.862  -1.125  -5.426  0.00  0.00    +0.153 C 
ATOM     21  C   UNL     1      -4.604  -0.669  -4.227  0.00  0.00    +0.028 A 
ATOM     22  C   UNL     1      -4.207  -0.264  -2.958  0.00  0.00    +0.012 A 
ATOM     23  C   UNL     1      -5.157   0.121  -2.033  0.00  0.00    +0.001 A 
ATOM     24  C   UNL     1      -6.500   0.108  -2.372  0.00  0.00    +0.002 A 
ATOM     25  C   UNL     1      -6.904  -0.288  -3.631  0.00  0.00    +0.024 A 
ATOM     26  C   UNL     1      -5.961  -0.679  -4.576  0.00  0.00    +0.046 A 
ATOM     27  N   UNL     1      -6.096  -1.113  -5.890  0.00  0.00    -0.266 N 
ATOM     28  C   UNL     1      -4.901  -1.389  -6.440  0.00  0.00    +0.271 C 
ATOM     29  O   UNL     1      -4.710  -1.788  -7.574  0.00  0.00    -0.268 OA
BRANCH  27  30
ATOM     30  C   UNL     1      -7.377  -1.253  -6.585  0.00  0.00    +0.114 C 
BRANCH  30  31
ATOM     31  C   UNL     1      -7.925  -2.664  -6.366  0.00  0.00    +0.022 C 
BRANCH  31  32
ATOM     32  C   UNL     1      -9.264  -2.810  -7.093  0.00  0.00    -0.016 C 
ATOM     33  C   UNL     1      -9.040  -2.693  -8.602  0.00  0.00    +0.007 C 
ATOM     34  C   UNL     1      -9.872  -4.177  -6.772  0.00  0.00    +0.007 C 
ENDBRANCH  31  32
ENDBRANCH  30  31
ENDBRANCH  27  30
ENDBRANCH   3  19
TORSDOF 7
