REMARK  Name = ZINC16425994
REMARK  10 active torsions:
REMARK  status: ('A' for Active; 'I' for Inactive)
REMARK    1  A    between atoms: C_1  and  C_2
REMARK    2  A    between atoms: C_6  and  C_38
REMARK    3  A    between atoms: C_7  and  N_8
REMARK    4  A    between atoms: N_8  and  S_9
REMARK    5  A    between atoms: S_9  and  C_12
REMARK    6  A    between atoms: C_25  and  C_28
REMARK    7  A    between atoms: C_32  and  O_36
REMARK    8  A    between atoms: C_33  and  O_34
REMARK    9  A    between atoms: O_34  and  C_35
REMARK   10  A    between atoms: O_36  and  C_37
REMARK                            x       y       z     vdW  Elec       q    Type
REMARK                         _______ _______ _______ _____ _____    ______ ____
ROOT
ATOM      1  C   UNL     1       1.589   0.583   5.166  0.00  0.00    +0.109 A 
ATOM      2  C   UNL     1       0.564   0.943   6.022  0.00  0.00    +0.030 A 
ATOM      3  C   UNL     1       0.093   0.043   6.956  0.00  0.00    +0.025 A 
ATOM      4  C   UNL     1       0.652  -1.226   7.052  0.00  0.00    +0.031 A 
ATOM      5  C   UNL     1       1.702  -1.576   6.196  0.00  0.00    -0.018 A 
ATOM      6  C   UNL     1       2.156  -0.674   5.258  0.00  0.00    +0.034 A 
ATOM      7  C   UNL     1       2.297  -2.920   6.360  0.00  0.00    +0.049 C 
ATOM      8  C   UNL     1       2.980  -3.619   5.242  0.00  0.00    -0.023 C 
ATOM      9  C   UNL     1       2.814  -4.927   5.395  0.00  0.00    -0.030 C 
ATOM     10  C   UNL     1       1.961  -5.204   6.634  0.00  0.00    +0.033 C 
ATOM     11  C   UNL     1       1.154  -3.904   6.751  0.00  0.00    +0.029 C 
ATOM     12  C   UNL     1       0.716  -3.484   8.143  0.00  0.00    +0.109 C 
ATOM     13  N   UNL     1       0.138  -2.131   7.988  0.00  0.00    -0.336 N 
ATOM     14  H   UNL     1      -0.611  -1.867   8.545  0.00  0.00    +0.147 HD
ENDROOT
BRANCH  12  15
ATOM     15  C   UNL     1      -0.325  -4.438   8.670  0.00  0.00    +0.018 A 
ATOM     16  C   UNL     1      -1.668  -4.179   8.462  0.00  0.00    +0.009 A 
ATOM     17  C   UNL     1      -2.625  -5.054   8.940  0.00  0.00    +0.004 A 
ATOM     18  C   UNL     1      -2.245  -6.186   9.638  0.00  0.00    +0.049 A 
ATOM     19  C   UNL     1      -0.902  -6.448   9.855  0.00  0.00    +0.162 A 
ATOM     20  C   UNL     1       0.062  -5.569   9.368  0.00  0.00    +0.166 A 
BRANCH  20  21
ATOM     21  O   UNL     1       1.382  -5.822   9.579  0.00  0.00    -0.491 OA
ATOM     22  C   UNL     1       1.963  -5.286  10.770  0.00  0.00    +0.277 C 
ENDBRANCH  20  21
BRANCH  19  23
ATOM     23  O   UNL     1      -0.527  -7.560  10.540  0.00  0.00    -0.491 OA
ATOM     24  C   UNL     1      -1.570  -8.416  11.010  0.00  0.00    +0.277 C 
ENDBRANCH  19  23
ENDBRANCH  12  15
BRANCH   1  25
ATOM     25  S   UNL     1       2.176   1.729   3.963  0.00  0.00    +0.072 S 
ATOM     26  O   UNL     1       3.544   1.417   3.739  0.00  0.00    -0.150 OA
ATOM     27  O   UNL     1       1.747   3.016   4.386  0.00  0.00    -0.150 OA
BRANCH  25  28
ATOM     28  N   UNL     1       1.379   1.405   2.548  0.00  0.00    -0.216 N 
ATOM     29  H   UNL     1       1.863   1.040   1.792  0.00  0.00    +0.174 HD
BRANCH  28  36
ATOM     30  C   UNL     1      -0.404  -0.811   2.618  0.00  0.00    +0.046 C 
ATOM     31  C   UNL     1      -0.897   0.606   2.474  0.00  0.00    -0.028 A 
ATOM     32  C   UNL     1      -2.250   0.859   2.366  0.00  0.00    +0.005 A 
ATOM     33  C   UNL     1      -2.704   2.159   2.240  0.00  0.00    +0.001 A 
ATOM     34  C   UNL     1      -1.805   3.209   2.211  0.00  0.00    +0.005 A 
ATOM     35  C   UNL     1      -0.450   2.963   2.312  0.00  0.00    -0.028 A 
ATOM     36  C   UNL     1       0.009   1.658   2.445  0.00  0.00    +0.054 A 
ATOM     37  C   UNL     1       0.530   4.107   2.279  0.00  0.00    +0.046 C 
ENDBRANCH  28  36
ENDBRANCH  25  28
ENDBRANCH   1  25
TORSDOF 6
