REMARK  Name = ZINC09692194
REMARK  11 active torsions:
REMARK  status: ('A' for Active; 'I' for Inactive)
REMARK    1  A    between atoms: C_1  and  C_2
REMARK    2  A    between atoms: C_2  and  C_3
REMARK    3  A    between atoms: C_12  and  S_14
REMARK    4  A    between atoms: S_14  and  N_17
REMARK    5  A    between atoms: N_17  and  C_18
REMARK    6  A    between atoms: C_18  and  C_20
REMARK    7  A    between atoms: C_18  and  C_24
REMARK    8  A    between atoms: C_20  and  C_21
REMARK    9  A    between atoms: C_21  and  C_22
REMARK   10  A    between atoms: C_21  and  C_23
REMARK   11  A    between atoms: N_26  and  C_27
REMARK                            x       y       z     vdW  Elec       q    Type
REMARK                         _______ _______ _______ _____ _____    ______ ____
ROOT
ATOM      1  N   UNL     1      -0.175   1.504  -0.130  0.00  0.00    -0.178 NA
ATOM      2  H   UNL     1       0.520   1.913   0.409  0.00  0.00    +0.149 HD
ENDROOT
BRANCH   1   3
ATOM      3  S   UNL     1       0.134   0.103  -0.957  0.00  0.00    +0.059 S 
ATOM      4  O   UNL     1       1.503  -0.206  -0.734  0.00  0.00    -0.153 OA
ATOM      5  O   UNL     1      -0.914  -0.800  -0.632  0.00  0.00    -0.153 OA
BRANCH   3  15
ATOM      6  C   UNL     1       0.235   1.688  -7.669  0.00  0.00    +0.220 C 
ATOM      7  O   UNL     1       1.396   1.898  -7.389  0.00  0.00    -0.275 OA
ATOM      8  N   UNL     1      -0.622   1.264  -6.719  0.00  0.00    -0.271 N 
ATOM      9  C   UNL     1      -2.043   0.978  -6.936  0.00  0.00    +0.118 C 
ATOM     10  C   UNL     1      -2.578   0.533  -5.565  0.00  0.00    +0.056 C 
ATOM     11  C   UNL     1      -1.379   0.604  -4.646  0.00  0.00    -0.023 A 
ATOM     12  C   UNL     1      -0.285   1.033  -5.381  0.00  0.00    +0.040 A 
ATOM     13  C   UNL     1       0.947   1.175  -4.742  0.00  0.00    +0.026 A 
ATOM     14  C   UNL     1       1.070   0.892  -3.398  0.00  0.00    +0.030 A 
ATOM     15  C   UNL     1      -0.027   0.465  -2.674  0.00  0.00    +0.106 A 
ATOM     16  C   UNL     1      -1.250   0.316  -3.301  0.00  0.00    +0.034 A 
BRANCH   6  18
ATOM     17  C   UNL     1       0.913   2.379  -9.952  0.00  0.00    +0.013 C 
ATOM     18  C   UNL     1      -0.250   1.901  -9.080  0.00  0.00    +0.093 C 
ENDBRANCH   6  18
ENDBRANCH   3  15
ENDBRANCH   1   3
BRANCH   1  19
ATOM     19  C   UNL     1      -1.497   2.130  -0.218  0.00  0.00    +0.163 C 
BRANCH  19  20
ATOM     20  C   UNL     1      -1.479   3.195  -1.285  0.00  0.00    +0.236 C 
ATOM     21  O   UNL     1      -0.462   3.409  -1.910  0.00  0.00    -0.274 OA
ATOM     22  N   UNL     1      -2.593   3.908  -1.544  0.00  0.00    -0.284 N 
ATOM     23  H   UNL     1      -3.424   3.690  -1.094  0.00  0.00    +0.155 HD
BRANCH  22  24
ATOM     24  C   UNL     1      -2.550   4.962  -2.463  0.00  0.00    +0.033 A 
ATOM     25  C   UNL     1      -1.399   5.727  -2.592  0.00  0.00    +0.024 A 
ATOM     26  C   UNL     1      -1.357   6.763  -3.504  0.00  0.00    +0.017 A 
ATOM     27  C   UNL     1      -2.466   7.047  -4.281  0.00  0.00    +0.018 A 
ATOM     28  C   UNL     1      -3.618   6.290  -4.151  0.00  0.00    +0.017 A 
ATOM     29  C   UNL     1      -3.662   5.249  -3.244  0.00  0.00    +0.024 A 
ATOM     30 BR   UNL     1      -2.409   8.471  -5.524  0.00  0.00    -0.050 Br
ENDBRANCH  22  24
ENDBRANCH  19  20
BRANCH  19  31
ATOM     31  C   UNL     1      -1.852   2.764   1.129  0.00  0.00    +0.032 C 
BRANCH  31  32
ATOM     32  C   UNL     1      -1.967   1.670   2.192  0.00  0.00    -0.015 C 
ATOM     33  C   UNL     1      -2.184   2.313   3.563  0.00  0.00    +0.007 C 
ATOM     34  C   UNL     1      -3.151   0.760   1.863  0.00  0.00    +0.007 C 
ENDBRANCH  31  32
ENDBRANCH  19  31
ENDBRANCH   1  19
TORSDOF 8
