REMARK  Name = ZINC20220567
REMARK  9 active torsions:
REMARK  status: ('A' for Active; 'I' for Inactive)
REMARK    1  A    between atoms: C_1  and  O_2
REMARK    2  A    between atoms: O_2  and  C_3
REMARK    3  A    between atoms: C_3  and  C_5
REMARK    4  A    between atoms: C_6  and  N_35
REMARK    5  A    between atoms: C_8  and  C_9
REMARK    6  A    between atoms: C_17  and  C_31
REMARK    7  A    between atoms: C_19  and  C_24
REMARK    8  A    between atoms: C_31  and  O_33
REMARK    9  A    between atoms: O_33  and  C_34
REMARK                            x       y       z     vdW  Elec       q    Type
REMARK                         _______ _______ _______ _____ _____    ______ ____
ROOT
ATOM      1  C   UNL     1      -3.775   2.346   0.860  0.00  0.00    +0.155 A 
ATOM      2  C   UNL     1      -2.956   1.485   0.165  0.00  0.00    +0.065 A 
ATOM      3  C   UNL     1      -1.759   2.248  -0.232  0.00  0.00    +0.024 A 
ATOM      4  C   UNL     1      -0.692   1.801  -0.986  0.00  0.00    +0.019 C 
ATOM      5  C   UNL     1      -1.940   3.583   0.351  0.00  0.00    +0.079 A 
ATOM      6  C   UNL     1      -1.029   4.623   0.345  0.00  0.00    +0.118 C 
ATOM      7  S   UNL     1      -1.466   6.106   1.206  0.00  0.00    -0.099 S 
ATOM      8  C   UNL     1      -3.281   6.102   1.137  0.00  0.00    +0.170 C 
ATOM      9  C   UNL     1      -3.799   4.720   1.429  0.00  0.00    +0.250 C 
ATOM     10  O   UNL     1      -4.765   4.589   2.151  0.00  0.00    -0.271 OA
ATOM     11  N   UNL     1      -3.205   3.623   0.919  0.00  0.00    -0.270 N 
ENDROOT
BRANCH   4  12
ATOM     12  C   UNL     1      -0.753   0.489  -1.635  0.00  0.00    -0.024 A 
ATOM     13  C   UNL     1       0.367  -0.354  -1.627  0.00  0.00    +0.009 A 
ATOM     14  C   UNL     1       0.300  -1.588  -2.236  0.00  0.00    +0.020 A 
ATOM     15  C   UNL     1      -0.867  -1.992  -2.864  0.00  0.00    +0.041 A 
ATOM     16  C   UNL     1      -1.978  -1.163  -2.881  0.00  0.00    +0.020 A 
ATOM     17  C   UNL     1      -1.930   0.072  -2.273  0.00  0.00    +0.009 A 
ATOM     18 CL   UNL     1      -0.938  -3.546  -3.634  0.00  0.00    -0.084 Cl
ENDBRANCH   4  12
BRANCH   8  19
ATOM     19  C   UNL     1      -3.824   7.069   2.157  0.00  0.00    -0.025 A 
ATOM     20  C   UNL     1      -3.544   6.889   3.498  0.00  0.00    +0.006 A 
ATOM     21  C   UNL     1      -4.037   7.779   4.433  0.00  0.00    +0.020 A 
ATOM     22  C   UNL     1      -4.820   8.845   4.028  0.00  0.00    +0.041 A 
ATOM     23  C   UNL     1      -5.104   9.022   2.685  0.00  0.00    +0.020 A 
ATOM     24  C   UNL     1      -4.606   8.134   1.750  0.00  0.00    +0.006 A 
ATOM     25 CL   UNL     1      -5.445   9.960   5.202  0.00  0.00    -0.084 Cl
ENDBRANCH   8  19
BRANCH   2  26
ATOM     26  N   UNL     1      -3.209   0.154  -0.110  0.00  0.00    -0.356 N 
ATOM     27  H   UNL     1      -2.477  -0.439  -0.678  0.00  0.00    +0.142 HD
ATOM     28  H   UNL     1      -4.142  -0.312   0.239  0.00  0.00    +0.142 HD
ENDBRANCH   2  26
BRANCH   1  29
ATOM     29  C   UNL     1      -5.015   1.991   1.434  0.00  0.00    +0.358 C 
ATOM     30  O   UNL     1      -5.960   2.755   1.363  0.00  0.00    -0.243 OA
BRANCH  29  32
ATOM     31  C   UNL     1      -6.436   0.510   2.620  0.00  0.00    +0.280 C 
ATOM     32  O   UNL     1      -5.153   0.804   2.063  0.00  0.00    -0.463 OA
ENDBRANCH  29  32
ENDBRANCH   1  29
BRANCH   6  33
ATOM     33  C   UNL     1       0.210   4.507  -0.327  0.00  0.00    +0.347 C 
ATOM     34  O   UNL     1       1.215   4.219   0.296  0.00  0.00    -0.244 OA
BRANCH  33  35
ATOM     35  O   UNL     1       0.277   4.714  -1.660  0.00  0.00    -0.464 OA
ATOM     36  C   UNL     1       1.561   4.579  -2.273  0.00  0.00    +0.280 C 
ENDBRANCH  33  35
ENDBRANCH   6  33
TORSDOF 7
