REMARK  Name = ZINC10401619
REMARK  8 active torsions:
REMARK  status: ('A' for Active; 'I' for Inactive)
REMARK    1  A    between atoms: C_3  and  C_10
REMARK    2  A    between atoms: C_5  and  N_7
REMARK    3  A    between atoms: C_11  and  C_12
REMARK    4  A    between atoms: N_14  and  N_15
REMARK    5  A    between atoms: C_16  and  C_18
REMARK    6  A    between atoms: C_18  and  C_19
REMARK    7  A    between atoms: C_19  and  C_20
REMARK    8  A    between atoms: N_22  and  C_23
REMARK                            x       y       z     vdW  Elec       q    Type
REMARK                         _______ _______ _______ _____ _____    ______ ____
ROOT
ATOM      1  N   UNL     1      -2.460   9.500   0.038  0.00  0.00    -0.234 N 
ATOM      2  C   UNL     1      -3.636  10.158   0.059  0.00  0.00    +0.230 C 
ATOM      3  O   UNL     1      -4.678   9.537   0.061  0.00  0.00    -0.274 OA
ATOM      4  H   UNL     1      -1.627   9.997   0.036  0.00  0.00    +0.173 HD
ENDROOT
BRANCH   1   7
ATOM      5  C   UNL     1      -1.264   7.442  -0.003  0.00  0.00    +0.253 C 
ATOM      6  O   UNL     1      -0.219   8.065  -0.005  0.00  0.00    -0.269 OA
ATOM      7  N   UNL     1      -2.441   8.100   0.018  0.00  0.00    -0.231 N 
ATOM      8  H   UNL     1      -3.274   7.603   0.020  0.00  0.00    +0.173 HD
BRANCH   5  10
ATOM      9  C   UNL     1      -0.067   5.321  -0.045  0.00  0.00    +0.013 C 
ATOM     10  C   UNL     1      -1.244   5.978  -0.024  0.00  0.00    +0.069 C 
BRANCH   9  13
ATOM     11  C   UNL     1      -1.218   1.751  -0.087  0.00  0.00    +0.003 A 
ATOM     12  C   UNL     1      -1.246   3.130  -0.062  0.00  0.00    +0.008 A 
ATOM     13  C   UNL     1      -0.047   3.849  -0.065  0.00  0.00    -0.023 A 
ATOM     14  C   UNL     1       1.172   3.163  -0.087  0.00  0.00    +0.040 A 
ATOM     15  C   UNL     1       1.183   1.785  -0.106  0.00  0.00    +0.127 A 
ATOM     16  C   UNL     1      -0.008   1.079  -0.103  0.00  0.00    +0.033 A 
BRANCH  15  17
ATOM     17  N   UNL     1       2.471   1.057  -0.130  0.00  0.00    +0.056 N 
ATOM     18  O   UNL     1       2.483  -0.161  -0.146  0.00  0.00    -0.126 OA
ATOM     19  O   UNL     1       3.520   1.676  -0.133  0.00  0.00    -0.126 OA
ENDBRANCH  15  17
ENDBRANCH   9  13
ENDBRANCH   5  10
ENDBRANCH   1   7
BRANCH   2  20
ATOM     20  C   UNL     1      -3.657  11.665   0.080  0.00  0.00    +0.106 C 
BRANCH  20  21
ATOM     21  C   UNL     1      -5.107  12.154   0.102  0.00  0.00    +0.105 C 
BRANCH  21  22
ATOM     22  C   UNL     1      -5.128  13.661   0.123  0.00  0.00    +0.218 C 
ATOM     23  O   UNL     1      -4.086  14.282   0.121  0.00  0.00    -0.275 OA
ATOM     24  N   UNL     1      -6.304  14.318   0.144  0.00  0.00    -0.284 N 
ATOM     25  H   UNL     1      -7.136  13.825   0.080  0.00  0.00    +0.155 HD
BRANCH  24  26
ATOM     26  C   UNL     1      -6.324  15.714   0.259  0.00  0.00    +0.052 A 
ATOM     27  C   UNL     1      -5.327  16.475  -0.337  0.00  0.00    +0.026 A 
ATOM     28  C   UNL     1      -5.350  17.851  -0.224  0.00  0.00    +0.022 A 
ATOM     29  C   UNL     1      -6.365  18.472   0.483  0.00  0.00    +0.042 A 
ATOM     30  C   UNL     1      -7.360  17.717   1.078  0.00  0.00    +0.041 A 
ATOM     31  C   UNL     1      -7.345  16.340   0.964  0.00  0.00    +0.064 A 
ATOM     32 CL   UNL     1      -8.597  15.392   1.705  0.00  0.00    -0.082 Cl
ATOM     33 CL   UNL     1      -6.389  20.203   0.624  0.00  0.00    -0.083 Cl
ENDBRANCH  24  26
ENDBRANCH  21  22
ENDBRANCH  20  21
ENDBRANCH   2  20
TORSDOF 8
