REMARK  Name = ZINC16607946
REMARK  14 active torsions:
REMARK  status: ('A' for Active; 'I' for Inactive)
REMARK    1  A    between atoms: C_1  and  C_2
REMARK    2  A    between atoms: N_4  and  C_37
REMARK    3  A    between atoms: C_11  and  C_13
REMARK    4  A    between atoms: C_16  and  N_19
REMARK    5  A    between atoms: N_19  and  C_20
REMARK    6  A    between atoms: N_19  and  C_21
REMARK    7  A    between atoms: C_24  and  C_33
REMARK    8  A    between atoms: C_27  and  C_29
REMARK    9  A    between atoms: C_29  and  C_30
REMARK   10  A    between atoms: C_29  and  C_31
REMARK   11  A    between atoms: C_29  and  C_32
REMARK   12  A    between atoms: C_33  and  C_34
REMARK   13  A    between atoms: C_33  and  C_35
REMARK   14  A    between atoms: C_33  and  C_36
REMARK                            x       y       z     vdW  Elec       q    Type
REMARK                         _______ _______ _______ _____ _____    ______ ____
ROOT
ATOM      1  C   UNL     1       7.360   4.546   1.177  0.00  0.00    +0.063 C 
ATOM      2  C   UNL     1       6.213   3.562   1.212  0.00  0.00    +0.041 C 
ATOM      3  N   UNL     1       5.573   3.154   0.172  0.00  0.00    -0.190 NA
ATOM      4  N   UNL     1       4.568   2.202   0.443  0.00  0.00    -0.238 N 
ATOM      5  C   UNL     1       4.345   2.235   1.870  0.00  0.00    +0.056 C 
ATOM      6  C   UNL     1       5.671   2.869   2.401  0.00  0.00    +0.066 C 
ATOM      7  C   UNL     1       5.180   3.592   3.619  0.00  0.00    -0.052 C 
ATOM      8  C   UNL     1       4.580   2.725   4.480  0.00  0.00    -0.014 C 
ATOM      9  C   UNL     1       4.372   1.295   4.088  0.00  0.00    -0.004 C 
ATOM     10  C   UNL     1       4.218   3.240   5.802  0.00  0.00    +0.162 C 
ATOM     11  O   UNL     1       3.389   2.748   6.533  0.00  0.00    -0.292 OA
ATOM     12  C   UNL     1       4.937   4.495   6.270  0.00  0.00    +0.066 C 
ATOM     13  C   UNL     1       4.761   5.541   5.169  0.00  0.00    +0.020 C 
ATOM     14  C   UNL     1       5.358   5.045   3.854  0.00  0.00    +0.022 C 
ATOM     15  N   UNL     1       4.166   1.024   2.646  0.00  0.00    +0.400 N 
ATOM     16  H   UNL     1       4.846   0.320   2.333  0.00  0.00    -0.082 HD
ATOM     17  H   UNL     1       3.214   0.668   2.501  0.00  0.00    -0.082 HD
ENDROOT
BRANCH   9  18
ATOM     18  C   UNL     1       3.183   0.705   4.798  0.00  0.00    -0.057 A 
ATOM     19  C   UNL     1       1.906   0.961   4.334  0.00  0.00    +0.004 A 
ATOM     20  C   UNL     1       0.812   0.422   4.983  0.00  0.00    +0.023 A 
ATOM     21  C   UNL     1       0.997  -0.378   6.103  0.00  0.00    +0.029 A 
ATOM     22  C   UNL     1       2.281  -0.633   6.567  0.00  0.00    +0.023 A 
ATOM     23  C   UNL     1       3.370  -0.091   5.913  0.00  0.00    +0.004 A 
BRANCH  21  24
ATOM     24  N   UNL     1      -0.107  -0.925   6.762  0.00  0.00    -0.336 N 
ATOM     25  C   UNL     1      -1.464  -0.560   6.345  0.00  0.00    +0.129 C 
ATOM     26  C   UNL     1       0.092  -1.863   7.869  0.00  0.00    +0.129 C 
ENDBRANCH  21  24
ENDBRANCH   9  18
BRANCH   4  27
ATOM     27  C   UNL     1       3.919   1.391  -0.489  0.00  0.00    +0.050 A 
ATOM     28  C   UNL     1       2.945   0.491  -0.071  0.00  0.00    +0.025 A 
ATOM     29  C   UNL     1       2.301  -0.306  -0.997  0.00  0.00    +0.002 A 
ATOM     30  C   UNL     1       2.631  -0.217  -2.337  0.00  0.00    +0.000 A 
ATOM     31  C   UNL     1       3.604   0.673  -2.756  0.00  0.00    +0.002 A 
ATOM     32  C   UNL     1       4.248   1.477  -1.837  0.00  0.00    +0.025 A 
ENDBRANCH   4  27
BRANCH  14  33
ATOM     33  C   UNL     1       4.655   5.824   2.728  0.00  0.00    -0.031 C 
ATOM     34  C   UNL     1       3.924   7.030   3.321  0.00  0.00    +0.011 C 
ATOM     35  C   UNL     1       5.696   6.307   1.715  0.00  0.00    +0.011 C 
ATOM     36  C   UNL     1       3.648   4.910   2.027  0.00  0.00    +0.011 C 
ENDBRANCH  14  33
BRANCH  12  37
ATOM     37  C   UNL     1       6.414   4.197   6.513  0.00  0.00    -0.028 C 
ATOM     38  C   UNL     1       6.963   3.361   5.354  0.00  0.00    +0.011 C 
ATOM     39  C   UNL     1       7.191   5.511   6.606  0.00  0.00    +0.011 C 
ATOM     40  C   UNL     1       6.569   3.419   7.821  0.00  0.00    +0.011 C 
ENDBRANCH  12  37
TORSDOF 5
