REMARK  Name = ZINC08767711
REMARK  6 active torsions:
REMARK  status: ('A' for Active; 'I' for Inactive)
REMARK    1  A    between atoms: C_1  and  C_2
REMARK    2  A    between atoms: C_4  and  C_32
REMARK    3  A    between atoms: C_6  and  N_8
REMARK    4  A    between atoms: N_8  and  C_9
REMARK    5  A    between atoms: C_9  and  C_10
REMARK    6  A    between atoms: C_15  and  C_19
REMARK                            x       y       z     vdW  Elec       q    Type
REMARK                         _______ _______ _______ _____ _____    ______ ____
ROOT
ATOM      1  N   UNL     1      -1.199  -0.721   0.010  0.00  0.00    -0.273 N 
ATOM      2  C   UNL     1      -1.182  -2.094  -0.101  0.00  0.00    +0.136 C 
ATOM      3  N   UNL     1      -2.205  -2.882  -0.199  0.00  0.00    -0.362 N 
ATOM      4  C   UNL     1      -2.062  -4.322  -0.289  0.00  0.00    +0.117 C 
ATOM      5  C   UNL     1      -2.871  -4.981   0.855  0.00  0.00    +0.191 C 
ATOM      6  S   UNL     1      -1.843  -6.457   1.251  0.00  0.00    -0.028 S 
ATOM      7  O   UNL     1      -2.112  -7.505   0.331  0.00  0.00    -0.174 OA
ATOM      8  O   UNL     1      -1.919  -6.707   2.648  0.00  0.00    -0.174 OA
ATOM      9  C   UNL     1      -0.207  -5.699   0.854  0.00  0.00    +0.182 C 
ATOM     10  C   UNL     1      -0.592  -4.766  -0.310  0.00  0.00    +0.099 C 
ATOM     11  S   UNL     1       0.254  -3.149  -0.148  0.00  0.00    -0.085 S 
ATOM     12  H   UNL     1      -3.222  -2.462  -0.216  0.00  0.00    +0.162 HD
ENDROOT
BRANCH   1  18
ATOM     13  C   UNL     1       2.600   1.393  -2.285  0.00  0.00    +0.044 C 
ATOM     14  C   UNL     1       1.866   1.028  -1.021  0.00  0.00    -0.048 A 
ATOM     15  C   UNL     1       2.383   1.396   0.208  0.00  0.00    +0.006 A 
ATOM     16  C   UNL     1       1.714   1.063   1.371  0.00  0.00    -0.048 A 
ATOM     17  C   UNL     1       0.526   0.361   1.309  0.00  0.00    +0.027 A 
ATOM     18  C   UNL     1       0.004  -0.010   0.077  0.00  0.00    +0.037 A 
ATOM     19  C   UNL     1       0.679   0.326  -1.090  0.00  0.00    +0.027 A 
ATOM     20  C   UNL     1       2.281   1.466   2.708  0.00  0.00    +0.044 C 
ENDBRANCH   1  18
BRANCH   1  21
ATOM     21  C   UNL     1      -2.476  -0.006   0.059  0.00  0.00    +0.208 C 
BRANCH  21  22
ATOM     22  C   UNL     1      -2.904   0.354  -1.340  0.00  0.00    +0.236 C 
ATOM     23  O   UNL     1      -2.210   0.044  -2.285  0.00  0.00    -0.274 OA
ATOM     24  N   UNL     1      -4.058   1.021  -1.541  0.00  0.00    -0.268 N 
ATOM     25  C   UNL     1      -4.456   1.356  -2.843  0.00  0.00    +0.147 A 
ATOM     26  C   UNL     1      -3.751   1.066  -4.022  0.00  0.00    +0.068 A 
ATOM     27  C   UNL     1      -4.465   1.550  -5.063  0.00  0.00    +0.035 A 
ATOM     28  N   UNL     1      -5.576   2.134  -4.566  0.00  0.00    -0.280 N 
ATOM     29  H   UNL     1      -6.303   2.602  -5.247  0.00  0.00    +0.189 HD
ATOM     30  N   UNL     1      -5.551   2.001  -3.172  0.00  0.00    -0.158 NA
ATOM     31  C   UNL     1      -4.085   1.460  -6.518  0.00  0.00    +0.065 C 
ATOM     32  H   UNL     1      -4.688   1.302  -0.684  0.00  0.00    +0.156 HD
ENDBRANCH  21  22
ENDBRANCH   1  21
TORSDOF 3
