REMARK  Name = ZINC09347033
REMARK  8 active torsions:
REMARK  status: ('A' for Active; 'I' for Inactive)
REMARK    1  A    between atoms: C_1  and  C_2
REMARK    2  A    between atoms: C_2  and  N_59
REMARK    3  A    between atoms: C_8  and  N_19
REMARK    4  A    between atoms: C_9  and  C_10
REMARK    5  A    between atoms: C_20  and  C_22
REMARK    6  A    between atoms: C_27  and  S_28
REMARK    7  A    between atoms: S_28  and  C_31
REMARK    8  A    between atoms: C_31  and  C_32
REMARK                            x       y       z     vdW  Elec       q    Type
REMARK                         _______ _______ _______ _____ _____    ______ ____
ROOT
ATOM      1  C   UNL     1       1.872  -0.714  -8.864  0.00  0.00    -0.074 C 
ATOM      2  C   UNL     1       2.047  -1.918  -7.935  0.00  0.00    +0.018 C 
ATOM      3  C   UNL     1       1.406  -1.581  -6.592  0.00  0.00    -0.029 A 
ATOM      4  C   UNL     1       1.144  -0.290  -6.276  0.00  0.00    -0.021 A 
ATOM      5  S   UNL     1       0.406  -0.358  -4.668  0.00  0.00    -0.079 S 
ATOM      6  C   UNL     1       0.463  -2.125  -4.420  0.00  0.00    +0.082 A 
ATOM      7  C   UNL     1       1.042  -2.571  -5.598  0.00  0.00    +0.039 A 
ATOM      8  C   UNL     1       1.425   0.911  -7.124  0.00  0.00    -0.035 C 
ATOM      9  N   UNL     1       2.371   0.502  -8.190  0.00  0.00    +0.383 N 
ATOM     10  H   UNL     1       3.284   0.299  -7.767  0.00  0.00    -0.081 HD
ENDROOT
BRANCH   7  11
ATOM     11  C   UNL     1       1.280  -4.005  -5.832  0.00  0.00    +0.112 A 
ATOM     12  N   UNL     1       1.808  -4.595  -6.886  0.00  0.00    -0.239 NA
ATOM     13  C   UNL     1       1.971  -5.931  -6.961  0.00  0.00    +0.079 A 
ATOM     14  C   UNL     1       2.524  -6.685  -8.024  0.00  0.00    +0.029 A 
ATOM     15  C   UNL     1       2.611  -8.050  -7.942  0.00  0.00    +0.002 A 
ATOM     16  C   UNL     1       2.164  -8.740  -6.825  0.00  0.00    +0.001 A 
ATOM     17  C   UNL     1       1.617  -8.036  -5.767  0.00  0.00    +0.017 A 
ATOM     18  C   UNL     1       1.526  -6.668  -5.839  0.00  0.00    +0.040 A 
ATOM     19  S   UNL     1       0.918  -5.391  -4.763  0.00  0.00    -0.067 S 
ENDBRANCH   7  11
BRANCH   6  20
ATOM     20  N   UNL     1       0.031  -2.865  -3.327  0.00  0.00    -0.275 N 
ATOM     21  C   UNL     1      -0.512  -2.241  -2.263  0.00  0.00    +0.250 C 
ATOM     22  O   UNL     1      -0.624  -1.031  -2.260  0.00  0.00    -0.270 OA
ATOM     23  H   UNL     1       0.120  -3.831  -3.329  0.00  0.00    +0.156 HD
BRANCH  21  24
ATOM     24  C   UNL     1      -0.972  -3.029  -1.100  0.00  0.00    +0.062 A 
ATOM     25  C   UNL     1      -0.846  -4.420  -1.100  0.00  0.00    +0.015 A 
ATOM     26  C   UNL     1      -1.277  -5.149  -0.012  0.00  0.00    +0.001 A 
ATOM     27  C   UNL     1      -1.834  -4.505   1.079  0.00  0.00    +0.002 A 
ATOM     28  C   UNL     1      -1.958  -3.127   1.089  0.00  0.00    +0.028 A 
ATOM     29  C   UNL     1      -1.535  -2.386   0.004  0.00  0.00    +0.100 A 
BRANCH  29  30
ATOM     30  S   UNL     1      -1.700  -0.632   0.015  0.00  0.00    -0.003 S 
ATOM     31  O   UNL     1      -2.322  -0.334   1.257  0.00  0.00    -0.169 OA
ATOM     32  O   UNL     1      -2.346  -0.321  -1.212  0.00  0.00    -0.169 OA
BRANCH  30  33
ATOM     33  C   UNL     1       0.002  -0.004   0.002  0.00  0.00    +0.168 C 
ATOM     34  C   UNL     1      -0.019   1.526   0.010  0.00  0.00    +0.028 C 
ENDBRANCH  30  33
ENDBRANCH  29  30
ENDBRANCH  21  24
ENDBRANCH   6  20
BRANCH   9  36
ATOM     35  C   UNL     1       2.782   2.908  -8.427  0.00  0.00    -0.017 C 
ATOM     36  C   UNL     1       2.530   1.596  -9.173  0.00  0.00    -0.082 C 
ENDBRANCH   9  36
TORSDOF 6
