REMARK  Name = ZINC17144278
REMARK  7 active torsions:
REMARK  status: ('A' for Active; 'I' for Inactive)
REMARK    1  A    between atoms: C_1  and  C_2
REMARK    2  A    between atoms: C_8  and  C_10
REMARK    3  A    between atoms: C_10  and  S_11
REMARK    4  A    between atoms: S_11  and  C_12
REMARK    5  A    between atoms: C_15  and  C_24
REMARK    6  A    between atoms: N_16  and  C_17
REMARK    7  A    between atoms: C_24  and  C_25
REMARK                            x       y       z     vdW  Elec       q    Type
REMARK                         _______ _______ _______ _____ _____    ______ ____
ROOT
ATOM      1  C   UNL     1      -0.550  -6.916  -0.031  0.00  0.00    +0.197 A 
ATOM      2  N   UNL     1       0.695  -7.334  -0.044  0.00  0.00    -0.122 NA
ATOM      3  N   UNL     1       0.725  -8.619  -0.051  0.00  0.00    -0.133 NA
ATOM      4  C   UNL     1      -0.487  -9.097  -0.043  0.00  0.00    +0.144 A 
ATOM      5  N   UNL     1      -1.345  -8.029  -0.024  0.00  0.00    -0.274 N 
ENDROOT
BRANCH   5   6
ATOM      6  C   UNL     1      -2.748  -8.069  -0.005  0.00  0.00    +0.050 A 
ATOM      7  C   UNL     1      -3.413  -8.605   1.089  0.00  0.00    +0.029 A 
ATOM      8  C   UNL     1      -4.793  -8.639   1.109  0.00  0.00    +0.040 A 
ATOM      9  C   UNL     1      -5.514  -8.148   0.033  0.00  0.00    +0.124 A 
ATOM     10  C   UNL     1      -4.853  -7.618  -1.062  0.00  0.00    +0.040 A 
ATOM     11  C   UNL     1      -3.472  -7.577  -1.082  0.00  0.00    +0.029 A 
ATOM     12  F   UNL     1      -6.864  -8.187   0.051  0.00  0.00    -0.205 F 
ENDBRANCH   5   6
BRANCH   1  13
ATOM     13  S   UNL     1      -1.093  -5.240  -0.017  0.00  0.00    -0.076 S 
BRANCH  13  14
ATOM     14  C   UNL     1       0.506  -4.392  -0.027  0.00  0.00    +0.173 C 
BRANCH  14  22
ATOM     15  C   UNL     1       1.333   3.436   0.007  0.00  0.00    +0.075 C 
ATOM     16  C   UNL     1       1.110   1.945   0.002  0.00  0.00    +0.101 A 
ATOM     17  N   UNL     1      -0.015   1.258   0.009  0.00  0.00    -0.145 NA
ATOM     18  N   UNL     1       0.002  -0.004   0.002  0.00  0.00    -0.126 NA
ATOM     19  C   UNL     1       1.134  -0.687  -0.013  0.00  0.00    +0.188 A 
ATOM     20  S   UNL     1       2.296   0.607  -0.017  0.00  0.00    -0.036 S 
ATOM     21  N   UNL     1       1.339  -2.063  -0.022  0.00  0.00    -0.263 N 
ATOM     22  C   UNL     1       0.284  -2.901  -0.017  0.00  0.00    +0.229 C 
ATOM     23  O   UNL     1      -0.845  -2.456  -0.004  0.00  0.00    -0.275 OA
ATOM     24  H   UNL     1       2.241  -2.419  -0.032  0.00  0.00    +0.157 HD
ENDBRANCH  14  22
ENDBRANCH  13  14
ENDBRANCH   1  13
BRANCH   4  25
ATOM     25  C   UNL     1      -0.874 -10.553  -0.047  0.00  0.00    +0.130 C 
BRANCH  25  26
ATOM     26  C   UNL     1      -0.989 -11.046   1.372  0.00  0.00    +0.033 A 
ATOM     27  C   UNL     1      -2.190 -11.063   1.989  0.00  0.00    +0.091 A 
ATOM     28  C   UNL     1      -2.274 -11.530   3.323  0.00  0.00    +0.254 A 
ATOM     29  O   UNL     1      -3.346 -11.555   3.900  0.00  0.00    -0.268 OA
ATOM     30  N   UNL     1      -1.155 -11.949   3.948  0.00  0.00    -0.275 N 
ATOM     31  H   UNL     1      -1.205 -12.280   4.890  0.00  0.00    +0.173 HD
ATOM     32  C   UNL     1       0.030 -11.921   3.310  0.00  0.00    +0.327 A 
ATOM     33  O   UNL     1       1.030 -12.302   3.886  0.00  0.00    -0.247 OA
ATOM     34  N   UNL     1       0.121 -11.485   2.040  0.00  0.00    -0.311 N 
ATOM     35  H   UNL     1       1.010 -11.480   1.581  0.00  0.00    +0.170 HD
ENDBRANCH  25  26
ENDBRANCH   4  25
TORSDOF 6
