REMARK  Name = ZINC59891235
REMARK  11 active torsions:
REMARK  status: ('A' for Active; 'I' for Inactive)
REMARK    1  A    between atoms: C_1  and  C_2
REMARK    2  A    between atoms: C_2  and  C_3
REMARK    3  A    between atoms: C_3  and  C_4
REMARK    4  A    between atoms: C_4  and  C_5
REMARK    5  A    between atoms: C_5  and  C_30
REMARK    6  A    between atoms: N_6  and  N_7
REMARK    7  A    between atoms: C_10  and  S_13
REMARK    8  A    between atoms: S_13  and  C_14
REMARK    9  A    between atoms: C_14  and  C_15
REMARK   10  A    between atoms: N_17  and  C_18
REMARK   11  A    between atoms: C_22  and  N_24
REMARK                            x       y       z     vdW  Elec       q    Type
REMARK                         _______ _______ _______ _____ _____    ______ ____
ROOT
ATOM      1  C   UNL     1       8.558  -6.729  -2.423  0.00  0.00    +0.173 C 
ENDROOT
BRANCH   1   2
ATOM      2  C   UNL     1       9.623  -7.276  -1.508  0.00  0.00    +0.227 C 
ATOM      3  O   UNL     1       9.525  -7.130  -0.308  0.00  0.00    -0.275 OA
ATOM      4  N   UNL     1      10.684  -7.928  -2.024  0.00  0.00    -0.285 N 
ATOM      5  H   UNL     1      10.731  -8.101  -2.977  0.00  0.00    +0.155 HD
BRANCH   4   6
ATOM      6  C   UNL     1      11.719  -8.354  -1.184  0.00  0.00    +0.035 A 
ATOM      7  C   UNL     1      11.432  -8.799   0.101  0.00  0.00    +0.023 A 
ATOM      8  C   UNL     1      12.453  -9.221   0.931  0.00  0.00    +0.004 A 
ATOM      9  C   UNL     1      13.761  -9.201   0.487  0.00  0.00    +0.023 A 
ATOM     10  C   UNL     1      14.054  -8.758  -0.797  0.00  0.00    +0.038 A 
ATOM     11  C   UNL     1      13.030  -8.339  -1.635  0.00  0.00    +0.046 A 
BRANCH  10  12
ATOM     12  N   UNL     1      15.379  -8.738  -1.246  0.00  0.00    -0.271 N 
ATOM     13  C   UNL     1      16.517  -9.278  -0.492  0.00  0.00    +0.114 C 
ATOM     14  C   UNL     1      17.657  -9.436  -1.523  0.00  0.00    +0.029 C 
ATOM     15  C   UNL     1      17.269  -8.381  -2.585  0.00  0.00    +0.098 C 
ATOM     16  C   UNL     1      15.773  -8.229  -2.426  0.00  0.00    +0.220 C 
ATOM     17  O   UNL     1      15.036  -7.718  -3.242  0.00  0.00    -0.275 OA
ENDBRANCH  10  12
ENDBRANCH   4   6
ENDBRANCH   1   2
BRANCH   1  18
ATOM     18  S   UNL     1       7.273  -5.913  -1.436  0.00  0.00    -0.075 S 
BRANCH  18  22
ATOM     19  N   UNL     1       3.168  -3.701  -3.606  0.00  0.00    -0.205 N 
ATOM     20  C   UNL     1       4.366  -4.385  -3.490  0.00  0.00    +0.232 A 
ATOM     21  N   UNL     1       4.992  -4.664  -2.367  0.00  0.00    -0.186 NA
ATOM     22  C   UNL     1       6.118  -5.334  -2.634  0.00  0.00    +0.211 A 
ATOM     23  N   UNL     1       6.223  -5.491  -3.932  0.00  0.00    -0.144 NA
ATOM     24  N   UNL     1       5.094  -4.888  -4.510  0.00  0.00    -0.245 N 
ATOM     25  H   UNL     1       2.781  -3.547  -4.482  0.00  0.00    +0.177 HD
ATOM     26  H   UNL     1       4.881  -4.840  -5.455  0.00  0.00    +0.192 HD
BRANCH  19  28
ATOM     27  C   UNL     1       1.408  -2.600  -2.566  0.00  0.00    +0.034 C 
ATOM     28  N   UNL     1       2.516  -3.232  -2.459  0.00  0.00    -0.189 NA
ATOM     29  C   UNL     1       0.806  -2.360  -3.927  0.00  0.00    +0.062 C 
BRANCH  27  30
ATOM     30  C   UNL     1       0.706  -2.095  -1.332  0.00  0.00    +0.052 C 
BRANCH  30  31
ATOM     31  C   UNL     1       0.676  -0.565  -1.352  0.00  0.00    +0.006 C 
BRANCH  31  33
ATOM     32  C   UNL     1      -0.066   1.477  -0.119  0.00  0.00    +0.004 C 
ATOM     33  C   UNL     1      -0.036  -0.053  -0.099  0.00  0.00    -0.003 C 
ENDBRANCH  31  33
ENDBRANCH  30  31
ENDBRANCH  27  30
ENDBRANCH  19  28
ENDBRANCH  18  22
ENDBRANCH   1  18
TORSDOF 9
