REMARK  Name = ZINC30005801
REMARK  10 active torsions:
REMARK  status: ('A' for Active; 'I' for Inactive)
REMARK    1  A    between atoms: C_4  and  C_7
REMARK    2  A    between atoms: C_7  and  N_8
REMARK    3  A    between atoms: C_12  and  C_14
REMARK    4  A    between atoms: C_14  and  C_15
REMARK    5  A    between atoms: C_15  and  S_16
REMARK    6  A    between atoms: S_16  and  C_17
REMARK    7  A    between atoms: C_20  and  C_29
REMARK    8  A    between atoms: N_21  and  C_22
REMARK    9  A    between atoms: C_22  and  C_23
REMARK   10  A    between atoms: C_29  and  N_30
REMARK                            x       y       z     vdW  Elec       q    Type
REMARK                         _______ _______ _______ _____ _____    ______ ____
ROOT
ATOM      1  C   UNL     1      -0.856   3.095   2.808  0.00  0.00    +0.192 A 
ATOM      2  N   UNL     1      -1.537   1.989   2.994  0.00  0.00    -0.123 NA
ATOM      3  N   UNL     1      -1.340   1.183   2.012  0.00  0.00    -0.135 NA
ATOM      4  C   UNL     1      -0.528   1.723   1.148  0.00  0.00    +0.118 A 
ATOM      5  N   UNL     1      -0.186   2.958   1.626  0.00  0.00    -0.303 N 
ENDROOT
BRANCH   1   6
ATOM      6  S   UNL     1      -0.809   4.491   3.882  0.00  0.00    -0.086 S 
BRANCH   6   7
ATOM      7  C   UNL     1      -1.917   3.915   5.193  0.00  0.00    +0.086 C 
BRANCH   7   8
ATOM      8  C   UNL     1      -2.035   4.994   6.271  0.00  0.00    +0.107 C 
BRANCH   8  13
ATOM      9  N   UNL     1      -4.293   5.666  10.462  0.00  0.00    -0.295 N 
ATOM     10  C   UNL     1      -4.038   4.876   9.400  0.00  0.00    +0.306 C 
ATOM     11  O   UNL     1      -4.552   3.778   9.323  0.00  0.00    -0.252 OA
ATOM     12  N   UNL     1      -3.213   5.305   8.425  0.00  0.00    -0.240 N 
ATOM     13  C   UNL     1      -2.958   4.515   7.363  0.00  0.00    +0.221 C 
ATOM     14  O   UNL     1      -3.470   3.419   7.285  0.00  0.00    -0.275 OA
ATOM     15  H   UNL     1      -3.828   6.660  10.532  0.00  0.00    +0.151 HD
ATOM     16  H   UNL     1      -2.747   6.299   8.495  0.00  0.00    +0.159 HD
BRANCH   9  17
ATOM     17  C   UNL     1      -5.190   5.200  11.523  0.00  0.00    +0.141 C 
BRANCH  17  21
ATOM     18  C   UNL     1      -5.518   8.212  14.534  0.00  0.00    +0.000 A 
ATOM     19  C   UNL     1      -6.398   8.202  13.468  0.00  0.00    +0.000 A 
ATOM     20  C   UNL     1      -6.291   7.228  12.493  0.00  0.00    +0.005 A 
ATOM     21  C   UNL     1      -5.306   6.263  12.585  0.00  0.00    -0.030 A 
ATOM     22  C   UNL     1      -4.429   6.270  13.654  0.00  0.00    +0.005 A 
ATOM     23  C   UNL     1      -4.533   7.247  14.626  0.00  0.00    +0.000 A 
ENDBRANCH  17  21
ENDBRANCH   9  17
ENDBRANCH   8  13
ENDBRANCH   7   8
ENDBRANCH   6   7
ENDBRANCH   1   6
BRANCH   5  24
ATOM     24  C   UNL     1       0.710   3.933   0.998  0.00  0.00    +0.160 C 
BRANCH  24  25
ATOM     25  C   UNL     1      -0.094   4.870   0.134  0.00  0.00    -0.028 A 
ATOM     26  C   UNL     1      -0.259   4.599  -1.211  0.00  0.00    +0.005 A 
ATOM     27  C   UNL     1      -1.000   5.457  -2.003  0.00  0.00    +0.000 A 
ATOM     28  C   UNL     1      -1.567   6.590  -1.451  0.00  0.00    +0.000 A 
ATOM     29  C   UNL     1      -1.397   6.864  -0.107  0.00  0.00    +0.000 A 
ATOM     30  C   UNL     1      -0.660   6.004   0.686  0.00  0.00    +0.005 A 
ENDBRANCH  24  25
ENDBRANCH   5  24
BRANCH   4  31
ATOM     31  C   UNL     1      -0.049   1.099  -0.138  0.00  0.00    -0.001 C 
BRANCH  31  32
ATOM     32  N   UNL     1       1.165   0.312   0.122  0.00  0.00    +0.384 N 
ATOM     33  C   UNL     1       0.906  -0.747   1.131  0.00  0.00    -0.078 C 
ATOM     34  C   UNL     1       2.057  -1.755   0.889  0.00  0.00    -0.020 C 
ATOM     35  C   UNL     1       2.217  -1.735  -0.648  0.00  0.00    -0.020 C 
ATOM     36  C   UNL     1       1.610  -0.394  -1.098  0.00  0.00    -0.078 C 
ATOM     37  H   UNL     1       1.920   1.033   0.470  0.00  0.00    -0.081 HD
ENDBRANCH  31  32
ENDBRANCH   4  31
TORSDOF 10
