REMARK  Name = ZINC66876505
REMARK  6 active torsions:
REMARK  status: ('A' for Active; 'I' for Inactive)
REMARK    1  A    between atoms: C_3  and  N_23
REMARK    2  A    between atoms: C_6  and  C_7
REMARK    3  A    between atoms: C_7  and  N_8
REMARK    4  A    between atoms: N_8  and  C_9
REMARK    5  A    between atoms: C_9  and  C_10
REMARK    6  A    between atoms: C_15  and  C_16
REMARK                            x       y       z     vdW  Elec       q    Type
REMARK                         _______ _______ _______ _____ _____    ______ ____
ROOT
ATOM      1  N   UNL     1      -1.706  -1.240  -1.312  0.00  0.00    +0.384 N 
ATOM      2  H   UNL     1      -1.727  -0.320  -1.724  0.00  0.00    -0.085 HD
ATOM      3  H   UNL     1      -1.078  -1.830  -1.837  0.00  0.00    -0.085 HD
ENDROOT
BRANCH   1   4
ATOM      4  C   UNL     1      -1.240  -1.143   0.078  0.00  0.00    -0.046 C 
BRANCH   4  10
ATOM      5  C   UNL     1       0.307   0.820   0.197  0.00  0.00    +0.004 A 
ATOM      6  C   UNL     1       1.575   1.367   0.220  0.00  0.00    +0.026 A 
ATOM      7  C   UNL     1       2.688   0.539   0.149  0.00  0.00    +0.047 A 
ATOM      8  C   UNL     1       2.522  -0.836   0.056  0.00  0.00    +0.026 A 
ATOM      9  C   UNL     1       1.251  -1.377   0.033  0.00  0.00    +0.004 A 
ATOM     10  C   UNL     1       0.145  -0.550   0.103  0.00  0.00    -0.064 A 
BRANCH   7  11
ATOM     11  N   UNL     1       3.976   1.091   0.172  0.00  0.00    -0.306 N 
ATOM     12  C   UNL     1       5.160   0.402   0.105  0.00  0.00    +0.112 A 
ATOM     13  C   UNL     1       6.147   1.316   0.159  0.00  0.00    +0.130 A 
ATOM     14  N   UNL     1       5.588   2.531   0.256  0.00  0.00    -0.244 NA
ATOM     15  C   UNL     1       4.288   2.411   0.260  0.00  0.00    +0.204 A 
ENDBRANCH   7  11
ENDBRANCH   4  10
ENDBRANCH   1   4
BRANCH   1  16
ATOM     16  C   UNL     1      -3.056  -1.819  -1.337  0.00  0.00    -0.043 C 
BRANCH  16  17
ATOM     17  C   UNL     1      -3.528  -1.932  -2.763  0.00  0.00    -0.019 A 
ATOM     18  C   UNL     1      -4.409  -1.113  -3.377  0.00  0.00    +0.107 A 
ATOM     19  N   UNL     1      -4.568  -1.547  -4.646  0.00  0.00    -0.284 N 
ATOM     20  H   UNL     1      -5.144  -1.148  -5.317  0.00  0.00    +0.188 HD
ATOM     21  N   UNL     1      -3.758  -2.676  -4.825  0.00  0.00    -0.174 NA
ATOM     22  C   UNL     1      -3.124  -2.908  -3.695  0.00  0.00    +0.094 A 
BRANCH  22  23
ATOM     23  C   UNL     1      -2.158  -4.006  -3.446  0.00  0.00    +0.002 A 
ATOM     24  C   UNL     1      -1.188  -4.313  -4.397  0.00  0.00    +0.011 A 
ATOM     25  C   UNL     1      -0.291  -5.335  -4.161  0.00  0.00    +0.020 A 
ATOM     26  C   UNL     1      -0.355  -6.056  -2.981  0.00  0.00    +0.041 A 
ATOM     27  C   UNL     1      -1.317  -5.755  -2.032  0.00  0.00    +0.020 A 
ATOM     28  C   UNL     1      -2.214  -4.731  -2.257  0.00  0.00    +0.011 A 
ATOM     29 CL   UNL     1       0.775  -7.340  -2.689  0.00  0.00    -0.084 Cl
ENDBRANCH  22  23
ENDBRANCH  16  17
ENDBRANCH   1  16
TORSDOF 6
