REMARK  Name = ZINC09059264
REMARK  10 active torsions:
REMARK  status: ('A' for Active; 'I' for Inactive)
REMARK    1  A    between atoms: C_1  and  C_2
REMARK    2  A    between atoms: C_4  and  C_34
REMARK    3  A    between atoms: C_6  and  N_8
REMARK    4  A    between atoms: C_9  and  C_11
REMARK    5  A    between atoms: C_12  and  C_33
REMARK    6  A    between atoms: C_13  and  C_29
REMARK    7  A    between atoms: C_14  and  N_16
REMARK    8  A    between atoms: C_17  and  C_19
REMARK    9  A    between atoms: C_29  and  O_31
REMARK   10  A    between atoms: O_31  and  C_32
REMARK                            x       y       z     vdW  Elec       q    Type
REMARK                         _______ _______ _______ _____ _____    ______ ____
ROOT
ATOM      1  C   UNL     1      -2.093   1.635   1.282  0.00  0.00    +0.080 A 
ATOM      2  C   UNL     1      -0.776   1.265   1.313  0.00  0.00    -0.015 A 
ATOM      3  C   UNL     1      -0.056   1.543   2.465  0.00  0.00    +0.091 A 
ATOM      4  C   UNL     1      -0.728   2.176   3.516  0.00  0.00    +0.087 A 
ATOM      5  S   UNL     1      -2.332   2.371   2.889  0.00  0.00    -0.068 S 
ATOM      6  C   UNL     1      -0.129   0.586   0.134  0.00  0.00    +0.046 C 
ENDROOT
BRANCH   1   8
ATOM      7  N   UNL     1      -4.331   1.900   0.359  0.00  0.00    -0.281 N 
ATOM      8  C   UNL     1      -3.065   1.466   0.201  0.00  0.00    +0.255 C 
ATOM      9  O   UNL     1      -2.729   0.935  -0.842  0.00  0.00    -0.269 OA
ATOM     10  H   UNL     1      -4.620   2.253   1.215  0.00  0.00    +0.155 HD
BRANCH   7  16
ATOM     11  C   UNL     1      -8.925   1.285  -1.280  0.00  0.00    +0.044 C 
ATOM     12  C   UNL     1      -7.462   1.543  -1.535  0.00  0.00    -0.048 A 
ATOM     13  C   UNL     1      -7.007   1.720  -2.828  0.00  0.00    +0.006 A 
ATOM     14  C   UNL     1      -5.666   1.957  -3.066  0.00  0.00    -0.048 A 
ATOM     15  C   UNL     1      -4.776   2.018  -2.012  0.00  0.00    +0.026 A 
ATOM     16  C   UNL     1      -5.230   1.840  -0.711  0.00  0.00    +0.034 A 
ATOM     17  C   UNL     1      -6.577   1.596  -0.476  0.00  0.00    +0.026 A 
ATOM     18  C   UNL     1      -5.174   2.151  -4.478  0.00  0.00    +0.044 C 
ENDBRANCH   7  16
ENDBRANCH   1   8
BRANCH   4  19
ATOM     19  N   UNL     1      -0.234   2.554   4.750  0.00  0.00    -0.279 N 
ATOM     20  C   UNL     1      -1.043   3.159   5.642  0.00  0.00    +0.224 C 
ATOM     21  O   UNL     1      -2.204   3.372   5.362  0.00  0.00    -0.275 OA
ATOM     22  H   UNL     1       0.694   2.384   4.974  0.00  0.00    +0.155 HD
BRANCH  20  23
ATOM     23  C   UNL     1      -0.505   3.571   6.988  0.00  0.00    +0.048 C 
ATOM     24  C   UNL     1       0.643   4.564   6.796  0.00  0.00    +0.019 C 
ATOM     25  C   UNL     1       1.189   4.983   8.163  0.00  0.00    -0.009 C 
ATOM     26  C   UNL     1       0.075   5.642   8.977  0.00  0.00    +0.007 C 
ATOM     27  C   UNL     1      -1.073   4.649   9.169  0.00  0.00    -0.009 C 
ATOM     28  C   UNL     1      -1.619   4.231   7.803  0.00  0.00    +0.019 C 
ATOM     29  C   UNL     1      -0.560   3.414   9.913  0.00  0.00    +0.007 C 
ATOM     30  C   UNL     1       0.555   2.755   9.098  0.00  0.00    -0.009 C 
ATOM     31  C   UNL     1       1.702   3.748   8.906  0.00  0.00    +0.007 C 
ATOM     32  C   UNL     1       0.008   2.337   7.732  0.00  0.00    +0.019 C 
ENDBRANCH  20  23
ENDBRANCH   4  19
BRANCH   3  33
ATOM     33  C   UNL     1       1.363   1.185   2.578  0.00  0.00    +0.342 C 
ATOM     34  O   UNL     1       2.219   1.976   2.230  0.00  0.00    -0.245 OA
BRANCH  33  35
ATOM     35  O   UNL     1       1.717  -0.020   3.067  0.00  0.00    -0.464 OA
ATOM     36  C   UNL     1       3.138  -0.306   3.150  0.00  0.00    +0.280 C 
ENDBRANCH  33  35
ENDBRANCH   3  33
TORSDOF 6
