REMARK  Name = ZINC39664189
REMARK  10 active torsions:
REMARK  status: ('A' for Active; 'I' for Inactive)
REMARK    1  A    between atoms: C_1  and  C_2
REMARK    2  A    between atoms: C_5  and  C_8
REMARK    3  A    between atoms: C_8  and  C_9
REMARK    4  A    between atoms: C_13  and  C_22
REMARK    5  A    between atoms: N_24  and  C_25
REMARK    6  A    between atoms: C_25  and  C_26
REMARK    7  A    between atoms: C_26  and  C_28
REMARK    8  A    between atoms: C_26  and  N_36
REMARK    9  A    between atoms: C_31  and  O_34
REMARK   10  A    between atoms: O_34  and  C_35
REMARK                            x       y       z     vdW  Elec       q    Type
REMARK                         _______ _______ _______ _____ _____    ______ ____
ROOT
ATOM      1  C   UNL     1       2.253  -4.885   0.022  0.00  0.00    +0.220 C 
ATOM      2  O   UNL     1       3.245  -4.187   0.002  0.00  0.00    -0.275 OA
ATOM      3  N   UNL     1       2.373  -6.227  -0.008  0.00  0.00    -0.300 N 
ATOM      4  C   UNL     1       1.288  -7.236   0.002  0.00  0.00    +0.121 C 
ATOM      5  C   UNL     1       1.762  -8.330  -0.981  0.00  0.00    +0.100 C 
ATOM      6  C   UNL     1       3.293  -8.188  -1.016  0.00  0.00    -0.004 C 
ATOM      7  C   UNL     1       3.620  -7.027  -0.066  0.00  0.00    +0.115 C 
ATOM      8  C   UNL     1       3.761  -7.854  -2.429  0.00  0.00    -0.010 C 
ATOM      9  C   UNL     1       5.290  -7.775  -2.450  0.00  0.00    -0.082 C 
ATOM     10  N   UNL     1       5.854  -9.059  -2.017  0.00  0.00    +0.379 N 
ATOM     11  C   UNL     1       5.475  -9.329  -0.625  0.00  0.00    -0.082 C 
ATOM     12  C   UNL     1       3.954  -9.473  -0.527  0.00  0.00    -0.010 C 
ATOM     13  H   UNL     1       5.502  -9.796  -2.609  0.00  0.00    -0.086 HD
ATOM     14  H   UNL     1       6.860  -9.025  -2.090  0.00  0.00    -0.086 HD
ENDROOT
BRANCH   5  15
ATOM     15  C   UNL     1       1.370  -9.694  -0.476  0.00  0.00    +0.218 C 
ATOM     16  O   UNL     1       1.294  -9.901   0.716  0.00  0.00    -0.275 OA
ATOM     17  N   UNL     1       1.104 -10.685  -1.351  0.00  0.00    -0.316 N 
ATOM     18  H   UNL     1       1.165 -10.520  -2.304  0.00  0.00    +0.149 HD
BRANCH  17  19
ATOM     19  C   UNL     1       0.723 -12.012  -0.860  0.00  0.00    +0.093 C 
BRANCH  19  20
ATOM     20  C   UNL     1       0.577 -12.970  -2.044  0.00  0.00    -0.020 C 
BRANCH  20  21
ATOM     21  C   UNL     1      -0.577 -12.530  -2.907  0.00  0.00    -0.059 A 
ATOM     22  C   UNL     1      -1.873 -12.836  -2.536  0.00  0.00    +0.005 A 
ATOM     23  C   UNL     1      -2.933 -12.433  -3.326  0.00  0.00    +0.046 A 
ATOM     24  C   UNL     1      -2.695 -11.721  -4.492  0.00  0.00    +0.120 A 
ATOM     25  C   UNL     1      -1.394 -11.415  -4.863  0.00  0.00    +0.046 A 
ATOM     26  C   UNL     1      -0.338 -11.815  -4.066  0.00  0.00    +0.005 A 
BRANCH  24  27
ATOM     27  O   UNL     1      -3.736 -11.324  -5.272  0.00  0.00    -0.495 OA
ATOM     28  C   UNL     1      -3.416 -10.595  -6.458  0.00  0.00    +0.277 C 
ENDBRANCH  24  27
ENDBRANCH  20  21
BRANCH  20  29
ATOM     29  N   UNL     1       0.324 -14.329  -1.545  0.00  0.00    +0.385 N 
ATOM     30  C   UNL     1       0.200 -15.277  -2.682  0.00  0.00    -0.078 C 
ATOM     31  C   UNL     1       0.506 -16.650  -2.034  0.00  0.00    -0.020 C 
ATOM     32  C   UNL     1       1.622 -16.312  -1.019  0.00  0.00    -0.020 C 
ATOM     33  C   UNL     1       1.477 -14.803  -0.750  0.00  0.00    -0.078 C 
ATOM     34  H   UNL     1      -0.515 -14.344  -0.985  0.00  0.00    -0.081 HD
ENDBRANCH  20  29
ENDBRANCH  19  20
ENDBRANCH  17  19
ENDBRANCH   5  15
BRANCH   1  35
ATOM     35  C   UNL     1       0.887  -4.251   0.081  0.00  0.00    +0.131 C 
BRANCH  35  40
ATOM     36  C   UNL     1       1.430   1.501   0.175  0.00  0.00    +0.044 C 
ATOM     37  C   UNL     1       1.289   0.001   0.150  0.00  0.00    -0.050 A 
ATOM     38  C   UNL     1       1.184  -0.664  -1.057  0.00  0.00    +0.003 A 
ATOM     39  C   UNL     1       1.054  -2.040  -1.080  0.00  0.00    +0.004 A 
ATOM     40  C   UNL     1       1.030  -2.751   0.105  0.00  0.00    -0.039 A 
ATOM     41  C   UNL     1       1.135  -2.087   1.313  0.00  0.00    +0.004 A 
ATOM     42  C   UNL     1       1.269  -0.711   1.335  0.00  0.00    +0.003 A 
ENDBRANCH  35  40
ENDBRANCH   1  35
TORSDOF 8
