REMARK  Name = ZINC63807294
REMARK  6 active torsions:
REMARK  status: ('A' for Active; 'I' for Inactive)
REMARK    1  A    between atoms: C_1  and  N_2
REMARK    2  A    between atoms: C_5  and  N_13
REMARK    3  A    between atoms: C_14  and  C_16
REMARK    4  A    between atoms: N_18  and  C_19
REMARK    5  A    between atoms: C_19  and  C_20
REMARK    6  A    between atoms: C_20  and  C_21
REMARK                            x       y       z     vdW  Elec       q    Type
REMARK                         _______ _______ _______ _____ _____    ______ ____
ROOT
ATOM      1  C   UNL     1      -7.190  -0.335  -1.142  0.00  0.00    +0.299 C 
ATOM      2  O   UNL     1      -7.213   0.846  -1.419  0.00  0.00    -0.265 OA
ATOM      3  N   UNL     1      -8.316  -1.071  -1.233  0.00  0.00    -0.307 N 
ATOM      4  H   UNL     1      -8.297  -2.015  -1.012  0.00  0.00    +0.149 HD
ENDROOT
BRANCH   1   6
ATOM      5  N   UNL     1      -4.789  -0.238  -0.610  0.00  0.00    -0.278 N 
ATOM      6  C   UNL     1      -5.914  -0.974  -0.701  0.00  0.00    +0.303 C 
ATOM      7  O   UNL     1      -5.891  -2.155  -0.423  0.00  0.00    -0.265 OA
ATOM      8  H   UNL     1      -4.822   0.720  -0.757  0.00  0.00    +0.155 HD
BRANCH   5  13
ATOM      9  C   UNL     1      -2.646  -4.674  -1.937  0.00  0.00    +0.138 C 
ATOM     10  N   UNL     1      -1.837  -4.058  -0.882  0.00  0.00    -0.269 N 
ATOM     11  C   UNL     1      -2.113  -2.756  -0.443  0.00  0.00    +0.080 A 
ATOM     12  C   UNL     1      -3.319  -2.148  -0.748  0.00  0.00    +0.050 A 
ATOM     13  C   UNL     1      -3.572  -0.856  -0.304  0.00  0.00    +0.036 A 
ATOM     14  C   UNL     1      -2.617  -0.178   0.444  0.00  0.00    +0.027 A 
ATOM     15  C   UNL     1      -1.414  -0.785   0.749  0.00  0.00    +0.049 A 
ATOM     16  C   UNL     1      -1.157  -2.073   0.309  0.00  0.00    +0.143 A 
ATOM     17  O   UNL     1       0.022  -2.684   0.605  0.00  0.00    -0.481 OA
ATOM     18  C   UNL     1      -0.017  -4.101   0.793  0.00  0.00    +0.325 C 
ATOM     19  C   UNL     1      -0.818  -4.739  -0.314  0.00  0.00    +0.257 C 
ATOM     20  O   UNL     1      -0.544  -5.857  -0.696  0.00  0.00    -0.272 OA
ENDBRANCH   5  13
ENDBRANCH   1   6
BRANCH   3  21
ATOM     21  C   UNL     1      -9.567  -0.444  -1.666  0.00  0.00    +0.109 C 
BRANCH  21  22
ATOM     22  C   UNL     1     -10.682  -1.491  -1.683  0.00  0.00    +0.052 C 
BRANCH  22  23
ATOM     23  C   UNL     1     -11.970  -0.847  -2.129  0.00  0.00    -0.040 C 
ATOM     24  C   UNL     1     -12.475  -0.822  -3.383  0.00  0.00    +0.000 A 
ATOM     25  C   UNL     1     -11.995  -1.366  -4.659  0.00  0.00    +0.030 A 
ATOM     26  C   UNL     1     -12.737  -1.175  -5.775  0.00  0.00    +0.042 A 
ATOM     27  C   UNL     1     -13.950  -0.471  -5.741  0.00  0.00    +0.022 A 
ATOM     28  C   UNL     1     -14.455   0.058  -4.607  0.00  0.00    +0.027 A 
ATOM     29  C   UNL     1     -13.758  -0.084  -3.375  0.00  0.00    +0.043 A 
ATOM     30  N   UNL     1     -14.036   0.331  -2.163  0.00  0.00    -0.380 N 
ATOM     31  C   UNL     1     -12.961  -0.103  -1.263  0.00  0.00    +0.144 C 
ATOM     32 CL   UNL     1     -12.173  -1.817  -7.286  0.00  0.00    -0.084 Cl
ATOM     33  H   UNL     1     -14.822   0.837  -1.904  0.00  0.00    +0.160 HD
ENDBRANCH  22  23
ENDBRANCH  21  22
ENDBRANCH   3  21
TORSDOF 5
