REMARK  Name = ZINC08644686
REMARK  7 active torsions:
REMARK  status: ('A' for Active; 'I' for Inactive)
REMARK    1  A    between atoms: C_1  and  C_2
REMARK    2  A    between atoms: C_2  and  C_4
REMARK    3  A    between atoms: C_2  and  S_17
REMARK    4  A    between atoms: N_6  and  C_7
REMARK    5  A    between atoms: S_17  and  C_18
REMARK    6  A    between atoms: C_21  and  C_24
REMARK    7  A    between atoms: N_22  and  N_23
REMARK                            x       y       z     vdW  Elec       q    Type
REMARK                         _______ _______ _______ _____ _____    ______ ____
ROOT
ATOM      1  S   UNL     1       4.680  -4.381   0.823  0.00  0.00    -0.072 S 
ENDROOT
BRANCH   1   2
ATOM      2  C   UNL     1       6.344  -4.943   0.967  0.00  0.00    +0.209 A 
ATOM      3  N   UNL     1       7.426  -4.257   0.677  0.00  0.00    -0.121 NA
ATOM      4  N   UNL     1       8.473  -4.969   0.898  0.00  0.00    -0.127 NA
ATOM      5  C   UNL     1       8.123  -6.154   1.342  0.00  0.00    +0.183 A 
ATOM      6  N   UNL     1       6.749  -6.172   1.404  0.00  0.00    -0.224 N 
BRANCH   5   7
ATOM      7  C   UNL     1       9.034  -7.259   1.710  0.00  0.00    +0.039 A 
ATOM      8  C   UNL     1       8.790  -8.552   1.246  0.00  0.00    +0.014 A 
ATOM      9  C   UNL     1       9.647  -9.578   1.588  0.00  0.00    +0.021 A 
ATOM     10  C   UNL     1      10.740  -9.329   2.401  0.00  0.00    +0.042 A 
ATOM     11  C   UNL     1      10.985  -8.050   2.869  0.00  0.00    +0.040 A 
ATOM     12  C   UNL     1      10.138  -7.013   2.529  0.00  0.00    +0.053 A 
ATOM     13 CL   UNL     1      10.445  -5.410   3.119  0.00  0.00    -0.083 Cl
ATOM     14 CL   UNL     1      11.809 -10.627   2.833  0.00  0.00    -0.083 Cl
ENDBRANCH   5   7
BRANCH   6  15
ATOM     15  N   UNL     1       5.955  -7.205   1.816  0.00  0.00    -0.295 N 
ATOM     16  H   UNL     1       5.661  -7.769   1.033  0.00  0.00    +0.163 HD
ATOM     17  H   UNL     1       6.423  -7.766   2.511  0.00  0.00    +0.163 HD
ENDBRANCH   6  15
ENDBRANCH   1   2
BRANCH   1  19
ATOM     18  C   UNL     1       5.605  -2.777  -1.186  0.00  0.00    +0.029 C 
ATOM     19  C   UNL     1       4.968  -2.705   0.203  0.00  0.00    +0.137 C 
BRANCH  19  20
ATOM     20  C   UNL     1       3.655  -1.969   0.116  0.00  0.00    +0.230 C 
ATOM     21  O   UNL     1       2.613  -2.590   0.082  0.00  0.00    -0.274 OA
ATOM     22  N   UNL     1       3.639  -0.622   0.075  0.00  0.00    -0.284 N 
ATOM     23  H   UNL     1       4.472  -0.128   0.026  0.00  0.00    +0.155 HD
BRANCH  22  24
ATOM     24  C   UNL     1       2.418   0.065   0.103  0.00  0.00    +0.037 A 
ATOM     25  C   UNL     1       1.347  -0.450   0.822  0.00  0.00    +0.027 A 
ATOM     26  C   UNL     1       0.143   0.226   0.849  0.00  0.00    +0.051 A 
ATOM     27  C   UNL     1      -0.001   1.421   0.159  0.00  0.00    +0.162 A 
ATOM     28  C   UNL     1       1.070   1.940  -0.559  0.00  0.00    +0.164 A 
ATOM     29  C   UNL     1       2.278   1.260  -0.588  0.00  0.00    +0.072 A 
ATOM     30  O   UNL     1       0.951   3.115  -1.236  0.00  0.00    -0.485 OA
ATOM     31  C   UNL     1      -0.380   3.578  -1.492  0.00  0.00    +0.270 C 
ATOM     32  C   UNL     1      -1.192   3.448  -0.197  0.00  0.00    +0.270 C 
ATOM     33  O   UNL     1      -1.198   2.070   0.191  0.00  0.00    -0.485 OA
ENDBRANCH  22  24
ENDBRANCH  19  20
ENDBRANCH   1  19
TORSDOF 6
