REMARK  Name = ZINC12433459
REMARK  7 active torsions:
REMARK  status: ('A' for Active; 'I' for Inactive)
REMARK    1  A    between atoms: C_1  and  N_49
REMARK    2  A    between atoms: C_2  and  C_3
REMARK    3  A    between atoms: C_2  and  N_49
REMARK    4  A    between atoms: C_13  and  N_49
REMARK    5  A    between atoms: N_16  and  S_21
REMARK    6  A    between atoms: C_18  and  O_20
REMARK    7  A    between atoms: S_21  and  C_24
REMARK                            x       y       z     vdW  Elec       q    Type
REMARK                         _______ _______ _______ _____ _____    ______ ____
ROOT
ATOM      1  C   UNL     1      -2.838   2.099  -2.702  0.00  0.00    -0.022 C 
ATOM      2  C   UNL     1      -1.913   1.069  -2.002  0.00  0.00    +0.097 C 
ATOM      3  N   UNL     1      -0.897   1.885  -1.312  0.00  0.00    -0.176 NA
ATOM      4  C   UNL     1      -0.791   3.183  -1.996  0.00  0.00    +0.139 C 
ATOM      5  C   UNL     1      -1.817   3.178  -3.150  0.00  0.00    +0.118 C 
ENDROOT
BRANCH   1   7
ATOM      6  C   UNL     1      -4.159   2.525  -4.686  0.00  0.00    -0.095 C 
ATOM      7  N   UNL     1      -3.490   1.484  -3.877  0.00  0.00    +0.387 N 
ATOM      8  H   UNL     1      -2.776   1.022  -4.452  0.00  0.00    -0.081 HD
BRANCH   7   9
ATOM      9  C   UNL     1      -4.477   0.475  -3.437  0.00  0.00    -0.003 C 
BRANCH   9  10
ATOM     10  C   UNL     1      -4.964  -0.287  -4.642  0.00  0.00    +0.091 A 
ATOM     11  N   UNL     1      -4.441  -1.463  -5.084  0.00  0.00    -0.343 N 
ATOM     12  H   UNL     1      -3.679  -1.964  -4.675  0.00  0.00    +0.167 HD
ATOM     13  C   UNL     1      -5.159  -1.837  -6.202  0.00  0.00    +0.066 A 
ATOM     14  C   UNL     1      -5.101  -2.918  -7.072  0.00  0.00    +0.028 A 
ATOM     15  C   UNL     1      -5.984  -2.993  -8.128  0.00  0.00    +0.002 A 
ATOM     16  C   UNL     1      -6.929  -1.996  -8.326  0.00  0.00    +0.002 A 
ATOM     17  C   UNL     1      -7.001  -0.926  -7.481  0.00  0.00    +0.030 A 
ATOM     18  C   UNL     1      -6.117  -0.829  -6.404  0.00  0.00    +0.089 A 
ATOM     19  N   UNL     1      -5.941   0.086  -5.416  0.00  0.00    -0.234 NA
ENDBRANCH   9  10
ENDBRANCH   7   9
ENDBRANCH   1   7
BRANCH   3  20
ATOM     20  S   UNL     1      -0.017   1.417   0.010  0.00  0.00    +0.061 S 
ATOM     21  O   UNL     1       0.002  -0.004   0.002  0.00  0.00    -0.153 OA
ATOM     22  O   UNL     1       1.172   2.195   0.003  0.00  0.00    -0.153 OA
BRANCH  20  23
ATOM     23  C   UNL     1      -0.927   1.900   1.439  0.00  0.00    +0.105 A 
ATOM     24  C   UNL     1      -0.717   3.145   2.004  0.00  0.00    +0.028 A 
ATOM     25  C   UNL     1      -1.434   3.526   3.123  0.00  0.00    +0.002 A 
ATOM     26  C   UNL     1      -2.354   2.659   3.683  0.00  0.00    +0.000 A 
ATOM     27  C   UNL     1      -2.559   1.412   3.121  0.00  0.00    +0.002 A 
ATOM     28  C   UNL     1      -1.846   1.033   2.000  0.00  0.00    +0.028 A 
ENDBRANCH  20  23
ENDBRANCH   3  20
BRANCH   5  29
ATOM     29  O   UNL     1      -2.446   4.455  -3.272  0.00  0.00    -0.392 OA
ATOM     30  H   UNL     1      -1.836   5.176  -3.476  0.00  0.00    +0.210 HD
ENDBRANCH   5  29
TORSDOF 6
