REMARK  Name = ZINC20763849
REMARK  9 active torsions:
REMARK  status: ('A' for Active; 'I' for Inactive)
REMARK    1  A    between atoms: C_1  and  O_2
REMARK    2  A    between atoms: O_2  and  C_3
REMARK    3  A    between atoms: C_7  and  C_10
REMARK    4  A    between atoms: C_8  and  O_9
REMARK    5  A    between atoms: C_13  and  C_28
REMARK    6  A    between atoms: C_15  and  C_18
REMARK    7  A    between atoms: C_21  and  C_24
REMARK    8  A    between atoms: C_24  and  O_26
REMARK    9  A    between atoms: O_26  and  C_27
REMARK                            x       y       z     vdW  Elec       q    Type
REMARK                         _______ _______ _______ _____ _____    ______ ____
ROOT
ATOM      1  C   UNL     1       1.340  -4.110  -2.292  0.00  0.00    -0.028 C 
ATOM      2  C   UNL     1       2.484  -4.629  -1.416  0.00  0.00    +0.044 C 
ATOM      3  C   UNL     1       2.748  -6.073  -1.740  0.00  0.00    +0.040 C 
ATOM      4  N   UNL     1       2.307  -6.644  -2.797  0.00  0.00    -0.299 NA
ATOM      5  C   UNL     1       1.494  -5.980  -3.807  0.00  0.00    +0.081 C 
ATOM      6  N   UNL     1       1.601  -4.521  -3.682  0.00  0.00    +0.401 N 
ATOM      7  H   UNL     1       0.865  -4.047  -4.349  0.00  0.00    -0.081 HD
ATOM      8  H   UNL     1       2.615  -4.208  -3.973  0.00  0.00    -0.081 HD
ENDROOT
BRANCH   3   9
ATOM      9  C   UNL     1       3.554  -6.870  -0.794  0.00  0.00    -0.004 A 
ATOM     10  C   UNL     1       4.057  -6.280   0.368  0.00  0.00    +0.011 A 
ATOM     11  C   UNL     1       4.806  -7.031   1.249  0.00  0.00    +0.020 A 
ATOM     12  C   UNL     1       5.066  -8.365   0.981  0.00  0.00    +0.041 A 
ATOM     13  C   UNL     1       4.573  -8.954  -0.172  0.00  0.00    +0.020 A 
ATOM     14  C   UNL     1       3.820  -8.215  -1.060  0.00  0.00    +0.011 A 
ATOM     15 CL   UNL     1       6.014  -9.302   2.093  0.00  0.00    -0.084 Cl
ENDBRANCH   3   9
BRANCH   1  20
ATOM     16  C   UNL     1       0.606  -0.608  -1.056  0.00  0.00    +0.161 A 
ATOM     17  C   UNL     1       1.163   0.159  -2.068  0.00  0.00    +0.049 A 
ATOM     18  C   UNL     1       1.782  -0.456  -3.140  0.00  0.00    +0.004 A 
ATOM     19  C   UNL     1       1.837  -1.836  -3.212  0.00  0.00    +0.006 A 
ATOM     20  C   UNL     1       1.278  -2.606  -2.209  0.00  0.00    -0.016 A 
ATOM     21  C   UNL     1       0.662  -1.996  -1.129  0.00  0.00    +0.160 A 
BRANCH  16  23
ATOM     22  C   UNL     1      -0.017   1.425   0.010  0.00  0.00    +0.277 C 
ATOM     23  O   UNL     1       0.002  -0.004   0.002  0.00  0.00    -0.491 OA
ENDBRANCH  16  23
BRANCH  21  24
ATOM     24  O   UNL     1       0.112  -2.753  -0.141  0.00  0.00    -0.503 OA
ATOM     25  H   UNL     1       0.157  -3.850  -0.200  0.00  0.00    +0.292 HD
ENDBRANCH  21  24
ENDBRANCH   1  20
BRANCH   5  26
ATOM     26  C   UNL     1       1.965  -6.396  -5.177  0.00  0.00    -0.040 A 
ATOM     27  C   UNL     1       1.810  -5.536  -6.250  0.00  0.00    +0.004 A 
ATOM     28  C   UNL     1       2.243  -5.909  -7.505  0.00  0.00    +0.015 A 
ATOM     29  C   UNL     1       2.830  -7.162  -7.694  0.00  0.00    +0.059 A 
ATOM     30  C   UNL     1       2.979  -8.027  -6.608  0.00  0.00    +0.015 A 
ATOM     31  C   UNL     1       2.546  -7.639  -5.357  0.00  0.00    +0.004 A 
BRANCH  29  32
ATOM     32  C   UNL     1       3.292  -7.570  -9.036  0.00  0.00    +0.339 C 
ATOM     33  O   UNL     1       3.802  -8.661  -9.197  0.00  0.00    -0.245 OA
BRANCH  32  34
ATOM     34  O   UNL     1       3.147  -6.733 -10.082  0.00  0.00    -0.464 OA
ATOM     35  C   UNL     1       3.623  -7.200 -11.371  0.00  0.00    +0.280 C 
ENDBRANCH  32  34
ENDBRANCH  29  32
ENDBRANCH   5  26
TORSDOF 7
