REMARK  Name = ZINC39659135
REMARK  8 active torsions:
REMARK  status: ('A' for Active; 'I' for Inactive)
REMARK    1  A    between atoms: C_1  and  C_2
REMARK    2  A    between atoms: C_2  and  C_36
REMARK    3  A    between atoms: C_5  and  C_8
REMARK    4  A    between atoms: C_8  and  N_9
REMARK    5  A    between atoms: C_10  and  C_12
REMARK    6  A    between atoms: C_23  and  C_25
REMARK    7  A    between atoms: C_28  and  O_31
REMARK    8  A    between atoms: O_31  and  C_32
REMARK                            x       y       z     vdW  Elec       q    Type
REMARK                         _______ _______ _______ _____ _____    ______ ____
ROOT
ATOM      1  C   UNL     1       3.281  -2.822   4.696  0.00  0.00    +0.100 C 
ATOM      2  C   UNL     1       4.418  -1.806   4.448  0.00  0.00    +0.121 C 
ATOM      3  N   UNL     1       5.523  -2.260   5.325  0.00  0.00    -0.296 N 
ATOM      4  C   UNL     1       5.488  -3.739   5.226  0.00  0.00    +0.115 C 
ATOM      5  C   UNL     1       3.987  -4.089   5.206  0.00  0.00    -0.004 C 
ATOM      6  C   UNL     1       3.731  -5.255   4.256  0.00  0.00    -0.010 C 
ATOM      7  C   UNL     1       4.394  -6.518   4.814  0.00  0.00    -0.082 C 
ATOM      8  N   UNL     1       3.846  -6.814   6.143  0.00  0.00    +0.379 N 
ATOM      9  C   UNL     1       4.178  -5.729   7.074  0.00  0.00    -0.082 C 
ATOM     10  C   UNL     1       3.506  -4.433   6.612  0.00  0.00    -0.010 C 
ATOM     11  C   UNL     1       6.369  -1.500   6.049  0.00  0.00    +0.247 C 
ATOM     12  O   UNL     1       6.191  -0.300   6.129  0.00  0.00    -0.270 OA
ATOM     13  H   UNL     1       2.843  -6.905   6.079  0.00  0.00    -0.086 HD
ATOM     14  H   UNL     1       4.239  -7.679   6.483  0.00  0.00    -0.086 HD
ENDROOT
BRANCH  11  15
ATOM     15  C   UNL     1       7.511  -2.125   6.744  0.00  0.00    +0.037 A 
ATOM     16  C   UNL     1       7.985  -3.373   6.332  0.00  0.00    +0.016 A 
ATOM     17  C   UNL     1       9.051  -3.953   6.983  0.00  0.00    +0.047 A 
ATOM     18  C   UNL     1       9.656  -3.298   8.049  0.00  0.00    +0.130 A 
ATOM     19  C   UNL     1       9.188  -2.056   8.463  0.00  0.00    +0.047 A 
ATOM     20  C   UNL     1       8.126  -1.468   7.813  0.00  0.00    +0.016 A 
BRANCH  18  21
ATOM     21  O   UNL     1      10.706  -3.873   8.689  0.00  0.00    -0.406 OA
BRANCH  21  22
ATOM     22  C   UNL     1      11.280  -3.145   9.777  0.00  0.00    +0.575 C 
ATOM     23  F   UNL     1      10.309  -2.935  10.761  0.00  0.00    -0.133 F 
ATOM     24  F   UNL     1      12.342  -3.877  10.318  0.00  0.00    -0.133 F 
ATOM     25  F   UNL     1      11.751  -1.911   9.315  0.00  0.00    -0.133 F 
ENDBRANCH  21  22
ENDBRANCH  18  21
ENDBRANCH  11  15
BRANCH   1  27
ATOM     26  N   UNL     1       1.239  -3.437   3.443  0.00  0.00    -0.312 N 
ATOM     27  C   UNL     1       2.546  -3.111   3.412  0.00  0.00    +0.218 C 
ATOM     28  O   UNL     1       3.131  -3.049   2.352  0.00  0.00    -0.275 OA
ATOM     29  H   UNL     1       0.771  -3.487   4.291  0.00  0.00    +0.149 HD
BRANCH  26  30
ATOM     30  C   UNL     1       0.525  -3.718   2.195  0.00  0.00    +0.138 C 
BRANCH  30  35
ATOM     31  C   UNL     1      -4.026  -2.956   3.428  0.00  0.00    +0.074 C 
ATOM     32  C   UNL     1      -2.956  -2.946   2.335  0.00  0.00    +0.165 C 
ATOM     33  O   UNL     1      -3.052  -4.149   1.554  0.00  0.00    -0.347 OA
ATOM     34  C   UNL     1      -1.684  -4.484   1.220  0.00  0.00    +0.196 C 
ATOM     35  C   UNL     1      -0.933  -4.060   2.507  0.00  0.00    +0.164 C 
ATOM     36  O   UNL     1      -1.655  -2.888   2.935  0.00  0.00    -0.342 OA
ATOM     37  C   UNL     1      -3.158  -1.730   1.428  0.00  0.00    +0.074 C 
ENDBRANCH  30  35
ENDBRANCH  26  30
ENDBRANCH   1  27
TORSDOF 6
