REMARK  Name = ZINC14492935
REMARK  5 active torsions:
REMARK  status: ('A' for Active; 'I' for Inactive)
REMARK    1  A    between atoms: C_1  and  C_2
REMARK    2  A    between atoms: C_7  and  N_8
REMARK    3  A    between atoms: C_9  and  C_11
REMARK    4  A    between atoms: N_14  and  C_17
REMARK    5  A    between atoms: C_22  and  N_23
REMARK                            x       y       z     vdW  Elec       q    Type
REMARK                         _______ _______ _______ _____ _____    ______ ____
ROOT
ATOM      1  C   UNL     1       2.423  -4.237  -0.260  0.00  0.00    +0.078 C 
ATOM      2  C   UNL     1       1.782  -4.858   0.984  0.00  0.00    +0.031 C 
ATOM      3  C   UNL     1       1.855  -6.383   0.882  0.00  0.00    +0.106 C 
ATOM      4  N   UNL     1       3.259  -6.801   0.772  0.00  0.00    -0.328 N 
ATOM      5  C   UNL     1       3.882  -6.256  -0.441  0.00  0.00    +0.106 C 
ATOM      6  C   UNL     1       3.869  -4.727  -0.378  0.00  0.00    +0.031 C 
ENDROOT
BRANCH   4   7
ATOM      7  C   UNL     1       3.371  -8.193   0.809  0.00  0.00    +0.060 A 
ATOM      8  C   UNL     1       2.807  -8.964  -0.199  0.00  0.00    +0.025 A 
ATOM      9  C   UNL     1       2.925 -10.340  -0.162  0.00  0.00    +0.002 A 
ATOM     10  C   UNL     1       3.593 -10.950   0.883  0.00  0.00    +0.002 A 
ATOM     11  C   UNL     1       4.150 -10.186   1.892  0.00  0.00    +0.034 A 
ATOM     12  C   UNL     1       4.041  -8.809   1.858  0.00  0.00    +0.147 A 
BRANCH  12  13
ATOM     13  N   UNL     1       4.638  -7.992   2.938  0.00  0.00    +0.058 N 
ATOM     14  O   UNL     1       5.226  -8.533   3.857  0.00  0.00    -0.126 OA
ATOM     15  O   UNL     1       4.541  -6.779   2.908  0.00  0.00    -0.126 OA
ENDBRANCH  12  13
ENDBRANCH   4   7
BRANCH   1  17
ATOM     16  N   UNL     1       1.236  -2.080  -0.021  0.00  0.00    -0.285 N 
ATOM     17  C   UNL     1       2.408  -2.735  -0.138  0.00  0.00    +0.220 C 
ATOM     18  O   UNL     1       3.451  -2.116  -0.144  0.00  0.00    -0.275 OA
ATOM     19  H   UNL     1       0.408  -2.579   0.064  0.00  0.00    +0.155 HD
BRANCH  16  26
ATOM     20  C   UNL     1      -0.944  -0.769   1.253  0.00  0.00    +0.046 C 
ATOM     21  C   UNL     1       0.168  -0.001   0.586  0.00  0.00    -0.028 A 
ATOM     22  C   UNL     1       0.147   1.380   0.582  0.00  0.00    +0.025 A 
ATOM     23  C   UNL     1       1.168   2.086  -0.030  0.00  0.00    +0.041 A 
ATOM     24  C   UNL     1       2.211   1.411  -0.640  0.00  0.00    +0.022 A 
ATOM     25  C   UNL     1       2.236   0.031  -0.638  0.00  0.00    +0.025 A 
ATOM     26  C   UNL     1       1.213  -0.681  -0.024  0.00  0.00    +0.036 A 
ATOM     27 CL   UNL     1       1.139   3.822  -0.035  0.00  0.00    -0.084 Cl
ENDBRANCH  16  26
ENDBRANCH   1  17
TORSDOF 4
