REMARK  Name = ZINC05343109
REMARK  6 active torsions:
REMARK  status: ('A' for Active; 'I' for Inactive)
REMARK    1  A    between atoms: C_1  and  C_2
REMARK    2  A    between atoms: C_2  and  S_3
REMARK    3  A    between atoms: S_3  and  C_4
REMARK    4  A    between atoms: C_10  and  C_12
REMARK    5  A    between atoms: C_14  and  C_18
REMARK    6  A    between atoms: C_23  and  O_24
REMARK                            x       y       z     vdW  Elec       q    Type
REMARK                         _______ _______ _______ _____ _____    ______ ____
ROOT
ATOM      1  C   UNL     1       0.695  -8.706  -1.061  0.00  0.00    +0.148 A 
ATOM      2  C   UNL     1       0.225  -9.749  -0.233  0.00  0.00    +0.062 A 
ATOM      3  C   UNL     1       0.598 -10.906  -0.858  0.00  0.00    +0.070 A 
ATOM      4  N   UNL     1       1.254 -10.545  -1.997  0.00  0.00    -0.276 N 
ATOM      5  H   UNL     1       1.633 -11.163  -2.641  0.00  0.00    +0.189 HD
ATOM      6  N   UNL     1       1.292  -9.264  -2.095  0.00  0.00    -0.169 NA
ENDROOT
BRANCH   1  13
ATOM      7  C   UNL     1       0.792  -2.345  -1.354  0.00  0.00    +0.160 A 
ATOM      8  N   UNL     1       0.261  -3.108  -0.410  0.00  0.00    -0.133 NA
ATOM      9  N   UNL     1       0.307  -4.368  -0.467  0.00  0.00    -0.125 NA
ATOM     10  C   UNL     1       0.889  -5.003  -1.471  0.00  0.00    +0.189 A 
ATOM     11  S   UNL     1       1.427  -3.607  -2.454  0.00  0.00    -0.024 S 
ATOM     12  N   UNL     1       1.035  -6.368  -1.700  0.00  0.00    -0.258 N 
ATOM     13  C   UNL     1       0.539  -7.257  -0.817  0.00  0.00    +0.270 C 
ATOM     14  O   UNL     1      -0.037  -6.867   0.180  0.00  0.00    -0.268 OA
ATOM     15  H   UNL     1       1.495  -6.680  -2.496  0.00  0.00    +0.157 HD
BRANCH   7  16
ATOM     16  S   UNL     1       0.851  -0.589  -1.490  0.00  0.00    -0.097 S 
BRANCH  16  18
ATOM     17  C   UNL     1      -0.019   1.526   0.010  0.00  0.00    +0.016 C 
ATOM     18  C   UNL     1       0.002  -0.004   0.002  0.00  0.00    +0.073 C 
ENDBRANCH  16  18
ENDBRANCH   7  16
ENDBRANCH   1  13
BRANCH   3  19
ATOM     19  C   UNL     1       0.340 -12.285  -0.388  0.00  0.00    +0.043 A 
ATOM     20  C   UNL     1       0.449 -12.595   0.967  0.00  0.00    +0.033 A 
ATOM     21  C   UNL     1       0.207 -13.884   1.399  0.00  0.00    +0.042 A 
ATOM     22  C   UNL     1      -0.144 -14.870   0.492  0.00  0.00    +0.023 A 
ATOM     23  C   UNL     1      -0.255 -14.572  -0.853  0.00  0.00    +0.047 A 
ATOM     24  C   UNL     1      -0.021 -13.282  -1.301  0.00  0.00    +0.126 A 
ATOM     25 CL   UNL     1       0.343 -14.270   3.087  0.00  0.00    -0.084 Cl
BRANCH  24  26
ATOM     26  O   UNL     1      -0.135 -12.988  -2.622  0.00  0.00    -0.506 OA
ATOM     27  H   UNL     1       0.684 -13.103  -3.123  0.00  0.00    +0.292 HD
ENDBRANCH  24  26
ENDBRANCH   3  19
TORSDOF 5
