REMARK  Name = ZINC30848327
REMARK  10 active torsions:
REMARK  status: ('A' for Active; 'I' for Inactive)
REMARK    1  A    between atoms: C_1  and  C_2
REMARK    2  A    between atoms: C_2  and  C_4
REMARK    3  A    between atoms: C_2  and  N_14
REMARK    4  A    between atoms: C_4  and  O_5
REMARK    5  A    between atoms: O_5  and  C_6
REMARK    6  A    between atoms: C_9  and  O_12
REMARK    7  A    between atoms: O_12  and  C_13
REMARK    8  A    between atoms: N_14  and  S_15
REMARK    9  A    between atoms: S_15  and  C_18
REMARK   10  A    between atoms: C_21  and  N_24
REMARK                            x       y       z     vdW  Elec       q    Type
REMARK                         _______ _______ _______ _____ _____    ______ ____
ROOT
ATOM      1  S   UNL     1       8.110   1.009  -0.798  0.00  0.00    +0.059 S 
ATOM      2  O   UNL     1       8.481  -0.096  -1.610  0.00  0.00    -0.153 OA
ATOM      3  O   UNL     1       8.465   2.346  -1.123  0.00  0.00    -0.153 OA
ENDROOT
BRANCH   1   4
ATOM      4  C   UNL     1       6.353   0.972  -0.669  0.00  0.00    +0.105 A 
ATOM      5  C   UNL     1       5.657   2.132  -0.385  0.00  0.00    +0.030 A 
ATOM      6  C   UNL     1       4.280   2.107  -0.284  0.00  0.00    +0.025 A 
ATOM      7  C   UNL     1       3.594   0.913  -0.469  0.00  0.00    +0.036 A 
ATOM      8  C   UNL     1       4.296  -0.252  -0.749  0.00  0.00    +0.025 A 
ATOM      9  C   UNL     1       5.673  -0.218  -0.854  0.00  0.00    +0.030 A 
BRANCH   7  10
ATOM     10  N   UNL     1       2.199   0.884  -0.367  0.00  0.00    -0.271 N 
ATOM     11  C   UNL     1       1.374   2.025   0.047  0.00  0.00    +0.114 C 
ATOM     12  C   UNL     1      -0.063   1.679  -0.402  0.00  0.00    +0.029 C 
ATOM     13  C   UNL     1      -0.021   0.134  -0.431  0.00  0.00    +0.098 C 
ATOM     14  C   UNL     1       1.441  -0.194  -0.637  0.00  0.00    +0.220 C 
ATOM     15  O   UNL     1       1.869  -1.272  -0.992  0.00  0.00    -0.275 OA
ENDBRANCH   7  10
ENDBRANCH   1   4
BRANCH   1  16
ATOM     16  N   UNL     1       8.718   0.712   0.714  0.00  0.00    -0.184 NA
ATOM     17  H   UNL     1       9.141   1.544   1.296  0.00  0.00    +0.148 HD
BRANCH  16  19
ATOM     18  C   UNL     1       9.698  -1.498   1.086  0.00  0.00    +0.029 C 
ATOM     19  C   UNL     1       8.495  -0.589   1.350  0.00  0.00    +0.111 C 
BRANCH  19  20
ATOM     20  C   UNL     1       8.323  -0.397   2.857  0.00  0.00    +0.249 C 
BRANCH  20  21
ATOM     21  O   UNL     1       9.542   0.095   3.418  0.00  0.00    -0.490 OA
BRANCH  21  22
ATOM     22  C   UNL     1       9.558   0.321   4.759  0.00  0.00    +0.121 A 
ATOM     23  C   UNL     1       8.421   0.081   5.516  0.00  0.00    +0.049 A 
ATOM     24  C   UNL     1       8.439   0.307   6.879  0.00  0.00    +0.049 A 
ATOM     25  C   UNL     1       9.591   0.783   7.488  0.00  0.00    +0.120 A 
ATOM     26  C   UNL     1      10.726   1.029   6.729  0.00  0.00    +0.049 A 
ATOM     27  C   UNL     1      10.709   0.798   5.367  0.00  0.00    +0.049 A 
BRANCH  25  28
ATOM     28  O   UNL     1       9.607   1.010   8.829  0.00  0.00    -0.495 OA
ATOM     29  C   UNL     1       8.402   0.736   9.547  0.00  0.00    +0.277 C 
ENDBRANCH  25  28
ENDBRANCH  21  22
ENDBRANCH  20  21
ENDBRANCH  19  20
ENDBRANCH  16  19
ENDBRANCH   1  16
TORSDOF 8
