REMARK  Name = ZINC06320993
REMARK  7 active torsions:
REMARK  status: ('A' for Active; 'I' for Inactive)
REMARK    1  A    between atoms: C_1  and  C_2
REMARK    2  A    between atoms: C_6  and  C_15
REMARK    3  A    between atoms: C_13  and  C_14
REMARK    4  A    between atoms: C_15  and  C_17
REMARK    5  A    between atoms: C_15  and  N_68
REMARK    6  A    between atoms: N_21  and  C_22
REMARK    7  A    between atoms: C_29  and  C_32
REMARK                            x       y       z     vdW  Elec       q    Type
REMARK                         _______ _______ _______ _____ _____    ______ ____
ROOT
ATOM      1  C   UNL     1      -1.416   3.638  -2.351  0.00  0.00    +0.039 C 
ENDROOT
BRANCH   1   7
ATOM      2  C   UNL     1      -6.129   9.401  -2.776  0.00  0.00    +0.044 C 
ATOM      3  C   UNL     1      -4.791   8.823  -2.393  0.00  0.00    -0.047 A 
ATOM      4  C   UNL     1      -4.535   7.501  -2.621  0.00  0.00    +0.013 A 
ATOM      5  C   UNL     1      -3.293   6.964  -2.266  0.00  0.00    -0.001 A 
ATOM      6  C   UNL     1      -2.983   5.552  -2.499  0.00  0.00    +0.017 A 
ATOM      7  C   UNL     1      -1.765   5.087  -2.130  0.00  0.00    +0.011 A 
ATOM      8  C   UNL     1      -0.820   5.956  -1.543  0.00  0.00    +0.251 A 
ATOM      9  O   UNL     1       0.272   5.518  -1.222  0.00  0.00    -0.268 OA
ATOM     10  N   UNL     1      -1.093   7.255  -1.329  0.00  0.00    -0.322 N 
ATOM     11  H   UNL     1      -0.421   7.824  -0.924  0.00  0.00    +0.169 HD
ATOM     12  C   UNL     1      -2.316   7.789  -1.677  0.00  0.00    +0.049 A 
ATOM     13  C   UNL     1      -2.599   9.132  -1.456  0.00  0.00    +0.030 A 
ATOM     14  C   UNL     1      -3.830   9.639  -1.813  0.00  0.00    -0.046 A 
ATOM     15  C   UNL     1      -4.135  11.095  -1.573  0.00  0.00    +0.044 C 
ENDBRANCH   1   7
BRANCH   1  21
ATOM     16  C   UNL     1      -0.751   1.592  -1.234  0.00  0.00    -0.072 C 
ATOM     17  C   UNL     1      -0.013   1.086   0.008  0.00  0.00    +0.017 C 
ATOM     18  C   UNL     1      -0.715   1.570   1.246  0.00  0.00    -0.048 C 
ATOM     19  C   UNL     1      -1.587   2.553   1.230  0.00  0.00    -0.041 C 
ATOM     20  C   UNL     1      -1.975   3.282  -0.023  0.00  0.00    -0.049 C 
ATOM     21  N   UNL     1      -0.966   3.045  -1.071  0.00  0.00    +0.392 N 
ATOM     22  H   UNL     1      -0.082   3.485  -0.792  0.00  0.00    -0.080 HD
BRANCH  18  23
ATOM     23  C   UNL     1      -0.410   0.914   2.535  0.00  0.00    -0.022 A 
ATOM     24  C   UNL     1       0.870   1.006   3.083  0.00  0.00    +0.011 A 
ATOM     25  C   UNL     1       1.146   0.398   4.290  0.00  0.00    +0.039 A 
ATOM     26  C   UNL     1       0.159  -0.315   4.952  0.00  0.00    +0.123 A 
ATOM     27  C   UNL     1      -1.112  -0.415   4.409  0.00  0.00    +0.039 A 
ATOM     28  C   UNL     1      -1.401   0.195   3.206  0.00  0.00    +0.011 A 
ATOM     29  F   UNL     1       0.437  -0.913   6.131  0.00  0.00    -0.205 F 
ENDBRANCH  18  23
ENDBRANCH   1  21
BRANCH   1  30
ATOM     30  C   UNL     1      -0.297   3.539  -3.357  0.00  0.00    +0.143 A 
ATOM     31  N   UNL     1       0.969   3.807  -3.148  0.00  0.00    -0.115 NA
ATOM     32  N   UNL     1       1.606   3.601  -4.248  0.00  0.00    -0.023 NA
ATOM     33  N   UNL     1       0.780   3.208  -5.154  0.00  0.00    -0.044 NA
ATOM     34  N   UNL     1      -0.403   3.152  -4.641  0.00  0.00    -0.227 N 
BRANCH  34  35
ATOM     35  C   UNL     1      -1.631   2.747  -5.330  0.00  0.00    +0.111 C 
ATOM     36  C   UNL     1      -1.477   1.318  -5.890  0.00  0.00    +0.027 C 
ATOM     37  C   UNL     1      -2.228   1.359  -7.245  0.00  0.00    +0.002 C 
ATOM     38  C   UNL     1      -1.880   2.767  -7.788  0.00  0.00    +0.002 C 
ATOM     39  C   UNL     1      -1.888   3.668  -6.535  0.00  0.00    +0.027 C 
ENDBRANCH  34  35
ENDBRANCH   1  30
TORSDOF 5
