REMARK  Name = ZINC32911749
REMARK  7 active torsions:
REMARK  status: ('A' for Active; 'I' for Inactive)
REMARK    1  A    between atoms: C_1  and  C_2
REMARK    2  A    between atoms: C_2  and  C_4
REMARK    3  A    between atoms: C_2  and  N_16
REMARK    4  A    between atoms: C_6  and  C_9
REMARK    5  A    between atoms: N_19  and  C_22
REMARK    6  A    between atoms: C_22  and  N_23
REMARK    7  A    between atoms: C_28  and  C_30
REMARK                            x       y       z     vdW  Elec       q    Type
REMARK                         _______ _______ _______ _____ _____    ______ ____
ROOT
ATOM      1  N   UNL     1      -0.954  10.367   3.641  0.00  0.00    -0.295 NA
ATOM      2  C   UNL     1       0.045  11.103   2.853  0.00  0.00    +0.066 C 
ATOM      3  C   UNL     1       0.001  10.623   1.401  0.00  0.00    -0.061 C 
ATOM      4  N   UNL     1       0.260   9.178   1.357  0.00  0.00    +0.394 N 
ATOM      5  C   UNL     1      -0.739   8.442   2.144  0.00  0.00    -0.061 C 
ATOM      6  C   UNL     1      -0.694   8.921   3.597  0.00  0.00    +0.066 C 
ATOM      7  H   UNL     1       1.248   8.996   1.806  0.00  0.00    -0.079 HD
ENDROOT
BRANCH   1   9
ATOM      8  C   UNL     1      -2.010  10.034   5.825  0.00  0.00    +0.034 C 
ATOM      9  C   UNL     1      -0.994  10.853   5.027  0.00  0.00    +0.143 C 
BRANCH   9  10
ATOM     10  C   UNL     1      -1.397  12.305   5.039  0.00  0.00    +0.245 A 
ATOM     11  N   UNL     1      -0.826  13.265   5.721  0.00  0.00    -0.190 NA
ATOM     12  C   UNL     1      -1.521  14.386   5.422  0.00  0.00    +0.202 A 
ATOM     13  N   UNL     1      -2.464  14.044   4.584  0.00  0.00    -0.056 NA
ATOM     14  O   UNL     1      -2.402  12.855   4.350  0.00  0.00    -0.336 OA
BRANCH  12  15
ATOM     15  C   UNL     1      -1.262  15.750   5.948  0.00  0.00    +0.023 A 
ATOM     16  C   UNL     1      -0.218  15.966   6.846  0.00  0.00    +0.013 A 
ATOM     17  C   UNL     1       0.021  17.237   7.328  0.00  0.00    +0.021 A 
ATOM     18  C   UNL     1      -0.779  18.294   6.929  0.00  0.00    +0.041 A 
ATOM     19  C   UNL     1      -1.820  18.083   6.041  0.00  0.00    +0.021 A 
ATOM     20  C   UNL     1      -2.064  16.817   5.549  0.00  0.00    +0.013 A 
ATOM     21 CL   UNL     1      -0.477  19.888   7.545  0.00  0.00    -0.084 Cl
ENDBRANCH  12  15
ENDBRANCH   9  10
ENDBRANCH   1   9
BRANCH   4  22
ATOM     22  C   UNL     1       0.300   8.692  -0.029  0.00  0.00    +0.072 C 
BRANCH  22  23
ATOM     23  N   UNL     1       0.792   7.312  -0.049  0.00  0.00    -0.257 N 
ATOM     24  C   UNL     1       2.080   6.927  -0.159  0.00  0.00    +0.174 A 
ATOM     25  S   UNL     1       3.436   7.964  -0.300  0.00  0.00    -0.012 S 
ATOM     26  N   UNL     1       2.109   5.580  -0.131  0.00  0.00    -0.317 N 
ATOM     27  H   UNL     1       3.070   5.049  -0.200  0.00  0.00    +0.169 HD
ATOM     28  C   UNL     1       0.811   5.122  -0.011  0.00  0.00    +0.167 A 
ATOM     29  N   UNL     1       0.011   6.153   0.043  0.00  0.00    -0.152 NA
BRANCH  28  30
ATOM     30  C   UNL     1       0.399   3.709   0.052  0.00  0.00    +0.056 A 
ATOM     31  C   UNL     1      -0.861   3.180   0.175  0.00  0.00    +0.019 A 
ATOM     32  C   UNL     1      -1.003   1.811   0.206  0.00  0.00    +0.008 A 
ATOM     33  C   UNL     1       0.104   1.028   0.126  0.00  0.00    +0.046 A 
ATOM     34  S   UNL     1       1.410   2.238  -0.013  0.00  0.00    -0.094 S 
ENDBRANCH  28  30
ENDBRANCH  22  23
ENDBRANCH   4  22
TORSDOF 6
