REMARK  Name = ZINC64087524
REMARK  6 active torsions:
REMARK  status: ('A' for Active; 'I' for Inactive)
REMARK    1  A    between atoms: C_1  and  C_2
REMARK    2  A    between atoms: C_5  and  C_7
REMARK    3  A    between atoms: C_11  and  C_13
REMARK    4  A    between atoms: C_13  and  N_14
REMARK    5  A    between atoms: N_14  and  C_15
REMARK    6  A    between atoms: C_18  and  C_20
REMARK                            x       y       z     vdW  Elec       q    Type
REMARK                         _______ _______ _______ _____ _____    ______ ____
ROOT
ATOM      1  N   UNL     1       4.938  -3.817  -2.090  0.00  0.00    -0.287 N 
ATOM      2  C   UNL     1       4.334  -4.987  -1.799  0.00  0.00    +0.247 C 
ATOM      3  O   UNL     1       3.452  -5.411  -2.520  0.00  0.00    -0.270 OA
ENDROOT
BRANCH   2   4
ATOM      4  C   UNL     1       4.745  -5.752  -0.605  0.00  0.00    +0.039 A 
ATOM      5  C   UNL     1       5.145  -5.074   0.556  0.00  0.00    +0.015 A 
ATOM      6  C   UNL     1       5.526  -5.769   1.665  0.00  0.00    +0.030 A 
ATOM      7  C   UNL     1       5.521  -7.162   1.654  0.00  0.00    +0.086 A 
ATOM      8  C   UNL     1       5.122  -7.859   0.499  0.00  0.00    +0.113 A 
ATOM      9  C   UNL     1       4.727  -7.141  -0.634  0.00  0.00    +0.044 A 
ATOM     10  N   UNL     1       5.213  -9.183   0.768  0.00  0.00    -0.130 NA
ATOM     11  N   UNL     1       5.628  -9.363   1.972  0.00  0.00    -0.067 NA
ATOM     12  N   UNL     1       5.840  -8.119   2.585  0.00  0.00    -0.257 N 
ATOM     13  H   UNL     1       6.152  -7.965   3.490  0.00  0.00    +0.191 HD
ENDBRANCH   2   4
BRANCH   1  14
ATOM     14  C   UNL     1       4.451  -2.999  -3.204  0.00  0.00    +0.077 C 
ATOM     15  C   UNL     1       3.054  -3.304  -3.747  0.00  0.00    +0.024 C 
ATOM     16  C   UNL     1       4.291  -3.681  -4.564  0.00  0.00    +0.024 C 
ENDBRANCH   1  14
BRANCH   1  17
ATOM     17  C   UNL     1       6.080  -3.364  -1.293  0.00  0.00    +0.181 C 
BRANCH  17  21
ATOM     18  C   UNL     1       4.975   0.124  -0.736  0.00  0.00    +0.180 C 
ATOM     19  C   UNL     1       5.370  -0.270   0.709  0.00  0.00    +0.075 C 
ATOM     20  C   UNL     1       5.667  -1.752   0.552  0.00  0.00    +0.019 C 
ATOM     21  C   UNL     1       5.791  -1.994  -0.735  0.00  0.00    +0.112 C 
ATOM     22  O   UNL     1       5.635  -0.896  -1.510  0.00  0.00    -0.491 OA
BRANCH  18  26
ATOM     23  C   UNL     1       6.361   2.884  -3.150  0.00  0.00    +0.008 C 
ATOM     24  C   UNL     1       5.269   2.022  -2.513  0.00  0.00    -0.007 C 
ATOM     25  C   UNL     1       4.488   2.623  -1.342  0.00  0.00    +0.011 C 
ATOM     26  C   UNL     1       5.512   1.513  -1.090  0.00  0.00    +0.033 C 
ENDBRANCH  18  26
ENDBRANCH  17  21
ENDBRANCH   1  17
TORSDOF 5
