REMARK  Name = ZINC00709513
REMARK  8 active torsions:
REMARK  status: ('A' for Active; 'I' for Inactive)
REMARK    1  A    between atoms: C_1  and  C_2
REMARK    2  A    between atoms: C_2  and  O_3
REMARK    3  A    between atoms: O_3  and  C_4
REMARK    4  A    between atoms: C_6  and  C_14
REMARK    5  A    between atoms: C_9  and  O_10
REMARK    6  A    between atoms: O_10  and  C_11
REMARK    7  A    between atoms: C_11  and  C_13
REMARK    8  A    between atoms: C_19  and  C_24
REMARK                            x       y       z     vdW  Elec       q    Type
REMARK                         _______ _______ _______ _____ _____    ______ ____
ROOT
ATOM      1  C   UNL     1      -2.634   2.378   2.542  0.00  0.00    +0.136 C 
ATOM      2  C   UNL     1      -2.137   1.865   1.212  0.00  0.00    +0.036 C 
ATOM      3  C   UNL     1      -2.883   1.676   0.110  0.00  0.00    +0.017 C 
ATOM      4  C   UNL     1      -2.252   1.147  -1.167  0.00  0.00    +0.059 C 
ATOM      5  C   UNL     1      -0.807   1.632  -1.273  0.00  0.00    +0.032 C 
ATOM      6  C   UNL     1      -0.048   1.111  -0.048  0.00  0.00    +0.088 C 
ATOM      7  C   UNL     1      -0.745   1.589   1.190  0.00  0.00    +0.163 C 
ATOM      8  O   UNL     1      -0.096   1.745   2.205  0.00  0.00    -0.292 OA
ATOM      9  N   UNL     1      -4.217   1.914   0.030  0.00  0.00    -0.316 N 
ATOM     10  C   UNL     1      -4.850   3.060   0.496  0.00  0.00    +0.052 A 
ATOM     11  C   UNL     1      -5.534   3.920  -0.345  0.00  0.00    +0.025 A 
ATOM     12  C   UNL     1      -6.240   4.980   0.197  0.00  0.00    +0.002 A 
ATOM     13  C   UNL     1      -6.259   5.178   1.566  0.00  0.00    +0.002 A 
ATOM     14  C   UNL     1      -5.558   4.331   2.406  0.00  0.00    +0.025 A 
ATOM     15  C   UNL     1      -4.836   3.280   1.865  0.00  0.00    +0.049 A 
ATOM     16  N   UNL     1      -4.076   2.429   2.666  0.00  0.00    -0.331 N 
ATOM     17  H   UNL     1      -4.770   1.233  -0.385  0.00  0.00    +0.152 HD
ATOM     18  H   UNL     1      -4.519   1.861   3.315  0.00  0.00    +0.147 HD
ENDROOT
BRANCH   1  21
ATOM     19  C   UNL     1      -0.715   5.291   3.991  0.00  0.00    +0.163 A 
ATOM     20  C   UNL     1      -1.218   4.015   3.797  0.00  0.00    +0.055 A 
ATOM     21  C   UNL     1      -2.088   3.767   2.752  0.00  0.00    -0.019 A 
ATOM     22  C   UNL     1      -2.455   4.789   1.896  0.00  0.00    +0.009 A 
ATOM     23  C   UNL     1      -1.961   6.066   2.088  0.00  0.00    +0.050 A 
ATOM     24  C   UNL     1      -1.088   6.321   3.133  0.00  0.00    +0.173 A 
BRANCH  19  25
ATOM     25  O   UNL     1       0.141   5.537   5.019  0.00  0.00    -0.489 OA
BRANCH  25  27
ATOM     26  C   UNL     1       1.446   4.898   6.951  0.00  0.00    +0.048 C 
ATOM     27  C   UNL     1       0.480   4.432   5.860  0.00  0.00    +0.226 C 
ENDBRANCH  25  27
ENDBRANCH  19  25
BRANCH  24  28
ATOM     28  O   UNL     1      -0.597   7.576   3.320  0.00  0.00    -0.422 OA
BRANCH  28  29
ATOM     29  C   UNL     1       0.638   7.822   2.858  0.00  0.00    +0.309 C 
ATOM     30  O   UNL     1       1.228   6.975   2.230  0.00  0.00    -0.251 OA
ATOM     31  C   UNL     1       1.290   9.155   3.121  0.00  0.00    +0.136 C 
ENDBRANCH  28  29
ENDBRANCH  24  28
ENDBRANCH   1  21
BRANCH   5  32
ATOM     32  C   UNL     1      -0.178   1.092  -2.532  0.00  0.00    -0.044 A 
ATOM     33  C   UNL     1      -0.109  -0.273  -2.739  0.00  0.00    +0.004 A 
ATOM     34  C   UNL     1       0.464  -0.768  -3.896  0.00  0.00    +0.000 A 
ATOM     35  C   UNL     1       0.975   0.101  -4.841  0.00  0.00    +0.000 A 
ATOM     36  C   UNL     1       0.911   1.466  -4.631  0.00  0.00    +0.000 A 
ATOM     37  C   UNL     1       0.334   1.961  -3.477  0.00  0.00    +0.004 A 
ENDBRANCH   5  32
TORSDOF 6
