REMARK  Name = ZINC06194850
REMARK  10 active torsions:
REMARK  status: ('A' for Active; 'I' for Inactive)
REMARK    1  A    between atoms: C_1  and  C_2
REMARK    2  A    between atoms: C_6  and  C_15
REMARK    3  A    between atoms: C_13  and  C_14
REMARK    4  A    between atoms: C_15  and  C_17
REMARK    5  A    between atoms: C_15  and  N_74
REMARK    6  A    between atoms: N_21  and  C_22
REMARK    7  A    between atoms: C_22  and  C_23
REMARK    8  A    between atoms: N_31  and  C_34
REMARK    9  A    between atoms: C_37  and  O_40
REMARK   10  A    between atoms: O_40  and  C_41
REMARK                            x       y       z     vdW  Elec       q    Type
REMARK                         _______ _______ _______ _____ _____    ______ ____
ROOT
ATOM      1  C   UNL     1       4.884   3.977  -0.023  0.00  0.00    +0.039 C 
ENDROOT
BRANCH   1   7
ATOM      2  C   UNL     1      -2.547   4.434  -0.454  0.00  0.00    +0.044 C 
ATOM      3  C   UNL     1      -1.283   3.618  -0.385  0.00  0.00    -0.047 A 
ATOM      4  C   UNL     1      -0.073   4.248  -0.311  0.00  0.00    +0.013 A 
ATOM      5  C   UNL     1       1.101   3.490  -0.247  0.00  0.00    -0.001 A 
ATOM      6  C   UNL     1       2.414   4.133  -0.166  0.00  0.00    +0.017 A 
ATOM      7  C   UNL     1       3.517   3.347  -0.107  0.00  0.00    +0.011 A 
ATOM      8  C   UNL     1       3.391   1.942  -0.123  0.00  0.00    +0.251 A 
ATOM      9  O   UNL     1       4.396   1.254  -0.069  0.00  0.00    -0.268 OA
ATOM     10  N   UNL     1       2.189   1.342  -0.197  0.00  0.00    -0.322 N 
ATOM     11  H   UNL     1       2.138   0.374  -0.205  0.00  0.00    +0.169 HD
ATOM     12  C   UNL     1       1.029   2.084  -0.259  0.00  0.00    +0.049 A 
ATOM     13  C   UNL     1      -0.214   1.465  -0.336  0.00  0.00    +0.030 A 
ATOM     14  C   UNL     1      -1.357   2.232  -0.403  0.00  0.00    -0.046 A 
ATOM     15  C   UNL     1      -2.702   1.558  -0.492  0.00  0.00    +0.044 C 
ENDBRANCH   1   7
BRANCH   1  21
ATOM     16  C   UNL     1       7.098   3.986  -1.003  0.00  0.00    -0.058 C 
ATOM     17  C   UNL     1       7.972   3.347  -2.085  0.00  0.00    +0.086 C 
ATOM     18  N   UNL     1       7.388   3.618  -3.406  0.00  0.00    -0.333 N 
ATOM     19  C   UNL     1       6.025   3.076  -3.497  0.00  0.00    +0.086 C 
ATOM     20  C   UNL     1       5.151   3.715  -2.415  0.00  0.00    -0.058 C 
ATOM     21  N   UNL     1       5.737   3.416  -1.092  0.00  0.00    +0.391 N 
ATOM     22  H   UNL     1       5.793   2.398  -0.974  0.00  0.00    -0.080 HD
BRANCH  18  23
ATOM     23  C   UNL     1       8.199   3.110  -4.427  0.00  0.00    +0.030 A 
ATOM     24  C   UNL     1       7.676   2.211  -5.347  0.00  0.00    +0.027 A 
ATOM     25  C   UNL     1       8.476   1.715  -6.358  0.00  0.00    +0.047 A 
ATOM     26  C   UNL     1       9.804   2.106  -6.447  0.00  0.00    +0.120 A 
ATOM     27  C   UNL     1      10.328   2.999  -5.525  0.00  0.00    +0.047 A 
ATOM     28  C   UNL     1       9.528   3.501  -4.517  0.00  0.00    +0.027 A 
BRANCH  26  29
ATOM     29  O   UNL     1      10.592   1.613  -7.440  0.00  0.00    -0.495 OA
ATOM     30  C   UNL     1       9.987   0.697  -8.355  0.00  0.00    +0.277 C 
ENDBRANCH  26  29
ENDBRANCH  18  23
ENDBRANCH   1  21
BRANCH   1  31
ATOM     31  C   UNL     1       5.502   3.660   1.315  0.00  0.00    +0.143 A 
ATOM     32  N   UNL     1       6.007   2.510   1.690  0.00  0.00    -0.115 NA
ATOM     33  N   UNL     1       6.437   2.640   2.898  0.00  0.00    -0.023 NA
ATOM     34  N   UNL     1       6.212   3.841   3.305  0.00  0.00    -0.044 NA
ATOM     35  N   UNL     1       5.636   4.500   2.357  0.00  0.00    -0.228 N 
BRANCH  35  36
ATOM     36  C   UNL     1       5.210   5.901   2.407  0.00  0.00    +0.178 C 
BRANCH  36  37
ATOM     37  C   UNL     1       3.771   5.978   2.921  0.00  0.00    +0.140 C 
ATOM     38  C   UNL     1       3.273   7.438   2.868  0.00  0.00    +0.035 C 
ATOM     39  C   UNL     1       2.453   7.555   4.182  0.00  0.00    +0.031 C 
ATOM     40  C   UNL     1       3.269   6.633   5.122  0.00  0.00    +0.160 C 
ATOM     41  O   UNL     1       3.720   5.553   4.288  0.00  0.00    -0.375 OA
ENDBRANCH  36  37
ENDBRANCH  35  36
ENDBRANCH   1  31
TORSDOF 7
