REMARK  Name = ZINC36481450
REMARK  13 active torsions:
REMARK  status: ('A' for Active; 'I' for Inactive)
REMARK    1  A    between atoms: C_1  and  C_2
REMARK    2  A    between atoms: C_4  and  C_15
REMARK    3  A    between atoms: C_12  and  C_13
REMARK    4  A    between atoms: C_12  and  C_14
REMARK    5  A    between atoms: N_17  and  C_18
REMARK    6  A    between atoms: N_17  and  C_25
REMARK    7  A    between atoms: C_25  and  C_27
REMARK    8  A    between atoms: C_25  and  C_34
REMARK    9  A    between atoms: C_30  and  O_33
REMARK   10  A    between atoms: N_36  and  C_37
REMARK   11  A    between atoms: C_37  and  C_38
REMARK   12  A    between atoms: C_37  and  C_39
REMARK   13  A    between atoms: C_37  and  C_40
REMARK                            x       y       z     vdW  Elec       q    Type
REMARK                         _______ _______ _______ _____ _____    ______ ____
ROOT
ATOM      1  C   UNL     1      -0.292  -2.491  -1.748  0.00  0.00    +0.224 C 
ATOM      2  O   UNL     1      -1.450  -2.578  -1.398  0.00  0.00    -0.275 OA
ATOM      3  N   UNL     1       0.020  -2.515  -3.059  0.00  0.00    -0.255 N 
ENDROOT
BRANCH   1   6
ATOM      4  C   UNL     1       1.021  -0.516   1.000  0.00  0.00    +0.008 C 
ATOM      5  C   UNL     1       0.254  -1.764   0.577  0.00  0.00    +0.001 C 
ATOM      6  C   UNL     1       0.799  -2.357  -0.716  0.00  0.00    +0.079 C 
ATOM      7  C   UNL     1       1.513  -3.688  -0.509  0.00  0.00    +0.017 C 
ATOM      8  C   UNL     1       1.019  -4.419   0.741  0.00  0.00    -0.004 C 
ATOM      9  C   UNL     1      -0.445  -4.114   1.096  0.00  0.00    +0.008 C 
ATOM     10  C   UNL     1       0.128  -2.799   1.688  0.00  0.00    -0.001 C 
ATOM     11  C   UNL     1       1.362  -3.633   2.023  0.00  0.00    -0.029 C 
ATOM     12  C   UNL     1       1.206  -4.478   3.301  0.00  0.00    +0.011 C 
ATOM     13  C   UNL     1       2.717  -2.932   1.997  0.00  0.00    +0.011 C 
ENDBRANCH   1   6
BRANCH   3  14
ATOM     14  C   UNL     1       1.361  -2.533  -3.459  0.00  0.00    +0.039 A 
ATOM     15  C   UNL     1       2.148  -1.398  -3.305  0.00  0.00    +0.023 A 
ATOM     16  C   UNL     1       3.471  -1.418  -3.700  0.00  0.00    +0.003 A 
ATOM     17  C   UNL     1       4.013  -2.565  -4.249  0.00  0.00    +0.020 A 
ATOM     18  C   UNL     1       3.232  -3.697  -4.404  0.00  0.00    +0.043 A 
ATOM     19  C   UNL     1       1.909  -3.685  -4.005  0.00  0.00    +0.043 A 
ATOM     20 CL   UNL     1       3.917  -5.136  -5.094  0.00  0.00    -0.083 Cl
ENDBRANCH   3  14
BRANCH   3  21
ATOM     21  C   UNL     1      -1.045  -2.523  -4.065  0.00  0.00    +0.197 C 
BRANCH  21  22
ATOM     22  C   UNL     1      -0.439  -2.677  -5.436  0.00  0.00    -0.018 A 
ATOM     23  C   UNL     1       0.527  -1.787  -5.868  0.00  0.00    +0.009 A 
ATOM     24  C   UNL     1       1.083  -1.925  -7.125  0.00  0.00    +0.046 A 
ATOM     25  C   UNL     1       0.673  -2.960  -7.954  0.00  0.00    +0.117 A 
ATOM     26  C   UNL     1      -0.296  -3.852  -7.518  0.00  0.00    +0.046 A 
ATOM     27  C   UNL     1      -0.846  -3.712  -6.258  0.00  0.00    +0.009 A 
BRANCH  25  28
ATOM     28  O   UNL     1       1.218  -3.098  -9.191  0.00  0.00    -0.507 OA
ATOM     29  H   UNL     1       2.007  -3.658  -9.212  0.00  0.00    +0.292 HD
ENDBRANCH  25  28
ENDBRANCH  21  22
BRANCH  21  30
ATOM     30  C   UNL     1      -1.810  -1.226  -3.997  0.00  0.00    +0.239 C 
ATOM     31  O   UNL     1      -1.497  -0.379  -3.187  0.00  0.00    -0.273 OA
ATOM     32  N   UNL     1      -2.842  -1.008  -4.835  0.00  0.00    -0.309 N 
ATOM     33  H   UNL     1      -3.093  -1.686  -5.483  0.00  0.00    +0.149 HD
BRANCH  32  34
ATOM     34  C   UNL     1      -3.586   0.252  -4.769  0.00  0.00    +0.026 C 
ATOM     35  C   UNL     1      -2.636   1.420  -5.041  0.00  0.00    +0.031 C 
ATOM     36  C   UNL     1      -4.698   0.244  -5.820  0.00  0.00    +0.031 C 
ATOM     37  C   UNL     1      -4.201   0.408  -3.377  0.00  0.00    +0.031 C 
ENDBRANCH  32  34
ENDBRANCH  21  30
ENDBRANCH   3  21
TORSDOF 7
