REMARK  Name = ZINC63686577
REMARK  11 active torsions:
REMARK  status: ('A' for Active; 'I' for Inactive)
REMARK    1  A    between atoms: C_1  and  C_2
REMARK    2  A    between atoms: C_4  and  C_34
REMARK    3  A    between atoms: C_11  and  C_13
REMARK    4  A    between atoms: C_13  and  S_14
REMARK    5  A    between atoms: S_14  and  C_15
REMARK    6  A    between atoms: C_19  and  C_23
REMARK    7  A    between atoms: N_21  and  C_22
REMARK    8  A    between atoms: C_23  and  O_24
REMARK    9  A    between atoms: O_24  and  C_25
REMARK   10  A    between atoms: C_27  and  C_33
REMARK   11  A    between atoms: C_29  and  C_31
REMARK                            x       y       z     vdW  Elec       q    Type
REMARK                         _______ _______ _______ _____ _____    ______ ____
ROOT
ATOM      1  C   UNL     1      -1.453  -8.799   0.609  0.00  0.00    +0.200 C 
ATOM      2  N   UNL     1      -0.330  -9.325  -0.210  0.00  0.00    -0.229 NA
ATOM      3  N   UNL     1      -0.076 -10.647   0.385  0.00  0.00    -0.234 NA
ATOM      4  C   UNL     1      -0.271 -10.442   1.839  0.00  0.00    +0.178 C 
ATOM      5  N   UNL     1      -1.154  -9.264   1.984  0.00  0.00    -0.261 NA
ATOM      6  C   UNL     1      -0.497  -8.207   2.765  0.00  0.00    +0.109 C 
ATOM      7  H   UNL     1       0.483  -8.732  -0.133  0.00  0.00    +0.143 HD
ATOM      8  H   UNL     1       0.863 -10.958   0.187  0.00  0.00    +0.142 HD
ENDROOT
BRANCH   1   9
ATOM      9  S   UNL     1      -1.490  -6.986   0.546  0.00  0.00    -0.119 S 
BRANCH   9  10
ATOM     10  C   UNL     1      -2.291  -6.619  -1.039  0.00  0.00    +0.125 C 
BRANCH  10  21
ATOM     11  C   UNL     1      -4.425   1.024  -0.778  0.00  0.00    +0.044 C 
ATOM     12  C   UNL     1      -4.171  -0.459  -0.693  0.00  0.00    -0.049 A 
ATOM     13  C   UNL     1      -4.960  -1.246   0.134  0.00  0.00    +0.008 A 
ATOM     14  C   UNL     1      -4.746  -2.604   0.227  0.00  0.00    -0.026 A 
ATOM     15  C   UNL     1      -3.727  -3.193  -0.516  0.00  0.00    +0.053 A 
ATOM     16  C   UNL     1      -2.931  -2.390  -1.351  0.00  0.00    +0.045 A 
ATOM     17  C   UNL     1      -3.168  -1.018  -1.435  0.00  0.00    +0.017 A 
ATOM     18  C   UNL     1      -1.858  -3.034  -2.129  0.00  0.00    +0.190 A 
ATOM     19  O   UNL     1      -1.138  -2.384  -2.869  0.00  0.00    -0.287 OA
ATOM     20  C   UNL     1      -1.690  -4.432  -1.989  0.00  0.00    +0.073 A 
ATOM     21  C   UNL     1      -2.497  -5.131  -1.165  0.00  0.00    +0.030 A 
ATOM     22  N   UNL     1      -3.486  -4.547  -0.446  0.00  0.00    -0.357 N 
ATOM     23  C   UNL     1      -5.610  -3.447   1.129  0.00  0.00    +0.046 C 
ATOM     24  H   UNL     1      -4.038  -5.097   0.133  0.00  0.00    +0.166 HD
ENDBRANCH  10  21
ENDBRANCH   9  10
ENDBRANCH   1   9
BRANCH   4  25
ATOM     25  C   UNL     1      -0.935 -11.673   2.457  0.00  0.00    +0.265 C 
BRANCH  25  26
ATOM     26  O   UNL     1      -2.190 -11.910   1.816  0.00  0.00    -0.489 OA
BRANCH  26  27
ATOM     27  C   UNL     1      -2.914 -12.975   2.251  0.00  0.00    +0.121 A 
ATOM     28  C   UNL     1      -2.429 -13.772   3.277  0.00  0.00    +0.050 A 
ATOM     29  C   UNL     1      -3.166 -14.854   3.717  0.00  0.00    -0.028 A 
ATOM     30  C   UNL     1      -4.388 -15.143   3.135  0.00  0.00    +0.047 A 
ATOM     31  C   UNL     1      -4.873 -14.350   2.111  0.00  0.00    -0.028 A 
ATOM     32  C   UNL     1      -4.142 -13.263   1.672  0.00  0.00    +0.050 A 
ATOM     33  C   UNL     1      -6.203 -14.667   1.478  0.00  0.00    +0.045 C 
ATOM     34 CL   UNL     1      -5.312 -16.504   3.689  0.00  0.00    -0.083 Cl
ATOM     35  C   UNL     1      -2.640 -15.720   4.832  0.00  0.00    +0.045 C 
ENDBRANCH  26  27
ENDBRANCH  25  26
ENDBRANCH   4  25
TORSDOF 6
