REMARK  Name = ZINC05937327
REMARK  1 active torsions:
REMARK  status: ('A' for Active; 'I' for Inactive)
REMARK    1  A    between atoms: C_3  and  C_6
REMARK                            x       y       z     vdW  Elec       q    Type
REMARK                         _______ _______ _______ _____ _____    ______ ____
ROOT
ATOM      1  C   UNL     1       1.337  -0.709   0.013  0.00  0.00    +0.148 C 
ATOM      2  C   UNL     1       0.002  -0.004   0.002  0.00  0.00    +0.059 C 
ATOM      3  C   UNL     1      -0.016   1.345   0.009  0.00  0.00    +0.038 C 
ATOM      4  C   UNL     1      -1.350   2.048   0.043  0.00  0.00    +0.153 C 
ATOM      5  N   UNL     1      -2.349   1.250  -0.674  0.00  0.00    -0.235 NA
ATOM      6  N   UNL     1      -2.362  -0.055  -0.283  0.00  0.00    -0.247 N 
ATOM      7  C   UNL     1      -1.216  -0.719  -0.032  0.00  0.00    +0.257 C 
ATOM      8  O   UNL     1      -1.230  -1.920   0.164  0.00  0.00    -0.269 OA
ATOM      9  N   UNL     1       1.151   2.057   0.002  0.00  0.00    -0.271 N 
ATOM     10  C   UNL     1       2.363   1.487   0.005  0.00  0.00    +0.304 C 
ATOM     11  O   UNL     1       3.345   2.203  -0.002  0.00  0.00    -0.252 OA
ATOM     12  N   UNL     1       2.536   0.150   0.014  0.00  0.00    -0.288 N 
ATOM     13  H   UNL     1      -3.267   1.660  -0.593  0.00  0.00    +0.145 HD
ATOM     14  H   UNL     1      -3.211  -0.514  -0.183  0.00  0.00    +0.169 HD
ATOM     15  H   UNL     1       1.098   3.025  -0.005  0.00  0.00    +0.156 HD
ATOM     16  H   UNL     1       3.425  -0.237   0.020  0.00  0.00    +0.151 HD
ENDROOT
BRANCH   1  19
ATOM     17  C   UNL     1       1.284  -3.522   2.580  0.00  0.00    +0.008 A 
ATOM     18  C   UNL     1       1.175  -2.921   1.341  0.00  0.00    +0.013 A 
ATOM     19  C   UNL     1       1.391  -1.586   1.237  0.00  0.00    +0.015 A 
ATOM     20  S   UNL     1       1.748  -1.137   2.928  0.00  0.00    -0.099 S 
ATOM     21  C   UNL     1       1.593  -2.759   3.657  0.00  0.00    +0.045 A 
ENDBRANCH   1  19
TORSDOF 1
