REMARK  Name = ZINC20530471
REMARK  6 active torsions:
REMARK  status: ('A' for Active; 'I' for Inactive)
REMARK    1  A    between atoms: C_3  and  O_32
REMARK    2  A    between atoms: C_6  and  N_7
REMARK    3  A    between atoms: C_8  and  C_10
REMARK    4  A    between atoms: N_15  and  S_17
REMARK    5  A    between atoms: S_17  and  C_20
REMARK    6  A    between atoms: O_32  and  C_33
REMARK                            x       y       z     vdW  Elec       q    Type
REMARK                         _______ _______ _______ _____ _____    ______ ____
ROOT
ATOM      1  C   UNL     1      -5.163   4.343   2.971  0.00  0.00    +0.091 C 
ATOM      2  C   UNL     1      -5.917   3.327   3.833  0.00  0.00    +0.015 C 
ATOM      3  C   UNL     1      -6.388   2.163   2.957  0.00  0.00    +0.018 C 
ATOM      4  C   UNL     1      -5.175   1.469   2.340  0.00  0.00    +0.109 C 
ATOM      5  N   UNL     1      -4.361   2.467   1.632  0.00  0.00    -0.176 NA
ATOM      6  C   UNL     1      -3.931   3.671   2.357  0.00  0.00    +0.122 C 
ENDROOT
BRANCH   1   8
ATOM      7  N   UNL     1      -5.648   6.247   4.473  0.00  0.00    -0.285 N 
ATOM      8  C   UNL     1      -4.728   5.503   3.828  0.00  0.00    +0.222 C 
ATOM      9  O   UNL     1      -3.549   5.768   3.937  0.00  0.00    -0.275 OA
ATOM     10  H   UNL     1      -6.720   6.056   4.315  0.00  0.00    +0.155 HD
BRANCH   7  16
ATOM     11  C   UNL     1      -5.979   7.537   6.490  0.00  0.00    +0.027 A 
ATOM     12  C   UNL     1      -5.573   8.536   7.353  0.00  0.00    +0.048 A 
ATOM     13  C   UNL     1      -4.434   9.275   7.071  0.00  0.00    +0.130 A 
ATOM     14  C   UNL     1      -3.698   9.008   5.925  0.00  0.00    +0.048 A 
ATOM     15  C   UNL     1      -4.100   8.005   5.065  0.00  0.00    +0.027 A 
ATOM     16  C   UNL     1      -5.240   7.265   5.346  0.00  0.00    +0.034 A 
BRANCH  13  17
ATOM     17  O   UNL     1      -4.038  10.262   7.917  0.00  0.00    -0.406 OA
BRANCH  17  18
ATOM     18  C   UNL     1      -4.842  10.483   9.078  0.00  0.00    +0.575 C 
ATOM     19  F   UNL     1      -4.877   9.317   9.850  0.00  0.00    -0.133 F 
ATOM     20  F   UNL     1      -4.295  11.527   9.832  0.00  0.00    -0.133 F 
ATOM     21  F   UNL     1      -6.142  10.822   8.686  0.00  0.00    -0.133 F 
ENDBRANCH  17  18
ENDBRANCH  13  17
ENDBRANCH   7  16
ENDBRANCH   1   8
BRANCH   5  22
ATOM     22  S   UNL     1      -3.943   2.243   0.046  0.00  0.00    +0.061 S 
ATOM     23  O   UNL     1      -3.690   3.533  -0.494  0.00  0.00    -0.153 OA
ATOM     24  O   UNL     1      -4.910   1.361  -0.508  0.00  0.00    -0.153 OA
BRANCH  22  25
ATOM     25  C   UNL     1      -2.407   1.380   0.029  0.00  0.00    +0.106 A 
ATOM     26  C   UNL     1      -2.397  -0.008   0.015  0.00  0.00    +0.030 A 
ATOM     27  C   UNL     1      -1.208  -0.704   0.003  0.00  0.00    +0.028 A 
ATOM     28  C   UNL     1      -0.002  -0.009   0.004  0.00  0.00    +0.049 A 
ATOM     29  C   UNL     1      -0.016   1.398   0.017  0.00  0.00    +0.000 A 
ATOM     30  C   UNL     1      -1.236   2.083   0.035  0.00  0.00    +0.038 A 
ATOM     31  C   UNL     1       1.258   2.120   0.017  0.00  0.00    +0.015 A 
ATOM     32  C   UNL     1       2.409   1.403   0.006  0.00  0.00    +0.071 A 
ATOM     33  C   UNL     1       2.367  -0.008  -0.007  0.00  0.00    +0.249 A 
ATOM     34  O   UNL     1       3.413  -0.633  -0.017  0.00  0.00    -0.268 OA
ATOM     35  N   UNL     1       1.202  -0.679  -0.008  0.00  0.00    -0.322 N 
ATOM     36  H   UNL     1       1.220  -1.779  -0.019  0.00  0.00    +0.169 HD
ENDBRANCH  22  25
ENDBRANCH   5  22
TORSDOF 6
