REMARK  Name = ZINC16609032
REMARK  11 active torsions:
REMARK  status: ('A' for Active; 'I' for Inactive)
REMARK    1  A    between atoms: C_1  and  C_2
REMARK    2  A    between atoms: C_3  and  C_30
REMARK    3  A    between atoms: C_4  and  C_11
REMARK    4  A    between atoms: N_9  and  C_10
REMARK    5  A    between atoms: C_14  and  N_17
REMARK    6  A    between atoms: C_18  and  C_20
REMARK    7  A    between atoms: C_24  and  C_26
REMARK    8  A    between atoms: C_30  and  O_32
REMARK    9  A    between atoms: O_32  and  C_33
REMARK   10  A    between atoms: C_33  and  C_34
REMARK   11  A    between atoms: C_33  and  C_35
REMARK                            x       y       z     vdW  Elec       q    Type
REMARK                         _______ _______ _______ _____ _____    ______ ____
ROOT
ATOM      1  C   UNL     1       0.110   3.257   0.698  0.00  0.00    -0.022 A 
ATOM      2  C   UNL     1       0.601   2.714   1.871  0.00  0.00    +0.007 A 
ATOM      3  C   UNL     1      -0.130   2.813   3.039  0.00  0.00    +0.023 A 
ATOM      4  C   UNL     1      -1.365   3.449   3.031  0.00  0.00    +0.034 A 
ATOM      5  C   UNL     1      -1.857   3.989   1.850  0.00  0.00    +0.023 A 
ATOM      6  C   UNL     1      -1.119   3.891   0.687  0.00  0.00    +0.007 A 
ENDROOT
BRANCH   1  10
ATOM      7  C   UNL     1       1.642  -0.393  -1.903  0.00  0.00    +0.061 C 
ATOM      8  C   UNL     1       1.801   0.993  -1.334  0.00  0.00    +0.021 C 
ATOM      9  C   UNL     1       0.707   1.762  -1.142  0.00  0.00    +0.078 C 
ATOM     10  C   UNL     1       0.913   3.151  -0.573  0.00  0.00    +0.141 C 
ATOM     11  N   UNL     1       2.297   3.547  -0.264  0.00  0.00    -0.315 N 
ATOM     12  C   UNL     1       3.287   2.666  -0.512  0.00  0.00    +0.137 C 
ATOM     13  S   UNL     1       4.902   3.115  -0.164  0.00  0.00    -0.018 S 
ATOM     14  N   UNL     1       3.048   1.451  -1.021  0.00  0.00    -0.289 N 
ATOM     15  C   UNL     1       4.190   0.564  -1.256  0.00  0.00    +0.137 C 
ATOM     16  H   UNL     1       2.493   4.423   0.105  0.00  0.00    +0.149 HD
BRANCH   9  17
ATOM     17  C   UNL     1      -0.585   1.289  -1.466  0.00  0.00    +0.339 C 
ATOM     18  O   UNL     1      -0.719   0.208  -2.009  0.00  0.00    -0.245 OA
BRANCH  17  19
ATOM     19  O   UNL     1      -1.670   2.039  -1.179  0.00  0.00    -0.459 OA
BRANCH  19  20
ATOM     20  C   UNL     1      -2.944   1.501  -1.540  0.00  0.00    +0.171 C 
ATOM     21  C   UNL     1      -4.007   2.010  -0.564  0.00  0.00    +0.052 C 
ATOM     22  C   UNL     1      -3.301   1.945  -2.960  0.00  0.00    +0.052 C 
ENDBRANCH  19  20
ENDBRANCH  17  19
ENDBRANCH   9  17
ENDBRANCH   1  10
BRANCH   4  23
ATOM     23  N   UNL     1      -2.110   3.547   4.211  0.00  0.00    -0.282 N 
ATOM     24  C   UNL     1      -1.482   3.675   5.396  0.00  0.00    +0.248 C 
ATOM     25  O   UNL     1      -0.274   3.804   5.433  0.00  0.00    -0.270 OA
ATOM     26  H   UNL     1      -3.079   3.523   4.175  0.00  0.00    +0.155 HD
BRANCH  24  27
ATOM     27  C   UNL     1      -2.262   3.658   6.652  0.00  0.00    +0.038 A 
ATOM     28  C   UNL     1      -3.650   3.510   6.613  0.00  0.00    +0.013 A 
ATOM     29  C   UNL     1      -4.372   3.496   7.788  0.00  0.00    +0.001 A 
ATOM     30  C   UNL     1      -3.723   3.627   9.004  0.00  0.00    +0.012 A 
ATOM     31  C   UNL     1      -2.349   3.774   9.049  0.00  0.00    +0.056 A 
ATOM     32  C   UNL     1      -1.614   3.784   7.881  0.00  0.00    +0.025 A 
BRANCH  31  33
ATOM     33  C   UNL     1      -1.651   3.916  10.377  0.00  0.00    +0.417 C 
ATOM     34  F   UNL     1      -2.597   3.871  11.408  0.00  0.00    -0.166 F 
ATOM     35  F   UNL     1      -0.736   2.871  10.538  0.00  0.00    -0.166 F 
ATOM     36  F   UNL     1      -0.974   5.140  10.420  0.00  0.00    -0.166 F 
ENDBRANCH  31  33
ENDBRANCH  24  27
ENDBRANCH   4  23
TORSDOF 7
