REMARK  Name = ZINC04889291
REMARK  9 active torsions:
REMARK  status: ('A' for Active; 'I' for Inactive)
REMARK    1  A    between atoms: C_1  and  O_2
REMARK    2  A    between atoms: O_2  and  C_3
REMARK    3  A    between atoms: C_6  and  C_9
REMARK    4  A    between atoms: C_16  and  N_32
REMARK    5  A    between atoms: C_17  and  C_30
REMARK    6  A    between atoms: C_18  and  C_20
REMARK    7  A    between atoms: C_23  and  C_26
REMARK    8  A    between atoms: C_26  and  O_28
REMARK    9  A    between atoms: O_28  and  C_29
REMARK                            x       y       z     vdW  Elec       q    Type
REMARK                         _______ _______ _______ _____ _____    ______ ____
ROOT
ATOM      1  C   UNL     1       2.522  -2.735  -4.703  0.00  0.00    +0.100 A 
ATOM      2  C   UNL     1       3.372  -3.813  -4.438  0.00  0.00    +0.054 A 
ATOM      3  C   UNL     1       3.907  -4.230  -5.622  0.00  0.00    +0.223 A 
ATOM      4  N   UNL     1       3.409  -3.442  -6.598  0.00  0.00    -0.246 N 
ATOM      5  H   UNL     1       3.613  -3.508  -7.544  0.00  0.00    +0.192 HD
ATOM      6  N   UNL     1       2.539  -2.514  -6.004  0.00  0.00    -0.171 NA
ATOM      7  O   UNL     1       4.781  -5.264  -5.707  0.00  0.00    -0.423 OA
ATOM      8  C   UNL     1       5.333  -5.711  -4.561  0.00  0.00    +0.200 C 
ATOM      9  C   UNL     1       4.884  -5.379  -3.330  0.00  0.00    +0.098 C 
ATOM     10  C   UNL     1       3.701  -4.466  -3.121  0.00  0.00    +0.102 C 
ENDROOT
BRANCH   1  14
ATOM     11  C   UNL     1       0.264  -0.561  -1.827  0.00  0.00    +0.120 A 
ATOM     12  C   UNL     1       1.575  -0.924  -1.548  0.00  0.00    +0.046 A 
ATOM     13  C   UNL     1       2.309  -1.629  -2.479  0.00  0.00    +0.013 A 
ATOM     14  C   UNL     1       1.734  -1.977  -3.700  0.00  0.00    +0.003 A 
ATOM     15  C   UNL     1       0.418  -1.612  -3.976  0.00  0.00    +0.013 A 
ATOM     16  C   UNL     1      -0.313  -0.911  -3.040  0.00  0.00    +0.046 A 
BRANCH  11  18
ATOM     17  C   UNL     1       0.199   0.461   0.319  0.00  0.00    +0.277 C 
ATOM     18  O   UNL     1      -0.457   0.134  -0.908  0.00  0.00    -0.495 OA
ENDBRANCH  11  18
ENDBRANCH   1  14
BRANCH  10  19
ATOM     19  C   UNL     1       2.519  -5.268  -2.642  0.00  0.00    -0.035 A 
ATOM     20  C   UNL     1       1.980  -6.253  -3.451  0.00  0.00    +0.005 A 
ATOM     21  C   UNL     1       0.898  -6.990  -3.019  0.00  0.00    +0.015 A 
ATOM     22  C   UNL     1       0.346  -6.742  -1.761  0.00  0.00    +0.059 A 
ATOM     23  C   UNL     1       0.894  -5.747  -0.949  0.00  0.00    +0.015 A 
ATOM     24  C   UNL     1       1.980  -5.020  -1.391  0.00  0.00    +0.005 A 
BRANCH  22  25
ATOM     25  C   UNL     1      -0.814  -7.527  -1.291  0.00  0.00    +0.339 C 
ATOM     26  O   UNL     1      -1.289  -8.392  -2.000  0.00  0.00    -0.245 OA
BRANCH  25  27
ATOM     27  O   UNL     1      -1.344  -7.285  -0.077  0.00  0.00    -0.464 OA
ATOM     28  C   UNL     1      -2.464  -8.082   0.313  0.00  0.00    +0.280 C 
ENDBRANCH  25  27
ENDBRANCH  22  25
ENDBRANCH  10  19
BRANCH   8  29
ATOM     29  N   UNL     1       6.414  -6.552  -4.649  0.00  0.00    -0.328 N 
ATOM     30  H   UNL     1       6.760  -6.808  -5.519  0.00  0.00    +0.145 HD
ATOM     31  H   UNL     1       6.833  -6.890  -3.842  0.00  0.00    +0.145 HD
ENDBRANCH   8  29
BRANCH   9  32
ATOM     32  C   UNL     1       5.554  -5.913  -2.184  0.00  0.00    +0.101 C 
ATOM     33  N   UNL     1       6.086  -6.337  -1.274  0.00  0.00    -0.191 NA
ENDBRANCH   9  32
TORSDOF 7
