REMARK  Name = ZINC09447280
REMARK  8 active torsions:
REMARK  status: ('A' for Active; 'I' for Inactive)
REMARK    1  A    between atoms: C_1  and  C_2
REMARK    2  A    between atoms: C_5  and  C_8
REMARK    3  A    between atoms: C_10  and  C_14
REMARK    4  A    between atoms: C_17  and  S_20
REMARK    5  A    between atoms: N_18  and  N_19
REMARK    6  A    between atoms: S_20  and  C_21
REMARK    7  A    between atoms: C_21  and  C_22
REMARK    8  A    between atoms: N_24  and  C_25
REMARK                            x       y       z     vdW  Elec       q    Type
REMARK                         _______ _______ _______ _____ _____    ______ ____
ROOT
ATOM      1  C   UNL     1       0.161  -7.603   1.476  0.00  0.00    +0.202 A 
ATOM      2  N   UNL     1       0.153  -7.627   2.788  0.00  0.00    -0.125 NA
ATOM      3  N   UNL     1       0.159  -8.843   3.205  0.00  0.00    -0.120 NA
ATOM      4  C   UNL     1       0.171  -9.670   2.184  0.00  0.00    +0.209 A 
ATOM      5  N   UNL     1       0.168  -8.910   1.048  0.00  0.00    -0.222 N 
ENDROOT
BRANCH   1   8
ATOM      6  C   UNL     1       0.149  -4.254  -0.025  0.00  0.00    +0.066 A 
ATOM      7  C   UNL     1       0.150  -5.065   1.071  0.00  0.00    +0.061 A 
ATOM      8  C   UNL     1       0.157  -6.397   0.619  0.00  0.00    +0.132 A 
ATOM      9  N   UNL     1       0.160  -6.387  -0.699  0.00  0.00    -0.170 NA
ATOM     10  N   UNL     1       0.150  -5.054  -1.130  0.00  0.00    -0.276 N 
ATOM     11  H   UNL     1       0.146  -4.753  -2.052  0.00  0.00    +0.189 HD
BRANCH   6  16
ATOM     12  C   UNL     1       0.118   1.502   0.004  0.00  0.00    +0.044 C 
ATOM     13  C   UNL     1       0.127  -0.005  -0.004  0.00  0.00    -0.050 A 
ATOM     14  C   UNL     1       0.128  -0.688  -1.207  0.00  0.00    +0.004 A 
ATOM     15  C   UNL     1       0.135  -2.068  -1.220  0.00  0.00    +0.010 A 
ATOM     16  C   UNL     1       0.142  -2.774  -0.018  0.00  0.00    -0.000 A 
ATOM     17  C   UNL     1       0.141  -2.080   1.192  0.00  0.00    +0.010 A 
ATOM     18  C   UNL     1       0.139  -0.700   1.193  0.00  0.00    +0.004 A 
ENDBRANCH   6  16
ENDBRANCH   1   8
BRANCH   5  19
ATOM     19  N   UNL     1       0.173  -9.356  -0.243  0.00  0.00    -0.295 N 
ATOM     20  H   UNL     1       1.116  -9.470  -0.583  0.00  0.00    +0.163 HD
ATOM     21  H   UNL     1      -0.349 -10.215  -0.331  0.00  0.00    +0.163 HD
ENDBRANCH   5  19
BRANCH   4  22
ATOM     22  S   UNL     1       0.183 -11.430   2.264  0.00  0.00    -0.075 S 
BRANCH  22  23
ATOM     23  C   UNL     1       0.174 -11.788   4.042  0.00  0.00    +0.173 C 
BRANCH  23  24
ATOM     24  C   UNL     1       0.183 -13.280   4.254  0.00  0.00    +0.228 C 
ATOM     25  O   UNL     1       0.195 -14.028   3.299  0.00  0.00    -0.275 OA
ATOM     26  N   UNL     1       0.178 -13.784   5.504  0.00  0.00    -0.283 N 
ATOM     27  H   UNL     1       0.234 -13.187   6.267  0.00  0.00    +0.155 HD
BRANCH  26  28
ATOM     28  C   UNL     1       0.092 -15.168   5.702  0.00  0.00    +0.069 A 
ATOM     29  C   UNL     1       0.700 -16.037   4.807  0.00  0.00    +0.027 A 
ATOM     30  C   UNL     1       0.614 -17.401   5.004  0.00  0.00    +0.017 A 
ATOM     31  C   UNL     1      -0.077 -17.903   6.092  0.00  0.00    +0.021 A 
ATOM     32  C   UNL     1      -0.684 -17.041   6.987  0.00  0.00    +0.055 A 
ATOM     33  C   UNL     1      -0.597 -15.673   6.798  0.00  0.00    +0.146 A 
ATOM     34  F   UNL     1      -1.185 -14.831   7.676  0.00  0.00    -0.204 F 
ATOM     35 BR   UNL     1      -0.192 -19.772   6.357  0.00  0.00    -0.050 Br
ENDBRANCH  26  28
ENDBRANCH  23  24
ENDBRANCH  22  23
ENDBRANCH   4  22
TORSDOF 7
