REMARK  Name = ZINC57522904
REMARK  7 active torsions:
REMARK  status: ('A' for Active; 'I' for Inactive)
REMARK    1  A    between atoms: C_4  and  C_7
REMARK    2  A    between atoms: C_14  and  S_21
REMARK    3  A    between atoms: N_15  and  C_18
REMARK    4  A    between atoms: S_21  and  C_22
REMARK    5  A    between atoms: C_22  and  C_23
REMARK    6  A    between atoms: N_25  and  C_26
REMARK    7  A    between atoms: C_26  and  C_27
REMARK                            x       y       z     vdW  Elec       q    Type
REMARK                         _______ _______ _______ _____ _____    ______ ____
ROOT
ATOM      1  C   UNL     1       3.692  -0.698  -0.047  0.00  0.00    +0.026 A 
ATOM      2  C   UNL     1       4.696  -0.539  -0.954  0.00  0.00    +0.093 A 
ATOM      3  N   UNL     1       5.690  -1.426  -0.693  0.00  0.00    -0.355 N 
ATOM      4  H   UNL     1       6.511  -1.506  -1.202  0.00  0.00    +0.166 HD
ATOM      5  C   UNL     1       5.360  -2.195   0.402  0.00  0.00    +0.131 A 
ATOM      6  C   UNL     1       4.106  -1.772   0.856  0.00  0.00    +0.104 A 
ATOM      7  N   UNL     1       3.549  -2.361   1.928  0.00  0.00    -0.221 NA
ATOM      8  C   UNL     1       4.168  -3.332   2.562  0.00  0.00    +0.173 A 
ATOM      9  N   UNL     1       5.394  -3.782   2.165  0.00  0.00    -0.283 N 
ATOM     10  C   UNL     1       6.008  -3.240   1.091  0.00  0.00    +0.279 A 
ATOM     11  O   UNL     1       7.104  -3.636   0.733  0.00  0.00    -0.265 OA
ENDROOT
BRANCH   1  15
ATOM     12  C   UNL     1       0.066   1.514   0.135  0.00  0.00    +0.000 A 
ATOM     13  C   UNL     1       1.275   2.180   0.037  0.00  0.00    +0.001 A 
ATOM     14  C   UNL     1       2.455   1.467  -0.023  0.00  0.00    +0.008 A 
ATOM     15  C   UNL     1       2.428   0.074   0.017  0.00  0.00    -0.014 A 
ATOM     16  C   UNL     1       1.207  -0.591   0.116  0.00  0.00    +0.008 A 
ATOM     17  C   UNL     1       0.033   0.132   0.174  0.00  0.00    +0.001 A 
ENDBRANCH   1  15
BRANCH   9  18
ATOM     18  C   UNL     1       6.045  -4.866   2.905  0.00  0.00    +0.093 C 
ATOM     19  C   UNL     1       6.645  -6.015   2.091  0.00  0.00    +0.027 C 
ATOM     20  C   UNL     1       5.363  -6.235   2.897  0.00  0.00    +0.027 C 
ENDBRANCH   9  18
BRANCH   8  21
ATOM     21  S   UNL     1       3.395  -4.071   3.963  0.00  0.00    -0.078 S 
BRANCH  21  22
ATOM     22  C   UNL     1       1.823  -3.179   4.118  0.00  0.00    +0.173 C 
BRANCH  22  23
ATOM     23  C   UNL     1       1.052  -3.720   5.295  0.00  0.00    +0.224 C 
ATOM     24  O   UNL     1       1.517  -4.619   5.962  0.00  0.00    -0.275 OA
ATOM     25  N   UNL     1      -0.154  -3.205   5.604  0.00  0.00    -0.311 N 
ATOM     26  H   UNL     1      -0.526  -2.486   5.070  0.00  0.00    +0.149 HD
BRANCH  25  27
ATOM     27  C   UNL     1      -0.903  -3.731   6.748  0.00  0.00    +0.139 C 
BRANCH  27  28
ATOM     28  C   UNL     1      -2.209  -2.990   6.877  0.00  0.00    -0.030 A 
ATOM     29  C   UNL     1      -2.280  -1.844   7.647  0.00  0.00    +0.006 A 
ATOM     30  C   UNL     1      -3.477  -1.163   7.766  0.00  0.00    +0.020 A 
ATOM     31  C   UNL     1      -4.605  -1.630   7.114  0.00  0.00    +0.041 A 
ATOM     32  C   UNL     1      -4.534  -2.777   6.344  0.00  0.00    +0.020 A 
ATOM     33  C   UNL     1      -3.334  -3.453   6.222  0.00  0.00    +0.006 A 
ATOM     34 CL   UNL     1      -6.109  -0.776   7.263  0.00  0.00    -0.084 Cl
ENDBRANCH  27  28
ENDBRANCH  25  27
ENDBRANCH  22  23
ENDBRANCH  21  22
ENDBRANCH   8  21
TORSDOF 7
