REMARK  Name = ZINC09364878
REMARK  9 active torsions:
REMARK  status: ('A' for Active; 'I' for Inactive)
REMARK    1  A    between atoms: C_1  and  O_2
REMARK    2  A    between atoms: O_2  and  C_3
REMARK    3  A    between atoms: C_6  and  C_9
REMARK    4  A    between atoms: C_9  and  C_11
REMARK    5  A    between atoms: C_9  and  N_60
REMARK    6  A    between atoms: C_11  and  N_12
REMARK    7  A    between atoms: C_13  and  C_15
REMARK    8  A    between atoms: C_18  and  N_21
REMARK    9  A    between atoms: C_22  and  C_24
REMARK                            x       y       z     vdW  Elec       q    Type
REMARK                         _______ _______ _______ _____ _____    ______ ____
ROOT
ATOM      1  N   UNL     1       1.003  -0.246   2.272  0.00  0.00    -0.313 N 
ATOM      2  C   UNL     1       0.988  -0.404   3.610  0.00  0.00    +0.244 C 
ATOM      3  O   UNL     1      -0.014  -0.816   4.162  0.00  0.00    -0.270 OA
ATOM      4  H   UNL     1       1.802   0.083   1.831  0.00  0.00    +0.149 HD
ENDROOT
BRANCH   2   5
ATOM      5  C   UNL     1       2.187  -0.078   4.406  0.00  0.00    +0.037 A 
ATOM      6  C   UNL     1       3.342   0.390   3.772  0.00  0.00    +0.015 A 
ATOM      7  C   UNL     1       4.457   0.698   4.517  0.00  0.00    +0.024 A 
ATOM      8  C   UNL     1       4.440   0.534   5.899  0.00  0.00    +0.034 A 
ATOM      9  C   UNL     1       3.294   0.063   6.533  0.00  0.00    +0.024 A 
ATOM     10  C   UNL     1       2.173  -0.242   5.794  0.00  0.00    +0.015 A 
BRANCH   8  11
ATOM     11  N   UNL     1       5.572   0.842   6.650  0.00  0.00    -0.279 N 
ATOM     12  C   UNL     1       5.861   0.129   7.757  0.00  0.00    +0.284 C 
ATOM     13  O   UNL     1       5.183  -0.837   8.053  0.00  0.00    -0.266 OA
ATOM     14  H   UNL     1       6.153   1.569   6.376  0.00  0.00    +0.155 HD
BRANCH  12  15
ATOM     15  C   UNL     1       6.993   0.518   8.604  0.00  0.00    +0.189 A 
ATOM     16  C   UNL     1       7.393  -0.113   9.748  0.00  0.00    +0.054 A 
ATOM     17  C   UNL     1       8.508   0.592  10.228  0.00  0.00    +0.042 A 
ATOM     18  C   UNL     1       8.736   1.609   9.368  0.00  0.00    +0.196 A 
ATOM     19  O   UNL     1       7.824   1.558   8.388  0.00  0.00    -0.458 OA
ENDBRANCH  12  15
ENDBRANCH   8  11
ENDBRANCH   2   5
BRANCH   1  20
ATOM     20  C   UNL     1      -0.188  -0.570   1.482  0.00  0.00    +0.094 C 
BRANCH  20  21
ATOM     21  C   UNL     1       0.124  -0.395  -0.005  0.00  0.00    -0.020 C 
BRANCH  21  27
ATOM     22  C   UNL     1      -1.382  -2.224  -0.508  0.00  0.00    -0.049 C 
ATOM     23  C   UNL     1      -2.624  -2.614  -1.313  0.00  0.00    +0.141 C 
ATOM     24  O   UNL     1      -2.372  -2.400  -2.704  0.00  0.00    -0.383 OA
ATOM     25  C   UNL     1      -2.029  -1.050  -3.026  0.00  0.00    +0.141 C 
ATOM     26  C   UNL     1      -0.780  -0.644  -2.239  0.00  0.00    -0.049 C 
ATOM     27  N   UNL     1      -1.054  -0.812  -0.796  0.00  0.00    +0.388 N 
ATOM     28  H   UNL     1      -1.855  -0.224  -0.538  0.00  0.00    -0.081 HD
ENDBRANCH  21  27
BRANCH  21  32
ATOM     29  C   UNL     1       0.951   3.720  -0.812  0.00  0.00    +0.120 A 
ATOM     30  C   UNL     1       1.994   2.817  -0.665  0.00  0.00    +0.046 A 
ATOM     31  C   UNL     1       1.724   1.488  -0.403  0.00  0.00    +0.005 A 
ATOM     32  C   UNL     1       0.415   1.056  -0.290  0.00  0.00    -0.059 A 
ATOM     33  C   UNL     1      -0.626   1.953  -0.443  0.00  0.00    +0.005 A 
ATOM     34  C   UNL     1      -0.361   3.284  -0.698  0.00  0.00    +0.046 A 
BRANCH  29  36
ATOM     35  C   UNL     1       0.091   5.900  -1.210  0.00  0.00    +0.277 C 
ATOM     36  O   UNL     1       1.214   5.028  -1.070  0.00  0.00    -0.495 OA
ENDBRANCH  29  36
ENDBRANCH  21  32
ENDBRANCH  20  21
ENDBRANCH   1  20
TORSDOF 8
