REMARK  Name = ZINC35190786
REMARK  11 active torsions:
REMARK  status: ('A' for Active; 'I' for Inactive)
REMARK    1  A    between atoms: C_1  and  C_2
REMARK    2  A    between atoms: C_2  and  C_32
REMARK    3  A    between atoms: C_7  and  C_11
REMARK    4  A    between atoms: C_11  and  S_12
REMARK    5  A    between atoms: S_12  and  N_15
REMARK    6  A    between atoms: N_15  and  C_16
REMARK    7  A    between atoms: C_16  and  C_17
REMARK    8  A    between atoms: C_17  and  C_18
REMARK    9  A    between atoms: C_18  and  C_19
REMARK   10  A    between atoms: C_19  and  N_20
REMARK   11  A    between atoms: N_20  and  C_21
REMARK                            x       y       z     vdW  Elec       q    Type
REMARK                         _______ _______ _______ _____ _____    ______ ____
ROOT
ATOM      1  C   UNL     1       4.896   0.815   3.018  0.00  0.00    +0.105 C 
ENDROOT
BRANCH   1   2
ATOM      2  N   UNL     1       4.516  -0.593   2.873  0.00  0.00    -0.194 NA
ATOM      3  H   UNL     1       5.201  -1.273   2.782  0.00  0.00    +0.148 HD
BRANCH   2   4
ATOM      4  S   UNL     1       2.917  -1.021   2.863  0.00  0.00    +0.030 S 
ATOM      5  O   UNL     1       2.368  -0.402   4.019  0.00  0.00    -0.158 OA
ATOM      6  O   UNL     1       2.921  -2.436   2.733  0.00  0.00    -0.158 OA
BRANCH   4   7
ATOM      7  C   UNL     1       2.238  -0.258   1.364  0.00  0.00    +0.200 C 
BRANCH   7  13
ATOM      8  C   UNL     1      -0.019   1.526   0.010  0.00  0.00    +0.012 C 
ATOM      9  C   UNL     1       0.002  -0.004   0.002  0.00  0.00    -0.018 C 
ATOM     10  C   UNL     1      -1.400  -0.616   0.356  0.00  0.00    +0.003 C 
ATOM     11  C   UNL     1      -1.029  -2.124   0.492  0.00  0.00    +0.005 C 
ATOM     12  C   UNL     1       0.399  -2.119   1.085  0.00  0.00    +0.017 C 
ATOM     13  C   UNL     1       0.749  -0.591   1.251  0.00  0.00    +0.055 C 
ATOM     14  C   UNL     1      -0.152  -0.089   2.388  0.00  0.00    +0.142 C 
ATOM     15  O   UNL     1       0.188   0.246   3.498  0.00  0.00    -0.297 OA
ATOM     16  C   UNL     1      -1.563  -0.104   1.820  0.00  0.00    +0.079 C 
ATOM     17  C   UNL     1       0.557  -0.556  -1.312  0.00  0.00    +0.012 C 
ENDBRANCH   7  13
ENDBRANCH   4   7
ENDBRANCH   2   4
ENDBRANCH   1   2
BRANCH   1  18
ATOM     18  C   UNL     1       6.383   0.907   3.369  0.00  0.00    +0.018 C 
BRANCH  18  19
ATOM     19  C   UNL     1       6.780   2.377   3.521  0.00  0.00    +0.020 C 
BRANCH  19  20
ATOM     20  C   UNL     1       8.266   2.470   3.872  0.00  0.00    +0.101 C 
BRANCH  20  21
ATOM     21  N   UNL     1       8.647   3.877   4.017  0.00  0.00    -0.343 N 
ATOM     22  H   UNL     1       7.984   4.574   3.890  0.00  0.00    +0.146 HD
BRANCH  21  23
ATOM     23  C   UNL     1       9.954   4.213   4.336  0.00  0.00    +0.038 A 
ATOM     24  C   UNL     1      10.919   3.235   4.516  0.00  0.00    +0.041 A 
ATOM     25  C   UNL     1      12.219   3.602   4.834  0.00  0.00    +0.085 A 
ATOM     26  N   UNL     1      12.570   4.860   4.972  0.00  0.00    -0.361 N 
ATOM     27  C   UNL     1      11.690   5.856   4.813  0.00  0.00    +0.050 A 
ATOM     28  C   UNL     1      10.345   5.565   4.482  0.00  0.00    +0.019 A 
ATOM     29  C   UNL     1       9.429   6.612   4.311  0.00  0.00    +0.013 A 
ATOM     30  C   UNL     1       9.844   7.901   4.460  0.00  0.00    +0.021 A 
ATOM     31  C   UNL     1      11.169   8.192   4.780  0.00  0.00    +0.043 A 
ATOM     32  C   UNL     1      12.082   7.197   4.965  0.00  0.00    +0.046 A 
ATOM     33 CL   UNL     1      11.661   9.847   4.961  0.00  0.00    -0.083 Cl
ATOM     34  H   UNL     1      13.489   5.073   5.195  0.00  0.00    +0.165 HD
ENDBRANCH  21  23
ENDBRANCH  20  21
ENDBRANCH  19  20
ENDBRANCH  18  19
ENDBRANCH   1  18
TORSDOF 9
