REMARK  Name = ZINC59410950
REMARK  11 active torsions:
REMARK  status: ('A' for Active; 'I' for Inactive)
REMARK    1  A    between atoms: C_1  and  C_2
REMARK    2  A    between atoms: C_5  and  C_35
REMARK    3  A    between atoms: N_8  and  C_10
REMARK    4  A    between atoms: C_10  and  C_11
REMARK    5  A    between atoms: C_14  and  C_17
REMARK    6  A    between atoms: C_17  and  N_18
REMARK    7  A    between atoms: C_19  and  C_21
REMARK    8  A    between atoms: C_21  and  C_22
REMARK    9  A    between atoms: C_22  and  N_23
REMARK   10  A    between atoms: N_23  and  S_24
REMARK   11  A    between atoms: S_24  and  C_27
REMARK                            x       y       z     vdW  Elec       q    Type
REMARK                         _______ _______ _______ _____ _____    ______ ____
ROOT
ATOM      1  N   UNL     1      -0.844   2.866   6.580  0.00  0.00    -0.311 N 
ATOM      2  C   UNL     1      -1.586   3.542   7.480  0.00  0.00    +0.215 C 
ATOM      3  O   UNL     1      -1.330   3.458   8.662  0.00  0.00    -0.276 OA
ATOM      4  H   UNL     1      -1.049   2.933   5.634  0.00  0.00    +0.149 HD
ENDROOT
BRANCH   1   5
ATOM      5  C   UNL     1       0.272   2.030   7.030  0.00  0.00    +0.139 C 
BRANCH   5   9
ATOM      6  C   UNL     1       2.146   0.211   3.650  0.00  0.00    -0.064 A 
ATOM      7  C   UNL     1       2.582   1.442   4.103  0.00  0.00    +0.002 A 
ATOM      8  C   UNL     1       1.975   2.031   5.197  0.00  0.00    +0.005 A 
ATOM      9  C   UNL     1       0.932   1.388   5.838  0.00  0.00    -0.030 A 
ATOM     10  C   UNL     1       0.496   0.158   5.384  0.00  0.00    +0.005 A 
ATOM     11  C   UNL     1       1.100  -0.429   4.288  0.00  0.00    +0.002 A 
BRANCH   6  12
ATOM     12  C   UNL     1       2.808  -0.431   2.458  0.00  0.00    -0.043 C 
BRANCH  12  18
ATOM     13  C   UNL     1      -0.019   1.526   0.010  0.00  0.00    +0.005 C 
ATOM     14  C   UNL     1       0.002  -0.004   0.002  0.00  0.00    -0.031 C 
ATOM     15  C   UNL     1       0.721  -0.499  -1.257  0.00  0.00    +0.003 C 
ATOM     16  C   UNL     1       2.177  -0.027  -1.220  0.00  0.00    -0.031 C 
ATOM     17  C   UNL     1       2.839  -0.534   0.063  0.00  0.00    -0.075 C 
ATOM     18  N   UNL     1       2.123  -0.005   1.230  0.00  0.00    +0.383 N 
ATOM     19  C   UNL     1       0.744  -0.512   1.240  0.00  0.00    -0.075 C 
ATOM     20  C   UNL     1       2.924  -0.581  -2.434  0.00  0.00    +0.005 C 
ATOM     21  H   UNL     1       2.109   1.003   1.187  0.00  0.00    -0.081 HD
ENDBRANCH  12  18
ENDBRANCH   6  12
ENDBRANCH   5   9
ENDBRANCH   1   5
BRANCH   2  22
ATOM     22  C   UNL     1      -2.733   4.401   7.016  0.00  0.00    +0.112 C 
BRANCH  22  23
ATOM     23  C   UNL     1      -3.404   5.053   8.228  0.00  0.00    +0.115 C 
BRANCH  23  24
ATOM     24  N   UNL     1      -4.520   5.888   7.777  0.00  0.00    -0.189 NA
ATOM     25  H   UNL     1      -4.596   6.133   6.842  0.00  0.00    +0.148 HD
BRANCH  24  26
ATOM     26  S   UNL     1      -5.651   6.416   8.866  0.00  0.00    +0.059 S 
ATOM     27  O   UNL     1      -6.574   7.215   8.137  0.00  0.00    -0.153 OA
ATOM     28  O   UNL     1      -6.054   5.279   9.616  0.00  0.00    -0.153 OA
BRANCH  26  29
ATOM     29  C   UNL     1      -4.829   7.496   9.989  0.00  0.00    +0.108 A 
ATOM     30  C   UNL     1      -4.251   6.987  11.138  0.00  0.00    +0.031 A 
ATOM     31  C   UNL     1      -3.606   7.832  12.021  0.00  0.00    +0.043 A 
ATOM     32  C   UNL     1      -3.536   9.189  11.756  0.00  0.00    +0.159 A 
ATOM     33  C   UNL     1      -4.115   9.699  10.603  0.00  0.00    +0.160 A 
ATOM     34  C   UNL     1      -4.756   8.849   9.719  0.00  0.00    +0.069 A 
ATOM     35  F   UNL     1      -4.048  11.023  10.342  0.00  0.00    -0.202 F 
ATOM     36  F   UNL     1      -2.906  10.015  12.619  0.00  0.00    -0.202 F 
ENDBRANCH  26  29
ENDBRANCH  24  26
ENDBRANCH  23  24
ENDBRANCH  22  23
ENDBRANCH   2  22
TORSDOF 9
