REMARK  Name = ZINC64755672
REMARK  8 active torsions:
REMARK  status: ('A' for Active; 'I' for Inactive)
REMARK    1  A    between atoms: C_1  and  C_2
REMARK    2  A    between atoms: C_5  and  C_7
REMARK    3  A    between atoms: C_8  and  C_9
REMARK    4  A    between atoms: N_11  and  C_12
REMARK    5  A    between atoms: C_18  and  O_30
REMARK    6  A    between atoms: C_19  and  C_21
REMARK    7  A    between atoms: N_23  and  C_24
REMARK    8  A    between atoms: O_30  and  C_31
REMARK                            x       y       z     vdW  Elec       q    Type
REMARK                         _______ _______ _______ _____ _____    ______ ____
ROOT
ATOM      1  C   UNL     1       6.161  -4.889  -0.204  0.00  0.00    +0.035 A 
ATOM      2  C   UNL     1       5.682  -6.184  -0.018  0.00  0.00    +0.027 A 
ATOM      3  C   UNL     1       6.553  -7.237   0.150  0.00  0.00    +0.049 A 
ATOM      4  C   UNL     1       7.926  -7.017   0.135  0.00  0.00    +0.140 A 
ATOM      5  C   UNL     1       8.412  -5.711  -0.053  0.00  0.00    +0.064 A 
ATOM      6  C   UNL     1       7.523  -4.649  -0.227  0.00  0.00    +0.038 A 
ATOM      7  C   UNL     1       9.874  -5.820  -0.017  0.00  0.00    +0.178 A 
ATOM      8  C   UNL     1      10.147  -7.144   0.183  0.00  0.00    +0.232 A 
ATOM      9  O   UNL     1       8.989  -7.836   0.271  0.00  0.00    -0.446 OA
ENDROOT
BRANCH   1  12
ATOM     10  C   UNL     1       4.095  -3.821   0.300  0.00  0.00    +0.241 C 
ATOM     11  O   UNL     1       3.784  -4.774   0.992  0.00  0.00    -0.270 OA
ATOM     12  N   UNL     1       5.262  -3.829  -0.373  0.00  0.00    -0.282 N 
ATOM     13  H   UNL     1       5.480  -3.100  -0.975  0.00  0.00    +0.155 HD
BRANCH  10  15
ATOM     14  C   UNL     1       2.056  -2.697   0.883  0.00  0.00    +0.051 C 
ATOM     15  C   UNL     1       3.230  -2.705   0.205  0.00  0.00    +0.071 C 
BRANCH  14  20
ATOM     16  C   UNL     1       0.248   1.730  -0.439  0.00  0.00    +0.086 C 
ATOM     17  C   UNL     1       0.377   0.377   0.212  0.00  0.00    +0.103 A 
ATOM     18  C   UNL     1      -0.531  -0.185   1.041  0.00  0.00    +0.045 A 
ATOM     19  C   UNL     1      -0.028  -1.439   1.419  0.00  0.00    +0.049 A 
ATOM     20  C   UNL     1       1.190  -1.580   0.787  0.00  0.00    +0.128 A 
ATOM     21  O   UNL     1       1.408  -0.466   0.058  0.00  0.00    -0.461 OA
ENDBRANCH  14  20
ENDBRANCH  10  15
ENDBRANCH   1  12
BRANCH   8  22
ATOM     22  C   UNL     1      11.485  -7.723   0.287  0.00  0.00    +0.287 C 
ATOM     23  O   UNL     1      12.467  -7.008   0.193  0.00  0.00    -0.266 OA
ATOM     24  N   UNL     1      11.633  -9.047   0.486  0.00  0.00    -0.279 N 
ATOM     25  H   UNL     1      10.855  -9.627   0.486  0.00  0.00    +0.155 HD
BRANCH  24  26
ATOM     26  C   UNL     1      12.907  -9.586   0.691  0.00  0.00    +0.034 A 
ATOM     27  C   UNL     1      13.209 -10.858   0.221  0.00  0.00    +0.023 A 
ATOM     28  C   UNL     1      14.468 -11.386   0.425  0.00  0.00    +0.002 A 
ATOM     29  C   UNL     1      15.428 -10.652   1.097  0.00  0.00    +0.000 A 
ATOM     30  C   UNL     1      15.130  -9.385   1.566  0.00  0.00    +0.002 A 
ATOM     31  C   UNL     1      13.874  -8.848   1.361  0.00  0.00    +0.023 A 
ENDBRANCH  24  26
ENDBRANCH   8  22
BRANCH   7  32
ATOM     32  O   UNL     1      10.772  -4.813  -0.156  0.00  0.00    -0.491 OA
ATOM     33  C   UNL     1      11.185  -4.144   1.037  0.00  0.00    +0.277 C 
ENDBRANCH   7  32
TORSDOF 6
