REMARK  Name = ZINC12655062
REMARK  11 active torsions:
REMARK  status: ('A' for Active; 'I' for Inactive)
REMARK    1  A    between atoms: C_1  and  C_2
REMARK    2  A    between atoms: C_2  and  C_3
REMARK    3  A    between atoms: C_4  and  O_37
REMARK    4  A    between atoms: C_5  and  N_9
REMARK    5  A    between atoms: C_7  and  C_8
REMARK    6  A    between atoms: N_9  and  C_10
REMARK    7  A    between atoms: C_10  and  C_11
REMARK    8  A    between atoms: C_11  and  C_13
REMARK    9  A    between atoms: C_13  and  O_36
REMARK   10  A    between atoms: C_18  and  C_35
REMARK   11  A    between atoms: C_33  and  C_34
REMARK                            x       y       z     vdW  Elec       q    Type
REMARK                         _______ _______ _______ _____ _____    ______ ____
ROOT
ATOM      1  C   UNL     1       5.571   3.191  -1.589  0.00  0.00    +0.131 C 
ATOM      2  C   UNL     1       6.245   2.011  -2.322  0.00  0.00    +0.043 C 
ATOM      3  C   UNL     1       6.461   0.900  -1.277  0.00  0.00    +0.008 C 
ATOM      4  C   UNL     1       5.875   1.438   0.057  0.00  0.00    +0.002 C 
ATOM      5  C   UNL     1       5.986   2.957  -0.124  0.00  0.00    +0.007 C 
ATOM      6  C   UNL     1       5.124   3.722   0.853  0.00  0.00    +0.010 C 
ATOM      7  C   UNL     1       3.674   3.258   0.765  0.00  0.00    +0.005 C 
ATOM      8  C   UNL     1       3.606   1.763   1.115  0.00  0.00    +0.002 C 
ATOM      9  C   UNL     1       4.416   0.966   0.109  0.00  0.00    -0.003 C 
ATOM     10  C   UNL     1       4.436  -0.528   0.420  0.00  0.00    +0.008 C 
ATOM     11  C   UNL     1       3.150  -1.010   1.076  0.00  0.00    +0.032 C 
ATOM     12  C   UNL     1       2.015  -0.100   0.680  0.00  0.00    -0.060 C 
ATOM     13  C   UNL     1       0.960  -0.579   0.029  0.00  0.00    +0.046 C 
ATOM     14  C   UNL     1      -0.140   0.299  -0.369  0.00  0.00    +0.156 C 
ATOM     15  O   UNL     1      -1.106  -0.161  -0.941  0.00  0.00    -0.293 OA
ATOM     16  C   UNL     1      -0.073   1.775  -0.068  0.00  0.00    +0.080 C 
ATOM     17  C   UNL     1       1.397   2.204  -0.006  0.00  0.00    +0.019 C 
ATOM     18  C   UNL     1       2.116   1.357   1.046  0.00  0.00    -0.007 C 
ATOM     19  C   UNL     1       1.468   1.585   2.413  0.00  0.00    +0.016 C 
ATOM     20  C   UNL     1       7.448   3.369   0.059  0.00  0.00    +0.015 C 
ENDROOT
BRANCH   1  21
ATOM     21  C   UNL     1       6.115   4.503  -2.092  0.00  0.00    +0.182 C 
ATOM     22  O   UNL     1       7.190   4.898  -1.708  0.00  0.00    -0.293 OA
BRANCH  21  23
ATOM     23  C   UNL     1       5.318   5.323  -3.074  0.00  0.00    +0.179 C 
BRANCH  23  24
ATOM     24  N   UNL     1       6.058   6.544  -3.404  0.00  0.00    -0.334 N 
ATOM     25  H   UNL     1       6.923   6.711  -3.001  0.00  0.00    +0.147 HD
BRANCH  24  28
ATOM     26  C   UNL     1       5.632   9.525  -5.521  0.00  0.00    +0.060 A 
ATOM     27  C   UNL     1       6.204   8.640  -4.624  0.00  0.00    +0.157 A 
ATOM     28  C   UNL     1       5.516   7.466  -4.300  0.00  0.00    +0.073 A 
ATOM     29  C   UNL     1       4.274   7.244  -4.890  0.00  0.00    +0.047 A 
ATOM     30  C   UNL     1       3.773   8.181  -5.771  0.00  0.00    +0.015 A 
ATOM     31  C   UNL     1       2.430   7.951  -6.415  0.00  0.00    +0.063 C 
ATOM     32  N   UNL     1       4.421   9.329  -6.109  0.00  0.00    -0.359 N 
ATOM     33  H   UNL     1       4.020  10.006  -6.769  0.00  0.00    +0.165 HD
BRANCH  26  35
ATOM     34  C   UNL     1       5.968  11.905  -4.913  0.00  0.00    +0.010 C 
ATOM     35  C   UNL     1       6.363  10.791  -5.885  0.00  0.00    +0.053 C 
ENDBRANCH  26  35
BRANCH  27  36
ATOM     36  O   UNL     1       7.417   8.905  -4.070  0.00  0.00    -0.503 OA
ATOM     37  H   UNL     1       8.165   8.564  -4.580  0.00  0.00    +0.292 HD
ENDBRANCH  27  36
ENDBRANCH  24  28
ENDBRANCH  23  24
ENDBRANCH  21  23
ENDBRANCH   1  21
BRANCH   1  38
ATOM     38  O   UNL     1       4.149   3.149  -1.723  0.00  0.00    -0.380 OA
ATOM     39  H   UNL     1       3.835   3.291  -2.627  0.00  0.00    +0.211 HD
ENDBRANCH   1  38
TORSDOF 7
