REMARK  Name = ZINC04527311
REMARK  7 active torsions:
REMARK  status: ('A' for Active; 'I' for Inactive)
REMARK    1  A    between atoms: C_1  and  C_2
REMARK    2  A    between atoms: C_2  and  C_3
REMARK    3  A    between atoms: C_3  and  C_4
REMARK    4  A    between atoms: C_4  and  N_5
REMARK    5  A    between atoms: N_5  and  C_6
REMARK    6  A    between atoms: C_6  and  C_7
REMARK    7  A    between atoms: N_17  and  C_18
REMARK                            x       y       z     vdW  Elec       q    Type
REMARK                         _______ _______ _______ _____ _____    ______ ____
ROOT
ATOM      1  N   UNL     1       3.562   1.887  -0.022  0.00  0.00    -0.277 N 
ATOM      2  C   UNL     1       4.080   2.325   1.143  0.00  0.00    +0.303 C 
ATOM      3  O   UNL     1       3.633   1.919   2.198  0.00  0.00    -0.253 OA
ATOM      4  N   UNL     1       5.092   3.215   1.138  0.00  0.00    -0.296 N 
ATOM      5  H   UNL     1       5.448   3.540   0.296  0.00  0.00    +0.151 HD
ENDROOT
BRANCH   4   6
ATOM      6  C   UNL     1       5.654   3.692   2.404  0.00  0.00    +0.074 C 
ATOM      7  C   UNL     1       4.821   4.865   2.923  0.00  0.00    +0.022 C 
ATOM      8  C   UNL     1       5.408   5.363   4.245  0.00  0.00    +0.002 C 
ATOM      9  C   UNL     1       6.850   5.822   4.022  0.00  0.00    +0.000 C 
ATOM     10  C   UNL     1       7.684   4.649   3.503  0.00  0.00    +0.002 C 
ATOM     11  C   UNL     1       7.097   4.151   2.181  0.00  0.00    +0.022 C 
ENDBRANCH   4   6
BRANCH   1  12
ATOM     12  C   UNL     1       4.101   2.377  -1.293  0.00  0.00    +0.110 C 
BRANCH  12  13
ATOM     13  C   UNL     1       3.336   3.631  -1.721  0.00  0.00    +0.019 C 
BRANCH  13  15
ATOM     14  C   UNL     1       3.133   5.398  -3.476  0.00  0.00    +0.004 C 
ATOM     15  C   UNL     1       3.898   4.144  -3.049  0.00  0.00    -0.002 C 
ENDBRANCH  13  15
ENDBRANCH  12  13
ENDBRANCH   1  12
BRANCH   1  16
ATOM     16  C   UNL     1       2.462   0.920  -0.017  0.00  0.00    +0.205 C 
BRANCH  16  17
ATOM     17  C   UNL     1       1.147   1.655   0.000  0.00  0.00    +0.236 C 
ATOM     18  O   UNL     1       1.130   2.868   0.007  0.00  0.00    -0.274 OA
ATOM     19  N   UNL     1      -0.011   0.966   0.007  0.00  0.00    -0.263 N 
ATOM     20  C   UNL     1      -1.224   1.644   0.017  0.00  0.00    +0.164 A 
ATOM     21  N   UNL     1      -1.446   2.944   0.031  0.00  0.00    -0.233 NA
ATOM     22  C   UNL     1      -2.673   3.428   0.033  0.00  0.00    +0.120 A 
ATOM     23  C   UNL     1      -3.711   2.556   0.034  0.00  0.00    +0.068 A 
ATOM     24  S   UNL     1      -2.836   0.998   0.021  0.00  0.00    -0.061 S 
ATOM     25  H   UNL     1       0.002  -0.004   0.002  0.00  0.00    +0.157 HD
ENDBRANCH  16  17
ENDBRANCH   1  16
TORSDOF 6
