REMARK  Name = ZINC23077570
REMARK  15 active torsions:
REMARK  status: ('A' for Active; 'I' for Inactive)
REMARK    1  A    between atoms: C_1  and  C_2
REMARK    2  A    between atoms: C_2  and  C_3
REMARK    3  A    between atoms: C_3  and  C_4
REMARK    4  A    between atoms: C_4  and  N_5
REMARK    5  A    between atoms: C_6  and  N_38
REMARK    6  A    between atoms: C_7  and  N_14
REMARK    7  A    between atoms: N_14  and  C_15
REMARK    8  A    between atoms: C_15  and  C_16
REMARK    9  A    between atoms: C_16  and  O_17
REMARK   10  A    between atoms: O_17  and  C_18
REMARK   11  A    between atoms: C_19  and  C_21
REMARK   12  A    between atoms: N_24  and  S_27
REMARK   13  A    between atoms: S_27  and  C_30
REMARK   14  A    between atoms: C_33  and  C_37
REMARK   15  A    between atoms: C_35  and  C_36
REMARK                            x       y       z     vdW  Elec       q    Type
REMARK                         _______ _______ _______ _____ _____    ______ ____
ROOT
ATOM      1  N   UNL     1      -5.750  -2.647   2.268  0.00  0.00    -0.262 N 
ATOM      2  C   UNL     1      -6.776  -3.521   2.326  0.00  0.00    +0.223 C 
ATOM      3  O   UNL     1      -6.997  -4.261   1.391  0.00  0.00    -0.275 OA
ENDROOT
BRANCH   1   6
ATOM      4  N   UNL     1      -6.235   0.119   4.638  0.00  0.00    -0.280 N 
ATOM      5  C   UNL     1      -6.469  -0.754   3.602  0.00  0.00    +0.127 A 
ATOM      6  C   UNL     1      -5.539  -1.736   3.325  0.00  0.00    +0.140 A 
ATOM      7  C   UNL     1      -4.376  -1.812   4.114  0.00  0.00    +0.277 A 
ATOM      8  O   UNL     1      -3.538  -2.669   3.891  0.00  0.00    -0.266 OA
ATOM      9  N   UNL     1      -4.195  -0.932   5.118  0.00  0.00    -0.273 N 
ATOM     10  H   UNL     1      -3.394  -0.983   5.662  0.00  0.00    +0.173 HD
ATOM     11  C   UNL     1      -5.110   0.021   5.370  0.00  0.00    +0.331 A 
ATOM     12  O   UNL     1      -4.920   0.806   6.279  0.00  0.00    -0.246 OA
BRANCH   5  13
ATOM     13  N   UNL     1      -7.615  -0.652   2.851  0.00  0.00    -0.343 N 
ATOM     14  H   UNL     1      -8.292   0.002   3.086  0.00  0.00    +0.144 HD
ATOM     15  H   UNL     1      -7.748  -1.233   2.086  0.00  0.00    +0.144 HD
ENDBRANCH   5  13
BRANCH   4  16
ATOM     16  C   UNL     1      -7.214   1.165   4.943  0.00  0.00    +0.128 C 
BRANCH  16  17
ATOM     17  C   UNL     1      -6.883   2.423   4.137  0.00  0.00    +0.021 C 
BRANCH  17  19
ATOM     18  C   UNL     1      -7.576   4.774   3.650  0.00  0.00    +0.004 C 
ATOM     19  C   UNL     1      -7.906   3.516   4.456  0.00  0.00    -0.002 C 
ENDBRANCH  17  19
ENDBRANCH  16  17
ENDBRANCH   4  16
ENDBRANCH   1   6
BRANCH   2  20
ATOM     20  C   UNL     1      -7.648  -3.579   3.554  0.00  0.00    +0.078 C 
ATOM     21  C   UNL     1      -7.103  -4.635   4.518  0.00  0.00    +0.030 C 
ATOM     22  C   UNL     1      -7.971  -4.666   5.780  0.00  0.00    +0.110 C 
ATOM     23  N   UNL     1      -9.371  -4.875   5.385  0.00  0.00    -0.177 NA
ATOM     24  C   UNL     1      -9.968  -3.970   4.394  0.00  0.00    +0.110 C 
ATOM     25  C   UNL     1      -9.077  -3.946   3.148  0.00  0.00    +0.030 C 
BRANCH  23  26
ATOM     26  S   UNL     1     -10.258  -6.108   6.045  0.00  0.00    +0.061 S 
ATOM     27  O   UNL     1     -11.295  -6.402   5.119  0.00  0.00    -0.153 OA
ATOM     28  O   UNL     1      -9.328  -7.088   6.484  0.00  0.00    -0.153 OA
BRANCH  26  29
ATOM     29  C   UNL     1     -11.040  -5.472   7.490  0.00  0.00    +0.108 A 
ATOM     30  C   UNL     1     -12.418  -5.380   7.547  0.00  0.00    +0.029 A 
ATOM     31  C   UNL     1     -13.031  -4.881   8.681  0.00  0.00    +0.005 A 
ATOM     32  C   UNL     1     -12.265  -4.474   9.759  0.00  0.00    -0.050 A 
ATOM     33  C   UNL     1     -10.888  -4.568   9.702  0.00  0.00    +0.008 A 
ATOM     34  C   UNL     1     -10.275  -5.071   8.569  0.00  0.00    -0.024 A 
ATOM     35  C   UNL     1      -8.773  -5.177   8.509  0.00  0.00    +0.046 C 
ATOM     36  C   UNL     1     -12.934  -3.930  10.995  0.00  0.00    +0.044 C 
ENDBRANCH  26  29
ENDBRANCH  23  26
ENDBRANCH   2  20
BRANCH   1  37
ATOM     37  C   UNL     1      -4.855  -2.644   1.108  0.00  0.00    +0.142 C 
BRANCH  37  38
ATOM     38  C   UNL     1      -3.794  -3.733   1.280  0.00  0.00    +0.178 C 
BRANCH  38  39
ATOM     39  O   UNL     1      -4.423  -5.016   1.272  0.00  0.00    -0.381 OA
ATOM     40  C   UNL     1      -3.515  -6.109   1.427  0.00  0.00    +0.194 C 
ENDBRANCH  38  39
ENDBRANCH  37  38
ENDBRANCH   1  37
TORSDOF 11
