REMARK  Name = ZINC09692160
REMARK  11 active torsions:
REMARK  status: ('A' for Active; 'I' for Inactive)
REMARK    1  A    between atoms: C_1  and  C_2
REMARK    2  A    between atoms: C_2  and  C_3
REMARK    3  A    between atoms: C_12  and  S_14
REMARK    4  A    between atoms: S_14  and  N_17
REMARK    5  A    between atoms: N_17  and  C_18
REMARK    6  A    between atoms: C_18  and  C_20
REMARK    7  A    between atoms: C_18  and  C_23
REMARK    8  A    between atoms: C_20  and  C_21
REMARK    9  A    between atoms: C_20  and  C_22
REMARK   10  A    between atoms: N_25  and  C_26
REMARK   11  A    between atoms: C_26  and  C_27
REMARK                            x       y       z     vdW  Elec       q    Type
REMARK                         _______ _______ _______ _____ _____    ______ ____
ROOT
ATOM      1  N   UNL     1       0.963   7.344   2.893  0.00  0.00    -0.178 NA
ATOM      2  H   UNL     1       0.313   7.744   2.294  0.00  0.00    +0.149 HD
ENDROOT
BRANCH   1   3
ATOM      3  S   UNL     1       1.814   8.298   3.946  0.00  0.00    +0.059 S 
ATOM      4  O   UNL     1       1.437   9.641   3.673  0.00  0.00    -0.153 OA
ATOM      5  O   UNL     1       1.668   7.713   5.233  0.00  0.00    -0.153 OA
BRANCH   3  15
ATOM      6  C   UNL     1       8.372   8.324   1.811  0.00  0.00    +0.220 C 
ATOM      7  O   UNL     1       7.939   9.252   1.162  0.00  0.00    -0.275 OA
ATOM      8  N   UNL     1       7.559   7.648   2.646  0.00  0.00    -0.271 N 
ATOM      9  C   UNL     1       7.966   6.513   3.479  0.00  0.00    +0.118 C 
ATOM     10  C   UNL     1       6.697   6.097   4.241  0.00  0.00    +0.056 C 
ATOM     11  C   UNL     1       5.633   7.061   3.765  0.00  0.00    -0.023 A 
ATOM     12  C   UNL     1       6.203   7.928   2.846  0.00  0.00    +0.040 A 
ATOM     13  C   UNL     1       5.409   8.916   2.263  0.00  0.00    +0.026 A 
ATOM     14  C   UNL     1       4.076   9.025   2.600  0.00  0.00    +0.030 A 
ATOM     15  C   UNL     1       3.517   8.155   3.518  0.00  0.00    +0.106 A 
ATOM     16  C   UNL     1       4.299   7.177   4.103  0.00  0.00    +0.034 A 
BRANCH   6  18
ATOM     17  C   UNL     1      10.515   8.847   0.677  0.00  0.00    +0.013 C 
ATOM     18  C   UNL     1       9.820   7.926   1.683  0.00  0.00    +0.093 C 
ENDBRANCH   6  18
ENDBRANCH   3  15
ENDBRANCH   1   3
BRANCH   1  19
ATOM     19  C   UNL     1       1.191   5.898   2.867  0.00  0.00    +0.165 C 
BRANCH  19  20
ATOM     20  C   UNL     1       1.773   5.505   1.533  0.00  0.00    +0.232 C 
ATOM     21  O   UNL     1       1.595   6.211   0.563  0.00  0.00    -0.274 OA
ATOM     22  N   UNL     1       2.490   4.370   1.419  0.00  0.00    -0.310 N 
ATOM     23  H   UNL     1       2.695   3.844   2.208  0.00  0.00    +0.149 HD
BRANCH  22  24
ATOM     24  C   UNL     1       2.959   3.929   0.103  0.00  0.00    +0.139 C 
BRANCH  24  25
ATOM     25  C   UNL     1       3.730   2.643   0.249  0.00  0.00    -0.030 A 
ATOM     26  C   UNL     1       3.072   1.430   0.164  0.00  0.00    +0.006 A 
ATOM     27  C   UNL     1       3.779   0.249   0.298  0.00  0.00    +0.020 A 
ATOM     28  C   UNL     1       5.145   0.282   0.516  0.00  0.00    +0.041 A 
ATOM     29  C   UNL     1       5.802   1.496   0.601  0.00  0.00    +0.020 A 
ATOM     30  C   UNL     1       5.095   2.676   0.467  0.00  0.00    +0.006 A 
ATOM     31 CL   UNL     1       6.033  -1.200   0.685  0.00  0.00    -0.084 Cl
ENDBRANCH  24  25
ENDBRANCH  22  24
ENDBRANCH  19  20
BRANCH  19  32
ATOM     32  C   UNL     1      -0.137   5.168   3.079  0.00  0.00    +0.010 C 
ATOM     33  C   UNL     1      -0.662   5.462   4.486  0.00  0.00    +0.009 C 
ATOM     34  C   UNL     1      -1.155   5.650   2.044  0.00  0.00    +0.009 C 
ENDBRANCH  19  32
ENDBRANCH   1  19
TORSDOF 8
