REMARK  Name = ZINC14235800
REMARK  7 active torsions:
REMARK  status: ('A' for Active; 'I' for Inactive)
REMARK    1  A    between atoms: C_1  and  C_2
REMARK    2  A    between atoms: C_10  and  C_11
REMARK    3  A    between atoms: N_13  and  N_14
REMARK    4  A    between atoms: N_14  and  S_15
REMARK    5  A    between atoms: S_15  and  C_18
REMARK    6  A    between atoms: C_21  and  O_24
REMARK    7  A    between atoms: O_24  and  C_25
REMARK                            x       y       z     vdW  Elec       q    Type
REMARK                         _______ _______ _______ _____ _____    ______ ____
ROOT
ATOM      1  N   UNL     1       1.219  -2.924  -1.607  0.00  0.00    -0.108 NA
ATOM      2  H   UNL     1       0.494  -3.475  -1.942  0.00  0.00    +0.172 HD
ENDROOT
BRANCH   1   5
ATOM      3  C   UNL     1       2.955  -3.466  -3.143  0.00  0.00    +0.294 C 
ATOM      4  O   UNL     1       2.683  -4.645  -3.012  0.00  0.00    -0.265 OA
ATOM      5  N   UNL     1       2.257  -2.535  -2.463  0.00  0.00    -0.225 N 
ATOM      6  H   UNL     1       2.473  -1.595  -2.568  0.00  0.00    +0.171 HD
BRANCH   3  16
ATOM      7  C   UNL     1       4.721  -5.410  -4.808  0.00  0.00    +0.048 C 
ATOM      8  C   UNL     1       4.815  -3.906  -4.769  0.00  0.00    +0.008 A 
ATOM      9  C   UNL     1       5.755  -3.065  -5.510  0.00  0.00    +0.024 A 
ATOM     10  C   UNL     1       6.786  -3.321  -6.417  0.00  0.00    +0.012 A 
ATOM     11  C   UNL     1       7.501  -2.282  -6.941  0.00  0.00    +0.001 A 
ATOM     12  C   UNL     1       7.210  -0.974  -6.577  0.00  0.00    +0.004 A 
ATOM     13  C   UNL     1       6.197  -0.700  -5.684  0.00  0.00    +0.047 A 
ATOM     14  C   UNL     1       5.455  -1.741  -5.138  0.00  0.00    +0.136 A 
ATOM     15  O   UNL     1       4.432  -1.785  -4.263  0.00  0.00    -0.450 OA
ATOM     16  C   UNL     1       4.044  -3.058  -4.041  0.00  0.00    +0.195 A 
ENDBRANCH   3  16
ENDBRANCH   1   5
BRANCH   1  17
ATOM     17  S   UNL     1       1.228  -2.442  -0.022  0.00  0.00    +0.074 S 
ATOM     18  O   UNL     1       2.484  -2.836   0.514  0.00  0.00    -0.152 OA
ATOM     19  O   UNL     1      -0.007  -2.865   0.539  0.00  0.00    -0.152 OA
BRANCH  17  20
ATOM     20  C   UNL     1       1.208  -0.680  -0.013  0.00  0.00    +0.107 A 
ATOM     21  C   UNL     1       0.002  -0.004   0.002  0.00  0.00    +0.032 A 
ATOM     22  C   UNL     1      -0.017   1.377   0.010  0.00  0.00    +0.048 A 
ATOM     23  C   UNL     1       1.176   2.086   0.002  0.00  0.00    +0.130 A 
ATOM     24  C   UNL     1       2.385   1.405  -0.013  0.00  0.00    +0.048 A 
ATOM     25  C   UNL     1       2.398   0.024  -0.021  0.00  0.00    +0.032 A 
BRANCH  23  26
ATOM     26  O   UNL     1       1.160   3.445   0.009  0.00  0.00    -0.406 OA
BRANCH  26  27
ATOM     27  C   UNL     1       2.426   4.108   0.001  0.00  0.00    +0.575 C 
ATOM     28  F   UNL     1       3.134   3.747  -1.150  0.00  0.00    -0.133 F 
ATOM     29  F   UNL     1       2.226   5.493   0.009  0.00  0.00    -0.133 F 
ATOM     30  F   UNL     1       3.156   3.735   1.134  0.00  0.00    -0.133 F 
ENDBRANCH  26  27
ENDBRANCH  23  26
ENDBRANCH  17  20
ENDBRANCH   1  17
TORSDOF 6
