REMARK  Name = ZINC39664608
REMARK  8 active torsions:
REMARK  status: ('A' for Active; 'I' for Inactive)
REMARK    1  A    between atoms: C_1  and  N_2
REMARK    2  A    between atoms: N_2  and  C_3
REMARK    3  A    between atoms: N_2  and  C_4
REMARK    4  A    between atoms: C_4  and  C_5
REMARK    5  A    between atoms: C_5  and  C_7
REMARK    6  A    between atoms: C_5  and  N_13
REMARK    7  A    between atoms: C_14  and  C_16
REMARK    8  A    between atoms: C_27  and  C_29
REMARK                            x       y       z     vdW  Elec       q    Type
REMARK                         _______ _______ _______ _____ _____    ______ ____
ROOT
ATOM      1  C   UNL     1       1.839  -3.060   1.852  0.00  0.00    +0.100 C 
ATOM      2  C   UNL     1       1.683  -2.376   3.228  0.00  0.00    +0.121 C 
ATOM      3  N   UNL     1       3.064  -2.275   3.756  0.00  0.00    -0.296 N 
ATOM      4  C   UNL     1       3.885  -1.924   2.572  0.00  0.00    +0.115 C 
ATOM      5  C   UNL     1       3.286  -2.761   1.425  0.00  0.00    -0.004 C 
ATOM      6  C   UNL     1       3.299  -1.959   0.126  0.00  0.00    -0.010 C 
ATOM      7  C   UNL     1       4.748  -1.724  -0.309  0.00  0.00    -0.082 C 
ATOM      8  N   UNL     1       5.419  -3.016  -0.501  0.00  0.00    +0.379 N 
ATOM      9  C   UNL     1       5.485  -3.740   0.774  0.00  0.00    -0.082 C 
ATOM     10  C   UNL     1       4.067  -4.061   1.255  0.00  0.00    -0.010 C 
ATOM     11  C   UNL     1       3.479  -2.460   5.024  0.00  0.00    +0.249 C 
ATOM     12  O   UNL     1       2.695  -2.842   5.871  0.00  0.00    -0.270 OA
ATOM     13  H   UNL     1       4.902  -3.565  -1.172  0.00  0.00    -0.086 HD
ATOM     14  H   UNL     1       6.354  -2.860  -0.847  0.00  0.00    -0.086 HD
ENDROOT
BRANCH  11  15
ATOM     15  C   UNL     1       4.886  -2.198   5.386  0.00  0.00    +0.072 A 
ATOM     16  C   UNL     1       5.587  -1.159   4.769  0.00  0.00    +0.019 A 
ATOM     17  C   UNL     1       6.900  -0.919   5.110  0.00  0.00    +0.039 A 
ATOM     18  C   UNL     1       7.528  -1.707   6.064  0.00  0.00    +0.126 A 
ATOM     19  C   UNL     1       6.840  -2.739   6.681  0.00  0.00    +0.077 A 
ATOM     20  C   UNL     1       5.521  -2.986   6.352  0.00  0.00    +0.138 A 
ATOM     21  F   UNL     1       4.848  -3.989   6.957  0.00  0.00    -0.205 F 
ATOM     22  F   UNL     1       8.816  -1.466   6.394  0.00  0.00    -0.205 F 
ENDBRANCH  11  15
BRANCH   1  24
ATOM     23  N   UNL     1       0.384  -3.236  -0.141  0.00  0.00    -0.310 N 
ATOM     24  C   UNL     1       0.868  -2.474   0.861  0.00  0.00    +0.219 C 
ATOM     25  O   UNL     1       0.520  -1.316   0.964  0.00  0.00    -0.275 OA
ATOM     26  H   UNL     1       0.604  -4.180  -0.181  0.00  0.00    +0.149 HD
BRANCH  23  27
ATOM     27  C   UNL     1      -0.473  -2.638  -1.168  0.00  0.00    +0.087 C 
BRANCH  27  28
ATOM     28  C   UNL     1      -0.298  -3.386  -2.465  0.00  0.00    -0.029 A 
ATOM     29  C   UNL     1      -0.188  -4.764  -2.459  0.00  0.00    +0.005 A 
ATOM     30  C   UNL     1      -0.028  -5.449  -3.648  0.00  0.00    +0.000 A 
ATOM     31  C   UNL     1       0.021  -4.757  -4.844  0.00  0.00    +0.000 A 
ATOM     32  C   UNL     1      -0.091  -3.379  -4.850  0.00  0.00    +0.000 A 
ATOM     33  C   UNL     1      -0.255  -2.694  -3.661  0.00  0.00    +0.005 A 
ENDBRANCH  27  28
BRANCH  27  34
ATOM     34  C   UNL     1      -1.935  -2.722  -0.724  0.00  0.00    -0.052 C 
BRANCH  34  36
ATOM     35  C   UNL     1      -4.200  -2.279  -1.378  0.00  0.00    -0.097 C 
ATOM     36  N   UNL     1      -2.788  -2.063  -1.721  0.00  0.00    +0.377 N 
ATOM     37  C   UNL     1      -2.502  -0.622  -1.735  0.00  0.00    -0.097 C 
ATOM     38  H   UNL     1      -2.600  -2.451  -2.634  0.00  0.00    -0.083 HD
ENDBRANCH  34  36
ENDBRANCH  27  34
ENDBRANCH  23  27
ENDBRANCH   1  24
TORSDOF 6
