REMARK  Name = ZINC12123631
REMARK  6 active torsions:
REMARK  status: ('A' for Active; 'I' for Inactive)
REMARK    1  A    between atoms: N_11  and  C_12
REMARK    2  A    between atoms: C_12  and  C_13
REMARK    3  A    between atoms: C_13  and  C_14
REMARK    4  A    between atoms: N_16  and  C_17
REMARK    5  A    between atoms: C_17  and  C_18
REMARK    6  A    between atoms: C_25  and  C_28
REMARK                            x       y       z     vdW  Elec       q    Type
REMARK                         _______ _______ _______ _____ _____    ______ ____
ROOT
ATOM      1  C   UNL     1      -5.292  -1.298   0.609  0.00  0.00    +0.215 C 
ATOM      2  O   UNL     1      -5.862  -0.531   1.356  0.00  0.00    -0.276 OA
ATOM      3  N   UNL     1      -4.111  -0.950   0.059  0.00  0.00    -0.312 N 
ATOM      4  H   UNL     1      -3.655  -1.563  -0.539  0.00  0.00    +0.149 HD
ENDROOT
BRANCH   1   5
ATOM      5  C   UNL     1      -5.903  -2.639   0.296  0.00  0.00    +0.117 C 
BRANCH   5   6
ATOM      6  C   UNL     1      -7.230  -2.781   1.044  0.00  0.00    +0.136 C 
BRANCH   6  17
ATOM      7  C   UNL     1      -7.589  -7.855   2.428  0.00  0.00    +0.002 A 
ATOM      8  C   UNL     1      -6.841  -6.871   3.051  0.00  0.00    +0.002 A 
ATOM      9  C   UNL     1      -6.850  -5.578   2.567  0.00  0.00    +0.028 A 
ATOM     10  C   UNL     1      -7.611  -5.264   1.451  0.00  0.00    +0.070 A 
ATOM     11  C   UNL     1      -8.366  -6.257   0.823  0.00  0.00    +0.067 A 
ATOM     12  C   UNL     1      -8.351  -7.552   1.317  0.00  0.00    +0.028 A 
ATOM     13  N   UNL     1      -9.014  -5.651  -0.251  0.00  0.00    -0.306 N 
ATOM     14  H   UNL     1      -9.612  -6.091  -0.875  0.00  0.00    +0.170 HD
ATOM     15  C   UNL     1      -8.674  -4.348  -0.271  0.00  0.00    +0.328 A 
ATOM     16  O   UNL     1      -9.072  -3.532  -1.081  0.00  0.00    -0.247 OA
ATOM     17  N   UNL     1      -7.824  -4.085   0.740  0.00  0.00    -0.292 N 
ENDBRANCH   6  17
ENDBRANCH   5   6
ENDBRANCH   1   5
BRANCH   3  18
ATOM     18  C   UNL     1      -3.517   0.354   0.362  0.00  0.00    +0.149 C 
BRANCH  18  19
ATOM     19  C   UNL     1      -2.190   0.496  -0.385  0.00  0.00    +0.195 C 
ATOM     20  C   UNL     1      -1.473   1.808   0.015  0.00  0.00    +0.085 C 
ATOM     21  C   UNL     1      -0.017   1.383   0.010  0.00  0.00    -0.002 A 
ATOM     22  C   UNL     1       1.157   2.106   0.002  0.00  0.00    +0.007 A 
ATOM     23  C   UNL     1       2.378   1.453  -0.021  0.00  0.00    +0.001 A 
ATOM     24  C   UNL     1       2.421   0.074  -0.037  0.00  0.00    +0.012 A 
ATOM     25  C   UNL     1       1.241  -0.663  -0.025  0.00  0.00    +0.024 A 
ATOM     26  C   UNL     1       0.002  -0.004   0.002  0.00  0.00    +0.132 A 
ATOM     27  O   UNL     1      -1.258  -0.515   0.034  0.00  0.00    -0.486 OA
BRANCH  25  28
ATOM     28  C   UNL     1       1.292  -2.145  -0.043  0.00  0.00    -0.012 A 
ATOM     29  C   UNL     1       0.566  -2.900   0.883  0.00  0.00    +0.028 A 
ATOM     30  C   UNL     1       0.639  -4.276   0.829  0.00  0.00    +0.111 A 
ATOM     31  N   UNL     1       1.388  -4.880  -0.074  0.00  0.00    -0.263 NA
ATOM     32  C   UNL     1       2.092  -4.205  -0.963  0.00  0.00    +0.111 A 
ATOM     33  C   UNL     1       2.073  -2.826  -0.982  0.00  0.00    +0.028 A 
ENDBRANCH  25  28
ENDBRANCH  18  19
ENDBRANCH   3  18
TORSDOF 6
