REMARK  Name = ZINC64178629
REMARK  8 active torsions:
REMARK  status: ('A' for Active; 'I' for Inactive)
REMARK    1  A    between atoms: C_1  and  C_2
REMARK    2  A    between atoms: C_2  and  C_4
REMARK    3  A    between atoms: C_2  and  N_17
REMARK    4  A    between atoms: C_4  and  C_6
REMARK    5  A    between atoms: C_7  and  N_16
REMARK    6  A    between atoms: N_8  and  C_15
REMARK    7  A    between atoms: N_11  and  C_14
REMARK    8  A    between atoms: C_20  and  C_23
REMARK                            x       y       z     vdW  Elec       q    Type
REMARK                         _______ _______ _______ _____ _____    ______ ____
ROOT
ATOM      1  C   UNL     1      -0.217   1.154  -0.009  0.00  0.00    +0.032 C 
ATOM      2  C   UNL     1       0.029  -0.347   0.152  0.00  0.00    +0.125 C 
ENDROOT
BRANCH   2   3
ATOM      3  N   UNL     1      -1.257  -1.040   0.306  0.00  0.00    -0.293 NA
ATOM      4  C   UNL     1      -1.066  -2.495   0.364  0.00  0.00    +0.085 C 
ATOM      5  C   UNL     1      -2.430  -3.189   0.377  0.00  0.00    +0.023 C 
ATOM      6  C   UNL     1      -3.229  -2.712   1.593  0.00  0.00    +0.020 C 
ATOM      7  C   UNL     1      -3.371  -1.188   1.534  0.00  0.00    +0.023 C 
ATOM      8  C   UNL     1      -1.980  -0.552   1.487  0.00  0.00    +0.085 C 
BRANCH   6   9
ATOM      9  C   UNL     1      -4.596  -3.346   1.579  0.00  0.00    -0.038 C 
ATOM     10  C   UNL     1      -5.131  -4.145   2.530  0.00  0.00    -0.001 A 
ATOM     11  C   UNL     1      -4.621  -4.644   3.813  0.00  0.00    +0.010 A 
ATOM     12  C   UNL     1      -5.408  -5.446   4.565  0.00  0.00    +0.001 A 
ATOM     13  C   UNL     1      -6.695  -5.814   4.150  0.00  0.00    +0.002 A 
ATOM     14  C   UNL     1      -7.234  -5.395   2.985  0.00  0.00    +0.026 A 
ATOM     15  C   UNL     1      -6.494  -4.547   2.116  0.00  0.00    +0.043 A 
ATOM     16  N   UNL     1      -6.790  -4.017   0.954  0.00  0.00    -0.380 N 
ATOM     17  C   UNL     1      -5.649  -3.213   0.502  0.00  0.00    +0.145 C 
ATOM     18  H   UNL     1      -7.625  -4.134   0.474  0.00  0.00    +0.160 HD
ENDBRANCH   6   9
ENDBRANCH   2   3
BRANCH   2  19
ATOM     19  C   UNL     1       0.741  -0.873  -1.067  0.00  0.00    +0.188 C 
ATOM     20  O   UNL     1       0.116  -1.451  -1.933  0.00  0.00    -0.290 OA
BRANCH  19  21
ATOM     21  C   UNL     1       2.134  -0.695  -1.203  0.00  0.00    +0.121 A 
ATOM     22  C   UNL     1       2.799  -1.050  -2.389  0.00  0.00    +0.116 A 
ATOM     23  N   UNL     1       4.149  -0.859  -2.473  0.00  0.00    -0.284 N 
ATOM     24  C   UNL     1       4.845  -0.341  -1.449  0.00  0.00    +0.333 A 
ATOM     25  O   UNL     1       6.044  -0.190  -1.574  0.00  0.00    -0.246 OA
ATOM     26  N   UNL     1       4.265   0.017  -0.292  0.00  0.00    -0.263 N 
ATOM     27  C   UNL     1       2.936  -0.126  -0.111  0.00  0.00    +0.269 A 
ATOM     28  O   UNL     1       2.412   0.204   0.937  0.00  0.00    -0.267 OA
ATOM     29  C   UNL     1       5.085   0.577   0.785  0.00  0.00    +0.157 C 
ATOM     30  C   UNL     1       4.851  -1.226  -3.705  0.00  0.00    +0.155 C 
BRANCH  22  31
ATOM     31  N   UNL     1       2.109  -1.577  -3.437  0.00  0.00    -0.344 N 
ATOM     32  H   UNL     1       1.142  -1.515  -3.461  0.00  0.00    +0.144 HD
ATOM     33  H   UNL     1       2.585  -2.016  -4.159  0.00  0.00    +0.144 HD
ENDBRANCH  22  31
ENDBRANCH  19  21
ENDBRANCH   2  19
TORSDOF 5
