REMARK  Name = ZINC06474390
REMARK  6 active torsions:
REMARK  status: ('A' for Active; 'I' for Inactive)
REMARK    1  A    between atoms: C_4  and  C_7
REMARK    2  A    between atoms: C_9  and  C_29
REMARK    3  A    between atoms: C_13  and  N_28
REMARK    4  A    between atoms: C_14  and  C_16
REMARK    5  A    between atoms: N_18  and  C_19
REMARK    6  A    between atoms: C_24  and  N_25
REMARK                            x       y       z     vdW  Elec       q    Type
REMARK                         _______ _______ _______ _____ _____    ______ ____
ROOT
ATOM      1  C   UNL     1       3.640   1.613  -0.460  0.00  0.00    -0.004 A 
ATOM      2  C   UNL     1       4.622   1.042   0.332  0.00  0.00    +0.037 A 
ATOM      3  C   UNL     1       5.866   1.658   0.459  0.00  0.00    +0.073 A 
ATOM      4  N   UNL     1       6.119   2.796  -0.177  0.00  0.00    -0.239 NA
ATOM      5  C   UNL     1       5.218   3.376  -0.939  0.00  0.00    +0.112 A 
ATOM      6  C   UNL     1       3.928   2.835  -1.142  0.00  0.00    +0.037 A 
ATOM      7  C   UNL     1       3.062   3.612  -2.010  0.00  0.00    +0.054 A 
ATOM      8  C   UNL     1       3.559   4.776  -2.560  0.00  0.00    +0.097 A 
ATOM      9  S   UNL     1       5.216   4.862  -1.911  0.00  0.00    -0.062 S 
ENDROOT
BRANCH   1  13
ATOM     10  C   UNL     1      -0.161  -0.244  -0.867  0.00  0.00    +0.000 A 
ATOM     11  C   UNL     1       0.590   0.041  -1.993  0.00  0.00    +0.001 A 
ATOM     12  C   UNL     1       1.825   0.644  -1.867  0.00  0.00    +0.008 A 
ATOM     13  C   UNL     1       2.315   0.966  -0.602  0.00  0.00    -0.017 A 
ATOM     14  C   UNL     1       1.552   0.676   0.529  0.00  0.00    +0.008 A 
ATOM     15  C   UNL     1       0.319   0.073   0.391  0.00  0.00    +0.001 A 
ENDBRANCH   1  13
BRANCH   3  16
ATOM     16  C   UNL     1       6.913   1.040   1.308  0.00  0.00    +0.000 A 
ATOM     17  C   UNL     1       6.652  -0.151   1.983  0.00  0.00    +0.010 A 
ATOM     18  C   UNL     1       7.632  -0.725   2.768  0.00  0.00    +0.001 A 
ATOM     19  C   UNL     1       8.866  -0.114   2.894  0.00  0.00    +0.000 A 
ATOM     20  C   UNL     1       9.129   1.071   2.231  0.00  0.00    +0.001 A 
ATOM     21  C   UNL     1       8.159   1.651   1.439  0.00  0.00    +0.010 A 
ENDBRANCH   3  16
BRANCH   8  22
ATOM     22  C   UNL     1       2.908   5.683  -3.430  0.00  0.00    +0.257 C 
ATOM     23  O   UNL     1       1.760   5.474  -3.782  0.00  0.00    -0.269 OA
ATOM     24  N   UNL     1       3.558   6.779  -3.870  0.00  0.00    -0.279 N 
ATOM     25  H   UNL     1       4.494   6.908  -3.652  0.00  0.00    +0.155 HD
BRANCH  24  26
ATOM     26  C   UNL     1       2.882   7.731  -4.639  0.00  0.00    +0.064 A 
ATOM     27  C   UNL     1       1.539   7.995  -4.399  0.00  0.00    +0.025 A 
ATOM     28  C   UNL     1       0.876   8.939  -5.158  0.00  0.00    +0.002 A 
ATOM     29  C   UNL     1       1.544   9.614  -6.163  0.00  0.00    +0.002 A 
ATOM     30  C   UNL     1       2.879   9.351  -6.408  0.00  0.00    +0.034 A 
ATOM     31  C   UNL     1       3.550   8.411  -5.649  0.00  0.00    +0.147 A 
BRANCH  31  32
ATOM     32  N   UNL     1       4.979   8.129  -5.913  0.00  0.00    +0.058 N 
ATOM     33  O   UNL     1       5.543   8.669  -6.847  0.00  0.00    -0.126 OA
ATOM     34  O   UNL     1       5.589   7.357  -5.195  0.00  0.00    -0.126 OA
ENDBRANCH  31  32
ENDBRANCH  24  26
ENDBRANCH   8  22
BRANCH   7  35
ATOM     35  N   UNL     1       1.768   3.191  -2.286  0.00  0.00    -0.356 N 
ATOM     36  H   UNL     1       1.315   3.505  -3.084  0.00  0.00    +0.142 HD
ATOM     37  H   UNL     1       1.317   2.582  -1.680  0.00  0.00    +0.142 HD
ENDBRANCH   7  35
TORSDOF 6
