REMARK  Name = ZINC35311449
REMARK  7 active torsions:
REMARK  status: ('A' for Active; 'I' for Inactive)
REMARK    1  A    between atoms: C_4  and  N_21
REMARK    2  A    between atoms: C_5  and  N_7
REMARK    3  A    between atoms: C_8  and  C_10
REMARK    4  A    between atoms: C_10  and  N_11
REMARK    5  A    between atoms: N_11  and  C_12
REMARK    6  A    between atoms: C_12  and  C_13
REMARK    7  A    between atoms: C_13  and  C_14
REMARK                            x       y       z     vdW  Elec       q    Type
REMARK                         _______ _______ _______ _____ _____    ______ ____
ROOT
ATOM      1  N   UNL     1       1.234  -2.082  -0.021  0.00  0.00    -0.286 N 
ATOM      2  C   UNL     1       0.082  -2.775   0.088  0.00  0.00    +0.200 C 
ATOM      3  O   UNL     1      -0.979  -2.188   0.102  0.00  0.00    -0.278 OA
ATOM      4  H   UNL     1       2.076  -2.554  -0.113  0.00  0.00    +0.155 HD
ENDROOT
BRANCH   1   9
ATOM      5  C   UNL     1       0.153   1.373   0.636  0.00  0.00    +0.002 A 
ATOM      6  C   UNL     1       1.172   2.090   0.036  0.00  0.00    +0.002 A 
ATOM      7  C   UNL     1       2.215   1.428  -0.585  0.00  0.00    +0.025 A 
ATOM      8  C   UNL     1       2.241   0.042  -0.607  0.00  0.00    +0.051 A 
ATOM      9  C   UNL     1       1.213  -0.681  -0.002  0.00  0.00    +0.055 A 
ATOM     10  C   UNL     1       0.171  -0.009   0.619  0.00  0.00    +0.025 A 
BRANCH   8  11
ATOM     11  N   UNL     1       3.295  -0.630  -1.236  0.00  0.00    -0.324 N 
ATOM     12  C   UNL     1       3.225  -0.983  -2.662  0.00  0.00    +0.133 C 
ATOM     13  C   UNL     1       4.510  -0.498  -3.344  0.00  0.00    +0.178 C 
ATOM     14  O   UNL     1       5.641  -0.992  -2.623  0.00  0.00    -0.377 OA
ATOM     15  C   UNL     1       5.729  -0.518  -1.277  0.00  0.00    +0.178 C 
ATOM     16  C   UNL     1       4.509  -0.999  -0.491  0.00  0.00    +0.133 C 
ENDBRANCH   8  11
ENDBRANCH   1   9
BRANCH   2  17
ATOM     17  C   UNL     1       0.114  -4.278   0.193  0.00  0.00    +0.015 C 
BRANCH  17  18
ATOM     18  N   UNL     1      -1.259  -4.790   0.300  0.00  0.00    +0.385 N 
ATOM     19  H   UNL     1      -1.698  -4.404   1.123  0.00  0.00    -0.085 HD
ATOM     20  H   UNL     1      -1.784  -4.520  -0.518  0.00  0.00    -0.085 HD
BRANCH  18  21
ATOM     21  C   UNL     1      -1.228  -6.255   0.402  0.00  0.00    -0.077 C 
BRANCH  21  22
ATOM     22  C   UNL     1      -2.658  -6.788   0.515  0.00  0.00    +0.016 C 
BRANCH  22  23
ATOM     23  C   UNL     1      -2.627  -8.291   0.619  0.00  0.00    -0.049 A 
ATOM     24  C   UNL     1      -2.669  -9.065  -0.526  0.00  0.00    +0.005 A 
ATOM     25  C   UNL     1      -2.640 -10.443  -0.430  0.00  0.00    +0.020 A 
ATOM     26  C   UNL     1      -2.569 -11.049   0.811  0.00  0.00    +0.041 A 
ATOM     27  C   UNL     1      -2.527 -10.274   1.957  0.00  0.00    +0.020 A 
ATOM     28  C   UNL     1      -2.550  -8.896   1.860  0.00  0.00    +0.005 A 
ATOM     29 CL   UNL     1      -2.534 -12.780   0.932  0.00  0.00    -0.084 Cl
ENDBRANCH  22  23
ENDBRANCH  21  22
ENDBRANCH  18  21
ENDBRANCH  17  18
ENDBRANCH   2  17
TORSDOF 7
