REMARK  Name = ZINC59113214
REMARK  17 active torsions:
REMARK  status: ('A' for Active; 'I' for Inactive)
REMARK    1  A    between atoms: C_1  and  O_2
REMARK    2  A    between atoms: O_2  and  C_3
REMARK    3  A    between atoms: C_5  and  N_11
REMARK    4  A    between atoms: C_7  and  O_9
REMARK    5  A    between atoms: O_9  and  C_10
REMARK    6  A    between atoms: N_11  and  C_12
REMARK    7  A    between atoms: C_12  and  N_14
REMARK    8  A    between atoms: N_14  and  C_15
REMARK    9  A    between atoms: C_15  and  C_16
REMARK   10  A    between atoms: C_16  and  N_17
REMARK   11  A    between atoms: N_20  and  C_23
REMARK   12  A    between atoms: C_23  and  N_25
REMARK   13  A    between atoms: N_25  and  C_26
REMARK   14  A    between atoms: C_28  and  O_34
REMARK   15  A    between atoms: C_30  and  O_32
REMARK   16  A    between atoms: O_32  and  C_33
REMARK   17  A    between atoms: O_34  and  C_35
REMARK                            x       y       z     vdW  Elec       q    Type
REMARK                         _______ _______ _______ _____ _____    ______ ____
ROOT
ATOM      1  N   UNL     1       3.599  -8.928   4.947  0.00  0.00    -0.298 NA
ATOM      2  C   UNL     1       2.999  -8.729   6.273  0.00  0.00    +0.103 C 
ATOM      3  C   UNL     1       3.974  -9.217   7.349  0.00  0.00    +0.122 C 
ATOM      4  N   UNL     1       4.354 -10.604   7.041  0.00  0.00    -0.310 N 
ATOM      5  C   UNL     1       4.836 -10.908   5.685  0.00  0.00    +0.122 C 
ATOM      6  C   UNL     1       3.828 -10.353   4.674  0.00  0.00    +0.103 C 
ENDROOT
BRANCH   4   7
ATOM      7  C   UNL     1       4.263 -11.571   7.976  0.00  0.00    +0.137 C 
ATOM      8  S   UNL     1       3.575 -11.222   9.504  0.00  0.00    -0.018 S 
BRANCH   7   9
ATOM      9  N   UNL     1       4.715 -12.812   7.707  0.00  0.00    -0.297 N 
ATOM     10  H   UNL     1       4.086 -13.536   7.560  0.00  0.00    +0.154 HD
BRANCH   9  11
ATOM     11  C   UNL     1       6.090 -13.057   7.641  0.00  0.00    +0.040 A 
ATOM     12  C   UNL     1       6.991 -12.060   7.989  0.00  0.00    +0.069 A 
ATOM     13  C   UNL     1       8.354 -12.303   7.924  0.00  0.00    +0.125 A 
ATOM     14  C   UNL     1       8.818 -13.543   7.510  0.00  0.00    +0.091 A 
ATOM     15  C   UNL     1       7.919 -14.540   7.162  0.00  0.00    +0.125 A 
ATOM     16  C   UNL     1       6.556 -14.300   7.233  0.00  0.00    +0.069 A 
BRANCH  15  17
ATOM     17  O   UNL     1       8.375 -15.754   6.756  0.00  0.00    -0.495 OA
ATOM     18  C   UNL     1       9.792 -15.934   6.712  0.00  0.00    +0.277 C 
ENDBRANCH  15  17
BRANCH  13  19
ATOM     19  O   UNL     1       9.236 -11.327   8.264  0.00  0.00    -0.495 OA
ATOM     20  C   UNL     1      10.626 -11.647   8.173  0.00  0.00    +0.277 C 
ENDBRANCH  13  19
ENDBRANCH   9  11
ENDBRANCH   7   9
ENDBRANCH   4   7
BRANCH   1  21
ATOM     21  C   UNL     1       2.773  -8.316   3.897  0.00  0.00    +0.103 C 
BRANCH  21  22
ATOM     22  C   UNL     1       2.763  -6.797   4.076  0.00  0.00    +0.118 C 
BRANCH  22  23
ATOM     23  N   UNL     1       1.938  -6.187   3.030  0.00  0.00    -0.325 N 
ATOM     24  H   UNL     1       1.504  -6.747   2.367  0.00  0.00    +0.148 HD
BRANCH  23  25
ATOM     25  C   UNL     1       1.783  -4.849   2.988  0.00  0.00    +0.135 C 
ATOM     26  S   UNL     1       2.550  -3.862   4.158  0.00  0.00    -0.019 S 
BRANCH  25  27
ATOM     27  N   UNL     1       1.025  -4.288   2.026  0.00  0.00    -0.297 N 
ATOM     28  H   UNL     1       0.540  -4.851   1.401  0.00  0.00    +0.154 HD
BRANCH  27  31
ATOM     29  C   UNL     1       0.970  -0.897   0.594  0.00  0.00    +0.125 A 
ATOM     30  C   UNL     1       1.058  -2.278   0.691  0.00  0.00    +0.069 A 
ATOM     31  C   UNL     1       0.936  -2.896   1.927  0.00  0.00    +0.040 A 
ATOM     32  C   UNL     1       0.726  -2.131   3.067  0.00  0.00    +0.069 A 
ATOM     33  C   UNL     1       0.638  -0.751   2.969  0.00  0.00    +0.125 A 
ATOM     34  C   UNL     1       0.765  -0.134   1.734  0.00  0.00    +0.091 A 
BRANCH  29  36
ATOM     35  C   UNL     1       0.994   1.133  -0.642  0.00  0.00    +0.277 C 
ATOM     36  O   UNL     1       1.089  -0.292  -0.617  0.00  0.00    -0.495 OA
ENDBRANCH  29  36
BRANCH  33  37
ATOM     37  O   UNL     1       0.431  -0.003   4.084  0.00  0.00    -0.495 OA
ATOM     38  C   UNL     1       0.351   1.413   3.910  0.00  0.00    +0.277 C 
ENDBRANCH  33  37
ENDBRANCH  27  31
ENDBRANCH  25  27
ENDBRANCH  23  25
ENDBRANCH  22  23
ENDBRANCH  21  22
ENDBRANCH   1  21
TORSDOF 13
