REMARK  Name = ZINC20496649
REMARK  12 active torsions:
REMARK  status: ('A' for Active; 'I' for Inactive)
REMARK    1  A    between atoms: C_1  and  C_2
REMARK    2  A    between atoms: C_6  and  C_10
REMARK    3  A    between atoms: C_7  and  O_8
REMARK    4  A    between atoms: O_8  and  C_9
REMARK    5  A    between atoms: N_12  and  C_13
REMARK    6  A    between atoms: C_13  and  N_15
REMARK    7  A    between atoms: N_15  and  C_16
REMARK    8  A    between atoms: C_18  and  O_30
REMARK    9  A    between atoms: C_19  and  O_28
REMARK   10  A    between atoms: C_21  and  N_22
REMARK   11  A    between atoms: O_28  and  C_29
REMARK   12  A    between atoms: O_30  and  C_31
REMARK                            x       y       z     vdW  Elec       q    Type
REMARK                         _______ _______ _______ _____ _____    ______ ____
ROOT
ATOM      1  N   UNL     1       5.922   4.128  -0.030  0.00  0.00    -0.295 N 
ATOM      2  H   UNL     1       5.771   3.261  -0.692  0.00  0.00    +0.154 HD
ENDROOT
BRANCH   1   3
ATOM      3  C   UNL     1       7.095   4.891  -0.130  0.00  0.00    +0.058 A 
ATOM      4  C   UNL     1       7.025   6.277  -0.114  0.00  0.00    +0.074 A 
ATOM      5  C   UNL     1       8.183   7.030  -0.212  0.00  0.00    +0.163 A 
ATOM      6  C   UNL     1       9.417   6.398  -0.327  0.00  0.00    +0.163 A 
ATOM      7  C   UNL     1       9.490   5.014  -0.342  0.00  0.00    +0.074 A 
ATOM      8  C   UNL     1       8.331   4.258  -0.239  0.00  0.00    +0.055 A 
BRANCH   8   9
ATOM      9  N   UNL     1       8.404   2.858  -0.249  0.00  0.00    -0.324 N 
ATOM     10  C   UNL     1       9.144   2.361   0.919  0.00  0.00    +0.133 C 
ATOM     11  C   UNL     1       9.149   0.830   0.900  0.00  0.00    +0.178 C 
ATOM     12  O   UNL     1       9.714   0.375  -0.333  0.00  0.00    -0.377 OA
ATOM     13  C   UNL     1       9.018   0.841  -1.492  0.00  0.00    +0.178 C 
ATOM     14  C   UNL     1       9.012   2.372  -1.497  0.00  0.00    +0.133 C 
ENDBRANCH   8   9
BRANCH   6  15
ATOM     15  O   UNL     1      10.554   7.139  -0.423  0.00  0.00    -0.491 OA
ATOM     16  C   UNL     1      11.786   6.425  -0.538  0.00  0.00    +0.277 C 
ENDBRANCH   6  15
BRANCH   5  17
ATOM     17  O   UNL     1       8.114   8.389  -0.198  0.00  0.00    -0.491 OA
ATOM     18  C   UNL     1       6.814   8.971  -0.079  0.00  0.00    +0.277 C 
ENDBRANCH   5  17
ENDBRANCH   1   3
BRANCH   1  19
ATOM     19  C   UNL     1       4.979   4.456   0.875  0.00  0.00    +0.141 C 
ATOM     20  S   UNL     1       5.271   5.715   1.997  0.00  0.00    -0.018 S 
BRANCH  19  23
ATOM     21  C   UNL     1       2.863   4.120   1.803  0.00  0.00    +0.253 C 
ATOM     22  O   UNL     1       3.071   5.015   2.600  0.00  0.00    -0.270 OA
ATOM     23  N   UNL     1       3.806   3.792   0.897  0.00  0.00    -0.263 N 
ATOM     24  H   UNL     1       3.618   2.983   0.176  0.00  0.00    +0.157 HD
BRANCH  21  30
ATOM     25  C   UNL     1      -1.667   3.401   3.791  0.00  0.00    +0.047 C 
ATOM     26  C   UNL     1      -0.607   3.043   2.782  0.00  0.00    -0.007 A 
ATOM     27  C   UNL     1      -0.837   2.032   1.870  0.00  0.00    +0.022 A 
ATOM     28  C   UNL     1       0.135   1.691   0.942  0.00  0.00    +0.019 A 
ATOM     29  C   UNL     1       1.337   2.366   0.913  0.00  0.00    +0.032 A 
ATOM     30  C   UNL     1       1.580   3.395   1.827  0.00  0.00    +0.080 A 
ATOM     31  C   UNL     1       0.597   3.732   2.768  0.00  0.00    +0.135 A 
ATOM     32 BR   UNL     1      -0.193   0.299  -0.296  0.00  0.00    -0.050 Br
BRANCH  31  33
ATOM     33  O   UNL     1       0.821   4.729   3.661  0.00  0.00    -0.494 OA
ATOM     34  C   UNL     1       0.437   6.048   3.270  0.00  0.00    +0.277 C 
ENDBRANCH  31  33
ENDBRANCH  21  30
ENDBRANCH  19  23
ENDBRANCH   1  19
TORSDOF 8
