REMARK  Name = ZINC09562877
REMARK  9 active torsions:
REMARK  status: ('A' for Active; 'I' for Inactive)
REMARK    1  A    between atoms: C_1  and  C_2
REMARK    2  A    between atoms: C_5  and  N_9
REMARK    3  A    between atoms: C_6  and  C_8
REMARK    4  A    between atoms: N_9  and  S_10
REMARK    5  A    between atoms: S_10  and  C_13
REMARK    6  A    between atoms: C_16  and  N_22
REMARK    7  A    between atoms: C_17  and  N_19
REMARK    8  A    between atoms: C_27  and  C_28
REMARK    9  A    between atoms: C_27  and  N_62
REMARK                            x       y       z     vdW  Elec       q    Type
REMARK                         _______ _______ _______ _____ _____    ______ ____
ROOT
ATOM      1  C   UNL     1       1.262  -3.329   7.411  0.00  0.00    +0.111 A 
ATOM      2  C   UNL     1       1.184  -4.108   6.271  0.00  0.00    +0.031 A 
ATOM      3  C   UNL     1       1.294  -3.525   5.025  0.00  0.00    +0.027 A 
ATOM      4  C   UNL     1       1.484  -2.153   4.916  0.00  0.00    +0.060 A 
ATOM      5  C   UNL     1       1.568  -1.373   6.063  0.00  0.00    +0.149 A 
ATOM      6  C   UNL     1       1.451  -1.963   7.306  0.00  0.00    +0.063 A 
ENDROOT
BRANCH   4   7
ATOM      7  N   UNL     1       1.597  -1.559   3.657  0.00  0.00    -0.332 N 
ATOM      8  C   UNL     1       2.801  -2.029   2.959  0.00  0.00    +0.086 C 
ATOM      9  C   UNL     1       2.930  -1.297   1.620  0.00  0.00    -0.059 C 
ATOM     10  C   UNL     1       0.522  -1.075   1.511  0.00  0.00    -0.059 C 
ATOM     11  C   UNL     1       0.394  -1.806   2.849  0.00  0.00    +0.086 C 
ATOM     12  N   UNL     1       1.725  -1.572   0.810  0.00  0.00    +0.384 N 
ATOM     13  H   UNL     1       1.637  -2.586   0.675  0.00  0.00    -0.081 HD
BRANCH  12  14
ATOM     14  C   UNL     1       1.845  -0.920  -0.512  0.00  0.00    -0.043 C 
BRANCH  14  15
ATOM     15  C   UNL     1       0.718  -1.393  -1.392  0.00  0.00    -0.064 A 
ATOM     16  C   UNL     1       0.877  -2.523  -2.172  0.00  0.00    +0.002 A 
ATOM     17  C   UNL     1      -0.159  -2.959  -2.976  0.00  0.00    +0.000 A 
ATOM     18  C   UNL     1      -1.351  -2.260  -3.008  0.00  0.00    +0.000 A 
ATOM     19  C   UNL     1      -1.509  -1.127  -2.232  0.00  0.00    +0.000 A 
ATOM     20  C   UNL     1      -0.474  -0.693  -1.424  0.00  0.00    +0.002 A 
ENDBRANCH  14  15
ENDBRANCH  12  14
ENDBRANCH   4   7
BRANCH   1  21
ATOM     21  S   UNL     1       1.120  -4.077   9.000  0.00  0.00    +0.072 S 
ATOM     22  O   UNL     1       0.680  -3.061   9.890  0.00  0.00    -0.150 OA
ATOM     23  O   UNL     1       0.403  -5.290   8.814  0.00  0.00    -0.150 OA
BRANCH  21  24
ATOM     24  N   UNL     1       2.647  -4.500   9.480  0.00  0.00    -0.216 N 
ATOM     25  H   UNL     1       2.858  -5.428   9.664  0.00  0.00    +0.174 HD
BRANCH  24  30
ATOM     26  C   UNL     1       6.644  -0.518  10.053  0.00  0.00    +0.044 C 
ATOM     27  C   UNL     1       5.582  -1.576   9.900  0.00  0.00    -0.050 A 
ATOM     28  C   UNL     1       4.269  -1.288  10.226  0.00  0.00    +0.005 A 
ATOM     29  C   UNL     1       3.293  -2.255  10.088  0.00  0.00    +0.025 A 
ATOM     30  C   UNL     1       3.631  -3.519   9.621  0.00  0.00    +0.051 A 
ATOM     31  C   UNL     1       4.952  -3.806   9.298  0.00  0.00    -0.028 A 
ATOM     32  C   UNL     1       5.922  -2.832   9.434  0.00  0.00    +0.008 A 
ATOM     33  C   UNL     1       5.324  -5.177   8.797  0.00  0.00    +0.046 C 
ENDBRANCH  24  30
ENDBRANCH  21  24
ENDBRANCH   1  21
BRANCH   5  34
ATOM     34  N   UNL     1       1.776   0.088   5.952  0.00  0.00    +0.058 N 
ATOM     35  O   UNL     1       1.942   0.757   6.956  0.00  0.00    -0.126 OA
ATOM     36  O   UNL     1       1.782   0.621   4.857  0.00  0.00    -0.126 OA
ENDBRANCH   5  34
TORSDOF 7
