REMARK  Name = ZINC12520399
REMARK  10 active torsions:
REMARK  status: ('A' for Active; 'I' for Inactive)
REMARK    1  A    between atoms: C_1  and  C_2
REMARK    2  A    between atoms: C_5  and  S_25
REMARK    3  A    between atoms: C_7  and  C_8
REMARK    4  A    between atoms: N_10  and  C_11
REMARK    5  A    between atoms: C_19  and  C_21
REMARK    6  A    between atoms: C_21  and  C_22
REMARK    7  A    between atoms: C_21  and  C_23
REMARK    8  A    between atoms: C_21  and  C_24
REMARK    9  A    between atoms: S_25  and  N_28
REMARK   10  A    between atoms: N_28  and  C_29
REMARK                            x       y       z     vdW  Elec       q    Type
REMARK                         _______ _______ _______ _____ _____    ______ ____
ROOT
ATOM      1  C   UNL     1       0.971  -0.266   2.642  0.00  0.00    +0.249 C 
ATOM      2  O   UNL     1       1.548   0.799   2.744  0.00  0.00    -0.270 OA
ATOM      3  N   UNL     1       0.421  -0.842   3.729  0.00  0.00    -0.281 N 
ATOM      4  H   UNL     1       0.027  -1.725   3.663  0.00  0.00    +0.155 HD
ENDROOT
BRANCH   3   5
ATOM      5  C   UNL     1       0.418  -0.164   4.954  0.00  0.00    +0.036 A 
ATOM      6  C   UNL     1       0.286   1.224   4.978  0.00  0.00    +0.025 A 
ATOM      7  C   UNL     1       0.281   1.900   6.164  0.00  0.00    +0.032 A 
ATOM      8  C   UNL     1       0.409   1.201   7.367  0.00  0.00    +0.089 A 
ATOM      9  C   UNL     1       0.542  -0.198   7.346  0.00  0.00    +0.068 A 
ATOM     10  C   UNL     1       0.540  -0.875   6.135  0.00  0.00    +0.051 A 
ATOM     11  N   UNL     1       0.647  -0.591   8.666  0.00  0.00    -0.341 N 
ATOM     12  H   UNL     1       0.750  -1.499   8.989  0.00  0.00    +0.167 HD
ATOM     13  C   UNL     1       0.578   0.534   9.430  0.00  0.00    +0.114 A 
ATOM     14  N   UNL     1       0.439   1.582   8.671  0.00  0.00    -0.232 NA
BRANCH  13  15
ATOM     15  C   UNL     1       0.651   0.562  10.935  0.00  0.00    +0.020 C 
ATOM     16  C   UNL     1       2.097   0.332  11.380  0.00  0.00    +0.018 C 
ATOM     17  C   UNL     1       0.171   1.923  11.444  0.00  0.00    +0.018 C 
ATOM     18  C   UNL     1      -0.241  -0.541  11.509  0.00  0.00    +0.018 C 
ENDBRANCH  13  15
ENDBRANCH   3   5
BRANCH   1  25
ATOM     19  C   UNL     1       1.900   1.111   0.272  0.00  0.00    +0.044 C 
ATOM     20  C   UNL     1       1.318  -0.276   0.175  0.00  0.00    -0.038 A 
ATOM     21  C   UNL     1       1.229  -0.904  -1.050  0.00  0.00    +0.006 A 
ATOM     22  C   UNL     1       0.696  -2.177  -1.141  0.00  0.00    +0.029 A 
ATOM     23  C   UNL     1       0.247  -2.829  -0.006  0.00  0.00    +0.106 A 
ATOM     24  C   UNL     1       0.330  -2.213   1.225  0.00  0.00    +0.041 A 
ATOM     25  C   UNL     1       0.873  -0.930   1.325  0.00  0.00    +0.042 A 
BRANCH  23  26
ATOM     26  S   UNL     1      -0.432  -4.450  -0.134  0.00  0.00    +0.058 S 
ATOM     27  O   UNL     1      -1.279  -4.625   0.994  0.00  0.00    -0.153 OA
ATOM     28  O   UNL     1      -0.900  -4.590  -1.468  0.00  0.00    -0.153 OA
BRANCH  26  29
ATOM     29  N   UNL     1       0.820  -5.520   0.044  0.00  0.00    -0.193 NA
ATOM     30  C   UNL     1       1.540  -5.601   1.317  0.00  0.00    +0.127 C 
ATOM     31  H   UNL     1       1.076  -6.094  -0.696  0.00  0.00    +0.148 HD
ENDBRANCH  26  29
ENDBRANCH  23  26
ENDBRANCH   1  25
TORSDOF 5
