REMARK  Name = ZINC63375437
REMARK  10 active torsions:
REMARK  status: ('A' for Active; 'I' for Inactive)
REMARK    1  A    between atoms: C_1  and  C_2
REMARK    2  A    between atoms: C_2  and  C_4
REMARK    3  A    between atoms: C_2  and  N_18
REMARK    4  A    between atoms: N_6  and  C_7
REMARK    5  A    between atoms: C_7  and  C_8
REMARK    6  A    between atoms: C_8  and  C_9
REMARK    7  A    between atoms: C_19  and  C_21
REMARK    8  A    between atoms: N_26  and  C_28
REMARK    9  A    between atoms: C_31  and  O_34
REMARK   10  A    between atoms: O_34  and  C_35
REMARK                            x       y       z     vdW  Elec       q    Type
REMARK                         _______ _______ _______ _____ _____    ______ ____
ROOT
ATOM      1  C   UNL     1      -0.056   1.484   0.001  0.00  0.00    +0.038 C 
ATOM      2  C   UNL     1      -0.023  -0.046   0.004  0.00  0.00    +0.156 C 
ENDROOT
BRANCH   2   3
ATOM      3  C   UNL     1       0.681  -0.535  -1.236  0.00  0.00    +0.233 C 
ATOM      4  O   UNL     1       1.683  -1.211  -1.137  0.00  0.00    -0.274 OA
ATOM      5  N   UNL     1       0.196  -0.223  -2.454  0.00  0.00    -0.313 N 
ATOM      6  H   UNL     1      -0.606   0.318  -2.533  0.00  0.00    +0.149 HD
BRANCH   5   7
ATOM      7  C   UNL     1       0.880  -0.699  -3.659  0.00  0.00    +0.108 C 
BRANCH   7   8
ATOM      8  C   UNL     1       0.130  -0.207  -4.899  0.00  0.00    +0.052 C 
BRANCH   8   9
ATOM      9  C   UNL     1       0.833  -0.697  -6.138  0.00  0.00    -0.040 C 
ATOM     10  C   UNL     1       0.542  -1.808  -6.853  0.00  0.00    -0.001 A 
ATOM     11  C   UNL     1      -0.476  -2.853  -6.696  0.00  0.00    +0.010 A 
ATOM     12  C   UNL     1      -0.520  -3.865  -7.592  0.00  0.00    +0.001 A 
ATOM     13  C   UNL     1       0.380  -3.941  -8.663  0.00  0.00    +0.002 A 
ATOM     14  C   UNL     1       1.343  -3.019  -8.874  0.00  0.00    +0.026 A 
ATOM     15  C   UNL     1       1.481  -1.911  -7.993  0.00  0.00    +0.043 A 
ATOM     16  N   UNL     1       2.319  -0.903  -7.984  0.00  0.00    -0.380 N 
ATOM     17  C   UNL     1       2.003  -0.042  -6.838  0.00  0.00    +0.144 C 
ATOM     18  H   UNL     1       3.027  -0.749  -8.629  0.00  0.00    +0.160 HD
ENDBRANCH   8   9
ENDBRANCH   7   8
ENDBRANCH   5   7
ENDBRANCH   2   3
BRANCH   2  19
ATOM     19  N   UNL     1       0.696  -0.516   1.191  0.00  0.00    -0.304 N 
ATOM     20  C   UNL     1       0.043  -0.657   2.361  0.00  0.00    +0.219 C 
ATOM     21  O   UNL     1      -1.139  -0.394   2.432  0.00  0.00    -0.275 OA
ATOM     22  H   UNL     1       1.641  -0.727   1.134  0.00  0.00    +0.149 HD
BRANCH  20  23
ATOM     23  C   UNL     1       0.782  -1.141   3.583  0.00  0.00    +0.101 C 
ATOM     24  C   UNL     1       1.869  -0.128   4.009  0.00  0.00    +0.110 C 
ATOM     25  C   UNL     1       1.180   0.746   5.034  0.00  0.00    +0.221 C 
ATOM     26  O   UNL     1       1.585   1.826   5.410  0.00  0.00    -0.275 OA
ATOM     27  N   UNL     1       0.055   0.152   5.467  0.00  0.00    -0.271 N 
ATOM     28  C   UNL     1      -0.143  -1.152   4.820  0.00  0.00    +0.127 C 
BRANCH  27  29
ATOM     29  C   UNL     1      -0.817   0.705   6.413  0.00  0.00    +0.036 A 
ATOM     30  C   UNL     1      -0.487   1.893   7.052  0.00  0.00    +0.027 A 
ATOM     31  C   UNL     1      -1.347   2.438   7.984  0.00  0.00    +0.047 A 
ATOM     32  C   UNL     1      -2.541   1.799   8.284  0.00  0.00    +0.120 A 
ATOM     33  C   UNL     1      -2.872   0.612   7.646  0.00  0.00    +0.047 A 
ATOM     34  C   UNL     1      -2.015   0.069   6.709  0.00  0.00    +0.027 A 
BRANCH  32  35
ATOM     35  O   UNL     1      -3.388   2.336   9.202  0.00  0.00    -0.495 OA
ATOM     36  C   UNL     1      -4.600   1.625   9.461  0.00  0.00    +0.277 C 
ENDBRANCH  32  35
ENDBRANCH  27  29
ENDBRANCH  20  23
ENDBRANCH   2  19
TORSDOF 8
