REMARK  Name = ZINC58326845
REMARK  7 active torsions:
REMARK  status: ('A' for Active; 'I' for Inactive)
REMARK    1  A    between atoms: C_1  and  C_2
REMARK    2  A    between atoms: C_5  and  C_24
REMARK    3  A    between atoms: C_7  and  N_8
REMARK    4  A    between atoms: C_9  and  C_11
REMARK    5  A    between atoms: C_15  and  S_17
REMARK    6  A    between atoms: S_17  and  N_20
REMARK    7  A    between atoms: N_20  and  C_21
REMARK                            x       y       z     vdW  Elec       q    Type
REMARK                         _______ _______ _______ _____ _____    ______ ____
ROOT
ATOM      1  N   UNL     1       0.025  -0.008   2.417  0.00  0.00    -0.281 N 
ATOM      2  C   UNL     1      -0.057  -0.683   3.580  0.00  0.00    +0.248 C 
ATOM      3  O   UNL     1      -0.040  -1.899   3.580  0.00  0.00    -0.270 OA
ATOM      4  H   UNL     1       0.078   0.961   2.421  0.00  0.00    +0.155 HD
ENDROOT
BRANCH   1  11
ATOM      5  C   UNL     1      -1.265   1.184   0.183  0.00  0.00    +0.045 C 
ATOM      6  C   UNL     1      -0.586  -0.158   0.085  0.00  0.00    -0.029 A 
ATOM      7  C   UNL     1      -0.576  -0.839  -1.118  0.00  0.00    +0.006 A 
ATOM      8  C   UNL     1       0.044  -2.068  -1.215  0.00  0.00    +0.013 A 
ATOM      9  C   UNL     1       0.664  -2.627  -0.096  0.00  0.00    +0.040 A 
ATOM     10  C   UNL     1       0.654  -1.940   1.117  0.00  0.00    +0.036 A 
ATOM     11  C   UNL     1       0.033  -0.704   1.203  0.00  0.00    +0.037 A 
BRANCH   9  12
ATOM     12  C   UNL     1       1.328  -3.944  -0.197  0.00  0.00    +0.248 A 
ATOM     13  N   UNL     1       1.940  -4.584   0.771  0.00  0.00    -0.108 NA
ATOM     14  N   UNL     1       2.398  -5.699   0.321  0.00  0.00    -0.116 NA
ATOM     15  C   UNL     1       2.099  -5.813  -0.943  0.00  0.00    +0.332 A 
ATOM     16  O   UNL     1       1.413  -4.714  -1.301  0.00  0.00    -0.423 OA
ENDBRANCH   9  12
ENDBRANCH   1  11
BRANCH   2  17
ATOM     17  C   UNL     1      -0.166   0.054   4.857  0.00  0.00    +0.039 A 
ATOM     18  C   UNL     1      -0.191   1.450   4.860  0.00  0.00    +0.013 A 
ATOM     19  C   UNL     1      -0.293   2.131   6.055  0.00  0.00    +0.003 A 
ATOM     20  C   UNL     1      -0.371   1.435   7.248  0.00  0.00    +0.028 A 
ATOM     21  C   UNL     1      -0.347   0.052   7.252  0.00  0.00    +0.106 A 
ATOM     22  C   UNL     1      -0.250  -0.643   6.063  0.00  0.00    +0.041 A 
BRANCH  21  23
ATOM     23  S   UNL     1      -0.447  -0.825   8.777  0.00  0.00    +0.059 S 
ATOM     24  O   UNL     1       0.145  -2.098   8.553  0.00  0.00    -0.153 OA
ATOM     25  O   UNL     1       0.014   0.062   9.786  0.00  0.00    -0.153 OA
BRANCH  23  26
ATOM     26  N   UNL     1      -2.052  -1.097   9.081  0.00  0.00    -0.187 NA
ATOM     27  H   UNL     1      -2.476  -0.683   9.849  0.00  0.00    +0.148 HD
BRANCH  26  28
ATOM     28  C   UNL     1      -2.830  -1.962   8.191  0.00  0.00    +0.077 C 
ATOM     29  C   UNL     1      -4.304  -1.612   7.978  0.00  0.00    +0.022 C 
ATOM     30  C   UNL     1      -3.921  -2.827   8.825  0.00  0.00    +0.022 C 
ENDBRANCH  26  28
ENDBRANCH  23  26
ENDBRANCH  21  23
ENDBRANCH   2  17
TORSDOF 6
