REMARK  Name = ZINC01176688
REMARK  8 active torsions:
REMARK  status: ('A' for Active; 'I' for Inactive)
REMARK    1  A    between atoms: C_1  and  C_2
REMARK    2  A    between atoms: C_4  and  N_27
REMARK    3  A    between atoms: C_7  and  N_8
REMARK    4  A    between atoms: C_9  and  C_26
REMARK    5  A    between atoms: C_11  and  C_14
REMARK    6  A    between atoms: C_12  and  C_13
REMARK    7  A    between atoms: N_18  and  C_25
REMARK    8  A    between atoms: N_21  and  C_24
REMARK                            x       y       z     vdW  Elec       q    Type
REMARK                         _______ _______ _______ _____ _____    ______ ____
ROOT
ATOM      1  N   UNL     1       1.689  -2.301  -0.382  0.00  0.00    -0.317 N 
ATOM      2  C   UNL     1       2.075  -3.205  -1.333  0.00  0.00    +0.022 A 
ATOM      3  C   UNL     1       2.003  -4.444  -0.820  0.00  0.00    +0.031 A 
ATOM      4  C   UNL     1       1.533  -4.295   0.565  0.00  0.00    -0.003 A 
ATOM      5  C   UNL     1       1.366  -2.932   0.763  0.00  0.00    +0.028 A 
ATOM      6  C   UNL     1       0.901  -2.273   2.036  0.00  0.00    +0.064 C 
ATOM      7  C   UNL     1       2.512  -2.865  -2.734  0.00  0.00    +0.064 C 
ENDROOT
BRANCH   4   8
ATOM      8  C   UNL     1       1.304  -5.328   1.505  0.00  0.00    +0.028 C 
ATOM      9  C   UNL     1       0.631  -6.476   1.122  0.00  0.00    +0.100 C 
ATOM     10  C   UNL     1      -0.037  -6.575  -0.189  0.00  0.00    +0.257 C 
ATOM     11  O   UNL     1      -0.015  -5.646  -0.974  0.00  0.00    -0.269 OA
ATOM     12  N   UNL     1      -0.668  -7.727  -0.497  0.00  0.00    -0.252 N 
ATOM     13  C   UNL     1      -0.706  -8.757   0.360  0.00  0.00    +0.148 C 
ATOM     14  S   UNL     1      -1.538 -10.176  -0.114  0.00  0.00    -0.018 S 
ATOM     15  N   UNL     1      -0.127  -8.735   1.569  0.00  0.00    -0.252 N 
ATOM     16  C   UNL     1       0.545  -7.651   2.009  0.00  0.00    +0.257 C 
ATOM     17  O   UNL     1       1.067  -7.643   3.108  0.00  0.00    -0.269 OA
ATOM     18  C   UNL     1      -0.226  -9.914   2.432  0.00  0.00    +0.140 C 
ATOM     19  C   UNL     1      -1.335  -7.853  -1.796  0.00  0.00    +0.140 C 
ENDBRANCH   4   8
BRANCH   1  26
ATOM     20  C   UNL     1       4.019  -0.781   0.222  0.00  0.00    +0.046 C 
ATOM     21  C   UNL     1       2.756  -0.135  -0.288  0.00  0.00    -0.024 A 
ATOM     22  C   UNL     1       2.707   1.233  -0.474  0.00  0.00    +0.038 A 
ATOM     23  C   UNL     1       1.549   1.827  -0.942  0.00  0.00    +0.127 A 
ATOM     24  C   UNL     1       0.437   1.054  -1.225  0.00  0.00    +0.035 A 
ATOM     25  C   UNL     1       0.481  -0.314  -1.040  0.00  0.00    +0.028 A 
ATOM     26  C   UNL     1       1.642  -0.913  -0.570  0.00  0.00    +0.050 A 
BRANCH  23  27
ATOM     27  N   UNL     1       1.500   3.293  -1.142  0.00  0.00    +0.056 N 
ATOM     28  O   UNL     1       0.481   3.817  -1.554  0.00  0.00    -0.126 OA
ATOM     29  O   UNL     1       2.478   3.974  -0.893  0.00  0.00    -0.126 OA
ENDBRANCH  23  27
ENDBRANCH   1  26
TORSDOF 3
