REMARK  Name = ZINC06607298
REMARK  9 active torsions:
REMARK  status: ('A' for Active; 'I' for Inactive)
REMARK    1  A    between atoms: C_1  and  C_2
REMARK    2  A    between atoms: C_5  and  S_8
REMARK    3  A    between atoms: S_8  and  C_9
REMARK    4  A    between atoms: C_10  and  C_15
REMARK    5  A    between atoms: N_17  and  C_18
REMARK    6  A    between atoms: C_20  and  C_25
REMARK    7  A    between atoms: C_20  and  C_26
REMARK    8  A    between atoms: C_21  and  C_23
REMARK    9  A    between atoms: C_21  and  C_24
REMARK                            x       y       z     vdW  Elec       q    Type
REMARK                         _______ _______ _______ _____ _____    ______ ____
ROOT
ATOM      1  C   UNL     1      -0.144   5.277   0.027  0.00  0.00    +0.247 C 
ATOM      2  O   UNL     1      -1.227   5.832   0.037  0.00  0.00    -0.270 OA
ATOM      3  N   UNL     1       0.987   6.009   0.017  0.00  0.00    -0.309 N 
ATOM      4  H   UNL     1       1.851   5.567   0.009  0.00  0.00    +0.149 HD
ENDROOT
BRANCH   3   5
ATOM      5  C   UNL     1       0.914   7.476   0.019  0.00  0.00    +0.071 C 
ATOM      6  C   UNL     1       0.785   7.975  -1.419  0.00  0.00    +0.009 C 
ATOM      7  C   UNL     1       0.730   9.501  -1.450  0.00  0.00    -0.072 C 
ATOM      8  C   UNL     1       2.160   9.569   0.614  0.00  0.00    -0.072 C 
ATOM      9  C   UNL     1       2.200   8.043   0.618  0.00  0.00    +0.009 C 
ATOM     10  C   UNL     1       1.225  10.060   1.725  0.00  0.00    -0.010 C 
ATOM     11  C   UNL     1       3.580  10.073   0.955  0.00  0.00    -0.010 C 
ATOM     12  C   UNL     1      -0.654   9.972  -0.987  0.00  0.00    -0.010 C 
ATOM     13  C   UNL     1       0.895   9.943  -2.921  0.00  0.00    -0.010 C 
ATOM     14  N   UNL     1       1.817  10.183  -0.697  0.00  0.00    +0.386 N 
ATOM     15  H   UNL     1       1.526  11.153  -0.528  0.00  0.00    -0.084 HD
ATOM     16  H   UNL     1       2.661  10.176  -1.282  0.00  0.00    -0.084 HD
ENDBRANCH   3   5
BRANCH   1  18
ATOM     17  C   UNL     1      -1.243   3.029   0.034  0.00  0.00    +0.114 A 
ATOM     18  C   UNL     1      -0.070   3.805   0.025  0.00  0.00    +0.069 A 
ATOM     19  C   UNL     1       1.168   3.154   0.012  0.00  0.00    +0.017 A 
ATOM     20  C   UNL     1       1.183   1.770   0.010  0.00  0.00    +0.020 A 
ATOM     21  C   UNL     1      -0.013   1.075   0.020  0.00  0.00    +0.112 A 
ATOM     22  N   UNL     1      -1.170   1.707   0.026  0.00  0.00    -0.248 NA
BRANCH  17  23
ATOM     23  S   UNL     1      -2.817   3.821   0.050  0.00  0.00    -0.069 S 
BRANCH  23  28
ATOM     24  C   UNL     1      -6.419  -0.996  -0.461  0.00  0.00    +0.044 C 
ATOM     25  C   UNL     1      -5.519   0.206  -0.333  0.00  0.00    -0.050 A 
ATOM     26  C   UNL     1      -5.226   0.719   0.917  0.00  0.00    +0.004 A 
ATOM     27  C   UNL     1      -4.403   1.821   1.038  0.00  0.00    +0.015 A 
ATOM     28  C   UNL     1      -3.868   2.414  -0.099  0.00  0.00    +0.014 A 
ATOM     29  C   UNL     1      -4.169   1.899  -1.354  0.00  0.00    +0.015 A 
ATOM     30  C   UNL     1      -4.989   0.794  -1.467  0.00  0.00    +0.004 A 
ENDBRANCH  23  28
ENDBRANCH  17  23
ENDBRANCH   1  18
TORSDOF 4
