REMARK  Name = ZINC63271275
REMARK  10 active torsions:
REMARK  status: ('A' for Active; 'I' for Inactive)
REMARK    1  A    between atoms: C_1  and  O_2
REMARK    2  A    between atoms: O_2  and  C_3
REMARK    3  A    between atoms: C_6  and  C_11
REMARK    4  A    between atoms: C_8  and  O_9
REMARK    5  A    between atoms: O_9  and  C_10
REMARK    6  A    between atoms: C_11  and  C_12
REMARK    7  A    between atoms: C_12  and  N_13
REMARK    8  A    between atoms: C_14  and  C_16
REMARK    9  A    between atoms: C_16  and  C_17
REMARK   10  A    between atoms: C_17  and  N_18
REMARK                            x       y       z     vdW  Elec       q    Type
REMARK                         _______ _______ _______ _____ _____    ______ ____
ROOT
ATOM      1  C   UNL     1       8.106  -4.545  -6.020  0.00  0.00    +0.115 C 
ENDROOT
BRANCH   1   2
ATOM      2  N   UNL     1       8.758  -5.191  -7.162  0.00  0.00    -0.299 N 
ATOM      3  C   UNL     1      10.073  -5.480  -7.113  0.00  0.00    +0.302 C 
ATOM      4  O   UNL     1      10.739  -5.123  -6.160  0.00  0.00    -0.253 OA
ATOM      5  N   UNL     1      10.651  -6.164  -8.120  0.00  0.00    -0.283 N 
ATOM      6  C   UNL     1       9.871  -6.487  -9.319  0.00  0.00    +0.114 C 
ATOM      7  C   UNL     1       9.863  -8.012  -9.531  0.00  0.00    +0.052 C 
ATOM      8  C   UNL     1      11.283  -8.483  -9.337  0.00  0.00    -0.036 C 
ATOM      9  C   UNL     1      12.073  -9.229 -10.100  0.00  0.00    -0.001 A 
ATOM     10  C   UNL     1      11.821  -9.956 -11.354  0.00  0.00    +0.010 A 
ATOM     11  C   UNL     1      12.882 -10.617 -11.887  0.00  0.00    +0.001 A 
ATOM     12  C   UNL     1      14.154 -10.626 -11.306  0.00  0.00    +0.002 A 
ATOM     13  C   UNL     1      14.473  -9.991 -10.150  0.00  0.00    +0.026 A 
ATOM     14  C   UNL     1      13.437  -9.269  -9.490  0.00  0.00    +0.043 A 
ATOM     15  N   UNL     1      13.457  -8.599  -8.376  0.00  0.00    -0.376 N 
ATOM     16  C   UNL     1      12.105  -8.108  -8.109  0.00  0.00    +0.124 C 
ATOM     17  C   UNL     1      12.060  -6.575  -8.007  0.00  0.00    +0.138 C 
ATOM     18  H   UNL     1       8.242  -5.410  -7.954  0.00  0.00    +0.150 HD
ATOM     19  H   UNL     1      14.236  -8.451  -7.816  0.00  0.00    +0.160 HD
ENDBRANCH   1   2
BRANCH   1  20
ATOM     20  C   UNL     1       6.624  -4.330  -6.333  0.00  0.00    +0.114 C 
BRANCH  20  22
ATOM     21  N   UNL     1       4.638  -3.377  -5.207  0.00  0.00    -0.315 N 
ATOM     22  C   UNL     1       5.954  -3.666  -5.158  0.00  0.00    +0.215 C 
ATOM     23  O   UNL     1       6.598  -3.391  -4.168  0.00  0.00    -0.276 OA
ATOM     24  H   UNL     1       4.123  -3.596  -5.999  0.00  0.00    +0.149 HD
BRANCH  21  25
ATOM     25  C   UNL     1       3.987  -2.731  -4.065  0.00  0.00    +0.109 C 
BRANCH  25  26
ATOM     26  C   UNL     1       2.505  -2.516  -4.378  0.00  0.00    +0.054 C 
BRANCH  26  30
ATOM     27  C   UNL     1       0.603  -0.625  -1.047  0.00  0.00    +0.161 A 
ATOM     28  C   UNL     1       1.167   0.142  -2.053  0.00  0.00    +0.049 A 
ATOM     29  C   UNL     1       1.781  -0.472  -3.129  0.00  0.00    +0.007 A 
ATOM     30  C   UNL     1       1.834  -1.852  -3.203  0.00  0.00    -0.042 A 
ATOM     31  C   UNL     1       1.273  -2.623  -2.203  0.00  0.00    +0.053 A 
ATOM     32  C   UNL     1       0.662  -2.014  -1.119  0.00  0.00    +0.162 A 
BRANCH  27  34
ATOM     33  C   UNL     1      -0.023   1.406   0.020  0.00  0.00    +0.277 C 
ATOM     34  O   UNL     1      -0.001  -0.023   0.012  0.00  0.00    -0.491 OA
ENDBRANCH  27  34
BRANCH  32  35
ATOM     35  O   UNL     1       0.115  -2.771  -0.130  0.00  0.00    -0.491 OA
ATOM     36  C   UNL     1       0.212  -4.190  -0.271  0.00  0.00    +0.277 C 
ENDBRANCH  32  35
ENDBRANCH  26  30
ENDBRANCH  25  26
ENDBRANCH  21  25
ENDBRANCH  20  22
ENDBRANCH   1  20
TORSDOF 8
