REMARK  Name = ZINC20463850
REMARK  7 active torsions:
REMARK  status: ('A' for Active; 'I' for Inactive)
REMARK    1  A    between atoms: C_1  and  N_2
REMARK    2  A    between atoms: C_6  and  C_7
REMARK    3  A    between atoms: C_7  and  N_8
REMARK    4  A    between atoms: N_8  and  C_9
REMARK    5  A    between atoms: C_18  and  N_23
REMARK    6  A    between atoms: C_20  and  O_22
REMARK    7  A    between atoms: N_26  and  C_29
REMARK                            x       y       z     vdW  Elec       q    Type
REMARK                         _______ _______ _______ _____ _____    ______ ____
ROOT
ATOM      1  C   UNL     1       2.010  -0.505   1.388  0.00  0.00    -0.009 C 
ATOM      2  C   UNL     1       1.501  -0.382  -0.058  0.00  0.00    +0.136 C 
ATOM      3  C   UNL     1       0.002  -0.004   0.002  0.00  0.00    +0.193 C 
ATOM      4  O   UNL     1      -0.017   1.435   0.010  0.00  0.00    -0.347 OA
ATOM      5  C   UNL     1       1.354   1.873  -0.001  0.00  0.00    +0.270 C 
ATOM      6  O   UNL     1       2.105   0.808  -0.624  0.00  0.00    -0.346 OA
ATOM      7  C   UNL     1       1.833   1.987   1.455  0.00  0.00    +0.140 C 
ATOM      8  C   UNL     1       1.487   0.690   2.193  0.00  0.00    +0.125 C 
ENDROOT
BRANCH   7   9
ATOM      9  N   UNL     1       3.287   2.195   1.479  0.00  0.00    -0.290 NA
ATOM     10  C   UNL     1       3.792   2.219   2.859  0.00  0.00    +0.104 C 
ATOM     11  C   UNL     1       5.316   2.357   2.839  0.00  0.00    +0.120 C 
ATOM     12  N   UNL     1       5.685   3.587   2.125  0.00  0.00    -0.327 N 
ATOM     13  C   UNL     1       5.179   3.564   0.745  0.00  0.00    +0.120 C 
ATOM     14  C   UNL     1       3.655   3.425   0.765  0.00  0.00    +0.104 C 
BRANCH  12  15
ATOM     15  C   UNL     1       7.067   3.785   2.148  0.00  0.00    +0.030 A 
ATOM     16  C   UNL     1       7.771   3.922   0.959  0.00  0.00    +0.023 A 
ATOM     17  C   UNL     1       9.137   4.122   0.986  0.00  0.00    +0.002 A 
ATOM     18  C   UNL     1       9.806   4.175   2.195  0.00  0.00    +0.000 A 
ATOM     19  C   UNL     1       9.109   4.034   3.381  0.00  0.00    +0.002 A 
ATOM     20  C   UNL     1       7.742   3.839   3.361  0.00  0.00    +0.023 A 
ENDBRANCH  12  15
ENDBRANCH   7   9
BRANCH   1  21
ATOM     21  N   UNL     1       3.479  -0.500   1.395  0.00  0.00    +0.388 N 
ATOM     22  H   UNL     1       3.825  -0.134   2.373  0.00  0.00    -0.085 HD
ATOM     23  H   UNL     1       3.833   0.176   0.604  0.00  0.00    -0.085 HD
BRANCH  21  24
ATOM     24  C   UNL     1       4.011  -1.849   1.161  0.00  0.00    -0.028 C 
BRANCH  24  30
ATOM     25  C   UNL     1       5.857  -1.162  -1.234  0.00  0.00    +0.148 C 
ATOM     26  N   UNL     1       6.319  -1.501   0.115  0.00  0.00    -0.355 N 
ATOM     27  C   UNL     1       7.620  -1.560   0.518  0.00  0.00    +0.085 A 
ATOM     28  C   UNL     1       7.642  -1.908   1.820  0.00  0.00    +0.019 A 
ATOM     29  C   UNL     1       6.306  -2.063   2.239  0.00  0.00    +0.021 A 
ATOM     30  C   UNL     1       5.518  -1.804   1.175  0.00  0.00    +0.001 A 
ENDBRANCH  24  30
ENDBRANCH  21  24
ENDBRANCH   1  21
BRANCH   8  31
ATOM     31  O   UNL     1       0.069   0.585   2.335  0.00  0.00    -0.392 OA
ATOM     32  H   UNL     1      -0.487   1.357   2.886  0.00  0.00    +0.210 HD
ENDBRANCH   8  31
TORSDOF 6
