REMARK  Name = ZINC21251715
REMARK  8 active torsions:
REMARK  status: ('A' for Active; 'I' for Inactive)
REMARK    1  A    between atoms: C_1  and  C_2
REMARK    2  A    between atoms: C_2  and  O_3
REMARK    3  A    between atoms: O_3  and  C_4
REMARK    4  A    between atoms: C_7  and  C_11
REMARK    5  A    between atoms: C_16  and  C_21
REMARK    6  A    between atoms: C_24  and  N_27
REMARK    7  A    between atoms: N_27  and  C_28
REMARK    8  A    between atoms: N_27  and  C_29
REMARK                            x       y       z     vdW  Elec       q    Type
REMARK                         _______ _______ _______ _____ _____    ______ ____
ROOT
ATOM      1  C   UNL     1       4.427   1.976  -1.281  0.00  0.00    +0.136 C 
ATOM      2  C   UNL     1       5.148   0.689  -1.601  0.00  0.00    +0.036 C 
ATOM      3  C   UNL     1       4.874  -0.519  -1.079  0.00  0.00    +0.017 C 
ATOM      4  C   UNL     1       5.687  -1.736  -1.487  0.00  0.00    +0.059 C 
ATOM      5  C   UNL     1       6.142  -1.596  -2.938  0.00  0.00    +0.032 C 
ATOM      6  C   UNL     1       6.998  -0.327  -3.038  0.00  0.00    +0.088 C 
ATOM      7  C   UNL     1       6.186   0.835  -2.551  0.00  0.00    +0.163 C 
ATOM      8  O   UNL     1       6.428   1.943  -2.989  0.00  0.00    -0.292 OA
ATOM      9  N   UNL     1       3.902  -0.765  -0.164  0.00  0.00    -0.316 N 
ATOM     10  C   UNL     1       2.596  -0.294  -0.242  0.00  0.00    +0.052 A 
ATOM     11  C   UNL     1       1.508  -1.142  -0.348  0.00  0.00    +0.025 A 
ATOM     12  C   UNL     1       0.231  -0.608  -0.355  0.00  0.00    +0.002 A 
ATOM     13  C   UNL     1       0.045   0.758  -0.242  0.00  0.00    +0.002 A 
ATOM     14  C   UNL     1       1.133   1.607  -0.141  0.00  0.00    +0.025 A 
ATOM     15  C   UNL     1       2.414   1.079  -0.161  0.00  0.00    +0.049 A 
ATOM     16  N   UNL     1       3.539   1.900  -0.140  0.00  0.00    -0.331 N 
ATOM     17  H   UNL     1       4.123  -1.380   0.721  0.00  0.00    +0.152 HD
ATOM     18  H   UNL     1       3.749   2.495   0.761  0.00  0.00    +0.147 HD
ENDROOT
BRANCH   1  22
ATOM     19  C   UNL     1       2.140   3.132  -4.702  0.00  0.00    +0.139 A 
ATOM     20  C   UNL     1       1.848   1.950  -4.037  0.00  0.00    +0.047 A 
ATOM     21  C   UNL     1       2.592   1.577  -2.935  0.00  0.00    +0.009 A 
ATOM     22  C   UNL     1       3.621   2.385  -2.487  0.00  0.00    -0.021 A 
ATOM     23  C   UNL     1       3.915   3.563  -3.147  0.00  0.00    +0.029 A 
ATOM     24  C   UNL     1       3.177   3.940  -4.254  0.00  0.00    +0.083 A 
ATOM     25 CL   UNL     1       3.546   5.420  -5.082  0.00  0.00    -0.080 Cl
BRANCH  19  26
ATOM     26  O   UNL     1       1.413   3.499  -5.790  0.00  0.00    -0.491 OA
BRANCH  26  28
ATOM     27  C   UNL     1      -0.339   3.196  -7.427  0.00  0.00    +0.048 C 
ATOM     28  C   UNL     1       0.362   2.620  -6.194  0.00  0.00    +0.226 C 
ENDBRANCH  26  28
ENDBRANCH  19  26
ENDBRANCH   1  22
BRANCH   5  29
ATOM     29  C   UNL     1       6.961  -2.798  -3.335  0.00  0.00    -0.043 A 
ATOM     30  C   UNL     1       8.128  -3.093  -2.655  0.00  0.00    +0.006 A 
ATOM     31  C   UNL     1       8.877  -4.196  -3.012  0.00  0.00    +0.023 A 
ATOM     32  C   UNL     1       8.463  -5.004  -4.064  0.00  0.00    +0.029 A 
ATOM     33  C   UNL     1       7.293  -4.701  -4.749  0.00  0.00    +0.023 A 
ATOM     34  C   UNL     1       6.546  -3.599  -4.383  0.00  0.00    +0.006 A 
BRANCH  32  35
ATOM     35  N   UNL     1       9.222  -6.118  -4.431  0.00  0.00    -0.336 N 
ATOM     36  C   UNL     1       8.783  -6.969  -5.540  0.00  0.00    +0.129 C 
ATOM     37  C   UNL     1      10.455  -6.435  -3.708  0.00  0.00    +0.129 C 
ENDBRANCH  32  35
ENDBRANCH   5  29
TORSDOF 5
