REMARK  Name = ZINC38989590
REMARK  10 active torsions:
REMARK  status: ('A' for Active; 'I' for Inactive)
REMARK    1  A    between atoms: C_1  and  C_2
REMARK    2  A    between atoms: C_2  and  N_3
REMARK    3  A    between atoms: N_3  and  C_4
REMARK    4  A    between atoms: C_4  and  N_6
REMARK    5  A    between atoms: N_6  and  C_7
REMARK    6  A    between atoms: C_7  and  C_8
REMARK    7  A    between atoms: C_8  and  C_9
REMARK    8  A    between atoms: C_17  and  C_19
REMARK    9  A    between atoms: N_23  and  C_30
REMARK   10  A    between atoms: N_26  and  C_29
REMARK                            x       y       z     vdW  Elec       q    Type
REMARK                         _______ _______ _______ _____ _____    ______ ____
ROOT
ATOM      1  C   UNL     1      -5.095  -5.354   0.306  0.00  0.00    -0.033 C 
ATOM      2  C   UNL     1      -3.983  -6.120   0.225  0.00  0.00    -0.000 A 
ATOM      3  C   UNL     1      -2.557  -5.823   0.400  0.00  0.00    +0.010 A 
ATOM      4  C   UNL     1      -1.656  -6.821   0.252  0.00  0.00    +0.001 A 
ATOM      5  C   UNL     1      -2.050  -8.128  -0.064  0.00  0.00    +0.002 A 
ATOM      6  C   UNL     1      -3.342  -8.478  -0.239  0.00  0.00    +0.026 A 
ATOM      7  C   UNL     1      -4.373  -7.509  -0.107  0.00  0.00    +0.043 A 
ATOM      8  N   UNL     1      -5.676  -7.598  -0.227  0.00  0.00    -0.374 N 
ATOM      9  C   UNL     1      -6.260  -6.275   0.021  0.00  0.00    +0.130 C 
ATOM     10  H   UNL     1      -6.171  -8.404  -0.441  0.00  0.00    +0.161 HD
ENDROOT
BRANCH   9  11
ATOM     11  C   UNL     1      -7.010  -5.804  -1.198  0.00  0.00    +0.020 C 
ATOM     12  C   UNL     1      -8.246  -5.281  -1.070  0.00  0.00    +0.098 C 
ATOM     13  C   UNL     1      -8.819  -4.958   0.260  0.00  0.00    +0.259 C 
ATOM     14  O   UNL     1      -8.185  -5.157   1.278  0.00  0.00    -0.269 OA
ATOM     15  N   UNL     1     -10.062  -4.437   0.306  0.00  0.00    -0.225 N 
ATOM     16  C   UNL     1     -10.771  -4.212  -0.808  0.00  0.00    +0.317 C 
ATOM     17  O   UNL     1     -11.885  -3.740  -0.692  0.00  0.00    -0.252 OA
ATOM     18  N   UNL     1     -10.323  -4.476  -2.042  0.00  0.00    -0.225 N 
ATOM     19  C   UNL     1      -9.095  -4.996  -2.253  0.00  0.00    +0.259 C 
ATOM     20  O   UNL     1      -8.698  -5.227  -3.378  0.00  0.00    -0.269 OA
ATOM     21  C   UNL     1     -11.184  -4.190  -3.192  0.00  0.00    +0.143 C 
ATOM     22  C   UNL     1     -10.651  -4.110   1.607  0.00  0.00    +0.143 C 
ENDBRANCH   9  11
BRANCH   1  23
ATOM     23  C   UNL     1      -5.160  -3.882   0.621  0.00  0.00    +0.052 C 
BRANCH  23  24
ATOM     24  C   UNL     1      -3.745  -3.344   0.840  0.00  0.00    +0.107 C 
BRANCH  24  25
ATOM     25  N   UNL     1      -3.808  -1.913   1.147  0.00  0.00    -0.326 N 
ATOM     26  H   UNL     1      -4.666  -1.462   1.183  0.00  0.00    +0.148 HD
BRANCH  25  27
ATOM     27  C   UNL     1      -2.674  -1.222   1.379  0.00  0.00    +0.130 C 
ATOM     28  S   UNL     1      -1.160  -2.018   1.315  0.00  0.00    -0.019 S 
BRANCH  27  29
ATOM     29  N   UNL     1      -2.732   0.094   1.661  0.00  0.00    -0.327 N 
ATOM     30  H   UNL     1      -3.591   0.545   1.697  0.00  0.00    +0.148 HD
BRANCH  29  32
ATOM     31  C   UNL     1      -1.843   2.307   2.206  0.00  0.00    +0.024 C 
ATOM     32  C   UNL     1      -1.500   0.845   1.913  0.00  0.00    +0.100 C 
ENDBRANCH  29  32
ENDBRANCH  27  29
ENDBRANCH  25  27
ENDBRANCH  24  25
ENDBRANCH  23  24
ENDBRANCH   1  23
TORSDOF 7
