REMARK  Name = ZINC66988952
REMARK  8 active torsions:
REMARK  status: ('A' for Active; 'I' for Inactive)
REMARK    1  A    between atoms: C_1  and  N_2
REMARK    2  A    between atoms: N_2  and  S_3
REMARK    3  A    between atoms: S_3  and  C_6
REMARK    4  A    between atoms: C_10  and  C_12
REMARK    5  A    between atoms: C_12  and  N_13
REMARK    6  A    between atoms: N_13  and  C_14
REMARK    7  A    between atoms: C_14  and  C_15
REMARK    8  A    between atoms: C_18  and  N_21
REMARK                            x       y       z     vdW  Elec       q    Type
REMARK                         _______ _______ _______ _____ _____    ______ ____
ROOT
ATOM      1  N   UNL     1      -4.320  -1.445   4.017  0.00  0.00    +0.384 N 
ATOM      2  H   UNL     1      -4.486  -0.504   4.340  0.00  0.00    -0.085 HD
ATOM      3  H   UNL     1      -4.240  -1.446   3.011  0.00  0.00    -0.085 HD
ENDROOT
BRANCH   1   4
ATOM      4  C   UNL     1      -3.075  -1.954   4.607  0.00  0.00    -0.046 C 
BRANCH   4   9
ATOM      5  C   UNL     1      -0.165  -0.543   2.659  0.00  0.00    +0.105 A 
ATOM      6  C   UNL     1       0.184   0.547   3.435  0.00  0.00    +0.028 A 
ATOM      7  C   UNL     1      -0.522   0.828   4.590  0.00  0.00    +0.002 A 
ATOM      8  C   UNL     1      -1.577   0.018   4.969  0.00  0.00    +0.002 A 
ATOM      9  C   UNL     1      -1.925  -1.071   4.193  0.00  0.00    -0.063 A 
ATOM     10  C   UNL     1      -1.222  -1.349   3.036  0.00  0.00    +0.030 A 
BRANCH   5  11
ATOM     11  S   UNL     1       0.735  -0.900   1.187  0.00  0.00    +0.058 S 
ATOM     12  O   UNL     1       0.554  -2.285   0.926  0.00  0.00    -0.153 OA
ATOM     13  O   UNL     1       2.021  -0.316   1.345  0.00  0.00    -0.153 OA
BRANCH  11  15
ATOM     14  C   UNL     1      -0.018   1.380  -0.059  0.00  0.00    +0.127 C 
ATOM     15  N   UNL     1      -0.006  -0.085  -0.050  0.00  0.00    -0.193 NA
ATOM     16  H   UNL     1      -0.433  -0.578  -0.768  0.00  0.00    +0.148 HD
ENDBRANCH  11  15
ENDBRANCH   5  11
ENDBRANCH   4   9
ENDBRANCH   1   4
BRANCH   1  17
ATOM     17  C   UNL     1      -5.440  -2.306   4.420  0.00  0.00    -0.046 C 
BRANCH  17  18
ATOM     18  C   UNL     1      -6.718  -1.784   3.814  0.00  0.00    -0.064 A 
ATOM     19  C   UNL     1      -7.478  -0.856   4.502  0.00  0.00    +0.003 A 
ATOM     20  C   UNL     1      -8.649  -0.375   3.950  0.00  0.00    +0.023 A 
ATOM     21  C   UNL     1      -9.063  -0.826   2.703  0.00  0.00    +0.030 A 
ATOM     22  C   UNL     1      -8.297  -1.759   2.015  0.00  0.00    +0.023 A 
ATOM     23  C   UNL     1      -7.124  -2.231   2.570  0.00  0.00    +0.003 A 
BRANCH  21  24
ATOM     24  N   UNL     1     -10.248  -0.343   2.142  0.00  0.00    -0.330 N 
ATOM     25  C   UNL     1     -10.636  -0.718   0.775  0.00  0.00    +0.105 C 
ATOM     26  C   UNL     1     -12.056  -1.293   0.807  0.00  0.00    +0.019 C 
ATOM     27  C   UNL     1     -12.996  -0.286   1.474  0.00  0.00    +0.003 C 
ATOM     28  C   UNL     1     -12.542  -0.040   2.914  0.00  0.00    +0.019 C 
ATOM     29  C   UNL     1     -11.132   0.545   2.909  0.00  0.00    +0.105 C 
ENDBRANCH  21  24
ENDBRANCH  17  18
ENDBRANCH   1  17
TORSDOF 7
