REMARK  Name = ZINC45557440
REMARK  8 active torsions:
REMARK  status: ('A' for Active; 'I' for Inactive)
REMARK    1  A    between atoms: C_1  and  C_2
REMARK    2  A    between atoms: C_2  and  C_4
REMARK    3  A    between atoms: C_2  and  O_17
REMARK    4  A    between atoms: N_6  and  C_7
REMARK    5  A    between atoms: C_12  and  O_13
REMARK    6  A    between atoms: O_13  and  C_14
REMARK    7  A    between atoms: O_17  and  C_18
REMARK    8  A    between atoms: C_18  and  C_20
REMARK                            x       y       z     vdW  Elec       q    Type
REMARK                         _______ _______ _______ _____ _____    ______ ____
ROOT
ATOM      1  C   UNL     1      -0.018   1.542  -0.009  0.00  0.00    +0.062 C 
ATOM      2  C   UNL     1      -0.003   0.012  -0.008  0.00  0.00    +0.259 C 
ENDROOT
BRANCH   2   3
ATOM      3  C   UNL     1       0.706  -0.484  -1.242  0.00  0.00    +0.258 C 
ATOM      4  O   UNL     1       0.095  -1.112  -2.081  0.00  0.00    -0.271 OA
ATOM      5  N   UNL     1       2.018  -0.231  -1.413  0.00  0.00    -0.280 N 
ATOM      6  H   UNL     1       2.492   0.325  -0.775  0.00  0.00    +0.155 HD
BRANCH   5   7
ATOM      7  C   UNL     1       2.699  -0.771  -2.512  0.00  0.00    +0.076 A 
ATOM      8  C   UNL     1       2.048  -0.919  -3.728  0.00  0.00    +0.027 A 
ATOM      9  C   UNL     1       2.721  -1.452  -4.811  0.00  0.00    +0.002 A 
ATOM     10  C   UNL     1       4.043  -1.838  -4.686  0.00  0.00    +0.004 A 
ATOM     11  C   UNL     1       4.698  -1.693  -3.478  0.00  0.00    +0.048 A 
ATOM     12  C   UNL     1       4.032  -1.155  -2.389  0.00  0.00    +0.148 A 
BRANCH  12  13
ATOM     13  O   UNL     1       4.677  -1.006  -1.201  0.00  0.00    -0.432 OA
BRANCH  13  14
ATOM     14  C   UNL     1       6.043  -1.421  -1.148  0.00  0.00    +0.541 C 
ATOM     15  F   UNL     1       6.129  -2.784  -1.454  0.00  0.00    -0.166 F 
ATOM     16  F   UNL     1       6.790  -0.687  -2.075  0.00  0.00    -0.166 F 
ENDBRANCH  13  14
ENDBRANCH  12  13
ENDBRANCH   5   7
ENDBRANCH   2   3
BRANCH   2  17
ATOM     17  O   UNL     1      -1.345  -0.477  -0.000  0.00  0.00    -0.449 OA
BRANCH  17  18
ATOM     18  C   UNL     1      -1.914  -0.686   1.203  0.00  0.00    +0.340 C 
ATOM     19  O   UNL     1      -1.287  -0.458   2.219  0.00  0.00    -0.245 OA
BRANCH  18  20
ATOM     20  C   UNL     1      -3.297  -1.190   1.288  0.00  0.00    +0.059 A 
ATOM     21  C   UNL     1      -4.018  -1.459   0.121  0.00  0.00    +0.017 A 
ATOM     22  C   UNL     1      -5.309  -1.930   0.204  0.00  0.00    +0.024 A 
ATOM     23  C   UNL     1      -5.896  -2.140   1.448  0.00  0.00    +0.037 A 
ATOM     24  C   UNL     1      -5.181  -1.873   2.612  0.00  0.00    -0.025 A 
ATOM     25  C   UNL     1      -3.888  -1.407   2.536  0.00  0.00    +0.020 A 
ATOM     26  C   UNL     1      -5.824  -2.103   3.955  0.00  0.00    +0.046 C 
ATOM     27  C   UNL     1      -7.319  -1.793   3.865  0.00  0.00    +0.101 C 
ATOM     28  C   UNL     1      -7.912  -2.479   2.664  0.00  0.00    +0.218 C 
ATOM     29  O   UNL     1      -9.043  -2.913   2.721  0.00  0.00    -0.275 OA
ATOM     30  N   UNL     1      -7.203  -2.617   1.530  0.00  0.00    -0.285 N 
ATOM     31  H   UNL     1      -7.605  -3.052   0.761  0.00  0.00    +0.155 HD
ENDBRANCH  18  20
ENDBRANCH  17  18
ENDBRANCH   2  17
TORSDOF 7
