REMARK  Name = ZINC40811987
REMARK  6 active torsions:
REMARK  status: ('A' for Active; 'I' for Inactive)
REMARK    1  A    between atoms: C_1  and  C_2
REMARK    2  A    between atoms: C_6  and  C_7
REMARK    3  A    between atoms: N_9  and  C_10
REMARK    4  A    between atoms: N_19  and  N_20
REMARK    5  A    between atoms: C_21  and  C_23
REMARK    6  A    between atoms: C_26  and  O_29
REMARK                            x       y       z     vdW  Elec       q    Type
REMARK                         _______ _______ _______ _____ _____    ______ ____
ROOT
ATOM      1  C   UNL     1      -0.018   1.503   0.010  0.00  0.00    +0.048 C 
ATOM      2  C   UNL     1       0.002  -0.004   0.002  0.00  0.00    +0.009 A 
ATOM      3  C   UNL     1       0.009  -0.838  -1.123  0.00  0.00    +0.042 A 
ATOM      4  C   UNL     1       0.027  -2.138  -0.673  0.00  0.00    +0.115 A 
ATOM      5  O   UNL     1       0.035  -2.112   0.658  0.00  0.00    -0.454 OA
ATOM      6  C   UNL     1       0.024  -0.830   1.091  0.00  0.00    +0.193 A 
ATOM      7  C   UNL     1       0.033  -3.327  -1.599  0.00  0.00    +0.075 C 
ATOM      8  C   UNL     1      -0.491  -2.903  -2.974  0.00  0.00    +0.014 C 
ATOM      9  C   UNL     1       0.279  -1.685  -3.495  0.00  0.00    +0.058 C 
ATOM     10  C   UNL     1       0.001  -0.512  -2.566  0.00  0.00    +0.070 C 
ATOM     11  N   UNL     1      -0.228   0.686  -3.008  0.00  0.00    -0.184 NA
ENDROOT
BRANCH   6  12
ATOM     12  C   UNL     1       0.032  -0.399   2.493  0.00  0.00    +0.280 C 
ATOM     13  O   UNL     1       0.018   0.786   2.766  0.00  0.00    -0.267 OA
ATOM     14  N   UNL     1       0.054  -1.317   3.480  0.00  0.00    -0.306 N 
ATOM     15  H   UNL     1       0.065  -2.263   3.263  0.00  0.00    +0.149 HD
BRANCH  14  16
ATOM     16  C   UNL     1       0.062  -0.887   4.881  0.00  0.00    +0.073 C 
ATOM     17  C   UNL     1       1.512  -0.659   5.356  0.00  0.00    +0.022 C 
ATOM     18  C   UNL     1       1.514  -1.158   6.822  0.00  0.00    +0.002 C 
ATOM     19  C   UNL     1       0.589  -2.399   6.762  0.00  0.00    +0.002 C 
ATOM     20  C   UNL     1      -0.525  -1.993   5.775  0.00  0.00    +0.022 C 
ENDBRANCH  14  16
ENDBRANCH   6  12
BRANCH  11  21
ATOM     21  N   UNL     1      -0.223   0.938  -4.386  0.00  0.00    -0.203 N 
ATOM     22  C   UNL     1      -0.461   2.182  -4.845  0.00  0.00    +0.263 C 
ATOM     23  O   UNL     1      -0.680   3.088  -4.062  0.00  0.00    -0.268 OA
ATOM     24  H   UNL     1      -0.049   0.216  -5.010  0.00  0.00    +0.178 HD
BRANCH  22  25
ATOM     25  C   UNL     1      -0.456   2.447  -6.296  0.00  0.00    +0.039 A 
ATOM     26  C   UNL     1      -0.211   1.407  -7.197  0.00  0.00    +0.016 A 
ATOM     27  C   UNL     1      -0.207   1.659  -8.551  0.00  0.00    +0.046 A 
ATOM     28  C   UNL     1      -0.447   2.944  -9.022  0.00  0.00    +0.117 A 
ATOM     29  C   UNL     1      -0.690   3.981  -8.129  0.00  0.00    +0.046 A 
ATOM     30  C   UNL     1      -0.702   3.737  -6.774  0.00  0.00    +0.016 A 
BRANCH  28  31
ATOM     31  O   UNL     1      -0.442   3.188 -10.357  0.00  0.00    -0.507 OA
ATOM     32  H   UNL     1      -1.306   3.084 -10.779  0.00  0.00    +0.292 HD
ENDBRANCH  28  31
ENDBRANCH  22  25
ENDBRANCH  11  21
TORSDOF 5
