REMARK  Name = ZINC17135588
REMARK  8 active torsions:
REMARK  status: ('A' for Active; 'I' for Inactive)
REMARK    1  A    between atoms: C_1  and  C_2
REMARK    2  A    between atoms: C_6  and  N_8
REMARK    3  A    between atoms: C_9  and  C_24
REMARK    4  A    between atoms: C_12  and  S_13
REMARK    5  A    between atoms: S_13  and  C_14
REMARK    6  A    between atoms: C_14  and  C_15
REMARK    7  A    between atoms: C_20  and  C_23
REMARK    8  A    between atoms: C_24  and  C_25
REMARK                            x       y       z     vdW  Elec       q    Type
REMARK                         _______ _______ _______ _____ _____    ______ ____
ROOT
ATOM      1  N   UNL     1      -8.646   4.696   6.595  0.00  0.00    -0.274 N 
ATOM      2  C   UNL     1      -9.925   4.573   6.121  0.00  0.00    +0.144 A 
ATOM      3  N   UNL     1      -9.857   3.949   4.979  0.00  0.00    -0.133 NA
ATOM      4  N   UNL     1      -8.633   3.676   4.696  0.00  0.00    -0.122 NA
ATOM      5  C   UNL     1      -7.846   4.106   5.655  0.00  0.00    +0.197 A 
ENDROOT
BRANCH   1  11
ATOM      6  C   UNL     1      -6.689   4.300  11.090  0.00  0.00    +0.044 C 
ATOM      7  C   UNL     1      -7.290   5.133   9.987  0.00  0.00    -0.048 A 
ATOM      8  C   UNL     1      -7.442   6.497  10.157  0.00  0.00    +0.003 A 
ATOM      9  C   UNL     1      -7.993   7.265   9.147  0.00  0.00    +0.002 A 
ATOM     10  C   UNL     1      -8.393   6.671   7.966  0.00  0.00    +0.026 A 
ATOM     11  C   UNL     1      -8.241   5.302   7.793  0.00  0.00    +0.050 A 
ATOM     12  C   UNL     1      -7.692   4.533   8.810  0.00  0.00    +0.029 A 
ENDBRANCH   1  11
BRANCH   5  13
ATOM     13  S   UNL     1      -6.091   3.957   5.716  0.00  0.00    -0.076 S 
BRANCH  13  14
ATOM     14  C   UNL     1      -5.795   3.084   4.159  0.00  0.00    +0.173 C 
BRANCH  14  15
ATOM     15  C   UNL     1      -4.317   2.841   3.992  0.00  0.00    +0.229 C 
ATOM     16  O   UNL     1      -3.541   3.220   4.843  0.00  0.00    -0.275 OA
ATOM     17  N   UNL     1      -3.859   2.202   2.898  0.00  0.00    -0.264 N 
ATOM     18  C   UNL     1      -2.496   1.977   2.744  0.00  0.00    +0.165 A 
ATOM     19  N   UNL     1      -1.860   1.382   1.754  0.00  0.00    -0.230 NA
ATOM     20  C   UNL     1      -0.549   1.246   1.767  0.00  0.00    +0.047 A 
ATOM     21  C   UNL     1       0.142   1.745   2.821  0.00  0.00    +0.071 A 
ATOM     22  S   UNL     1      -1.192   2.415   3.804  0.00  0.00    -0.060 S 
ATOM     23  C   UNL     1       0.167   0.559   0.632  0.00  0.00    +0.066 C 
ATOM     24  H   UNL     1      -4.480   1.899   2.217  0.00  0.00    +0.157 HD
ENDBRANCH  14  15
ENDBRANCH  13  14
ENDBRANCH   5  13
BRANCH   2  25
ATOM     25  C   UNL     1     -11.179   5.067   6.795  0.00  0.00    +0.130 C 
BRANCH  25  26
ATOM     26  C   UNL     1     -11.786   3.951   7.606  0.00  0.00    +0.033 A 
ATOM     27  C   UNL     1     -11.534   3.859   8.929  0.00  0.00    +0.091 A 
ATOM     28  C   UNL     1     -12.117   2.802   9.669  0.00  0.00    +0.254 A 
ATOM     29  O   UNL     1     -11.904   2.699  10.864  0.00  0.00    -0.268 OA
ATOM     30  N   UNL     1     -12.909   1.911   9.039  0.00  0.00    -0.275 N 
ATOM     31  H   UNL     1     -13.324   1.162   9.555  0.00  0.00    +0.173 HD
ATOM     32  C   UNL     1     -13.143   2.027   7.718  0.00  0.00    +0.327 A 
ATOM     33  O   UNL     1     -13.860   1.216   7.164  0.00  0.00    -0.247 OA
ATOM     34  N   UNL     1     -12.601   3.030   7.005  0.00  0.00    -0.311 N 
ATOM     35  H   UNL     1     -12.794   3.103   6.027  0.00  0.00    +0.170 HD
ENDBRANCH  25  26
ENDBRANCH   2  25
TORSDOF 6
