REMARK  Name = ZINC39658397
REMARK  7 active torsions:
REMARK  status: ('A' for Active; 'I' for Inactive)
REMARK    1  A    between atoms: C_4  and  C_7
REMARK    2  A    between atoms: C_7  and  S_8
REMARK    3  A    between atoms: S_8  and  C_9
REMARK    4  A    between atoms: C_9  and  C_10
REMARK    5  A    between atoms: C_10  and  N_11
REMARK    6  A    between atoms: C_12  and  C_14
REMARK    7  A    between atoms: C_25  and  C_27
REMARK                            x       y       z     vdW  Elec       q    Type
REMARK                         _______ _______ _______ _____ _____    ______ ____
ROOT
ATOM      1  C   UNL     1      10.205  -4.356   3.295  0.00  0.00    +0.100 C 
ATOM      2  C   UNL     1      10.980  -3.235   2.568  0.00  0.00    +0.121 C 
ATOM      3  N   UNL     1      11.718  -2.532   3.644  0.00  0.00    -0.296 N 
ATOM      4  C   UNL     1      12.175  -3.616   4.547  0.00  0.00    +0.115 C 
ATOM      5  C   UNL     1      10.994  -4.606   4.591  0.00  0.00    -0.004 C 
ATOM      6  C   UNL     1      11.509  -6.041   4.628  0.00  0.00    -0.010 C 
ATOM      7  C   UNL     1      12.241  -6.283   5.951  0.00  0.00    -0.082 C 
ATOM      8  N   UNL     1      11.322  -6.043   7.071  0.00  0.00    +0.379 N 
ATOM      9  C   UNL     1      10.904  -4.636   7.082  0.00  0.00    -0.082 C 
ATOM     10  C   UNL     1      10.116  -4.325   5.807  0.00  0.00    -0.010 C 
ATOM     11  C   UNL     1      11.928  -1.207   3.773  0.00  0.00    +0.247 C 
ATOM     12  O   UNL     1      11.381  -0.429   3.015  0.00  0.00    -0.270 OA
ATOM     13  H   UNL     1      10.509  -6.633   6.970  0.00  0.00    -0.086 HD
ATOM     14  H   UNL     1      11.787  -6.262   7.939  0.00  0.00    -0.086 HD
ENDROOT
BRANCH  11  15
ATOM     15  C   UNL     1      12.822  -0.699   4.835  0.00  0.00    +0.042 A 
ATOM     16  C   UNL     1      13.772  -1.543   5.413  0.00  0.00    +0.051 A 
ATOM     17  C   UNL     1      14.605  -1.063   6.405  0.00  0.00    +0.127 A 
ATOM     18  C   UNL     1      14.499   0.252   6.827  0.00  0.00    +0.076 A 
ATOM     19  C   UNL     1      13.558   1.094   6.257  0.00  0.00    +0.127 A 
ATOM     20  C   UNL     1      12.723   0.626   5.259  0.00  0.00    +0.051 A 
ATOM     21  F   UNL     1      13.460   2.376   6.673  0.00  0.00    -0.205 F 
ATOM     22  F   UNL     1      15.525  -1.879   6.966  0.00  0.00    -0.205 F 
ENDBRANCH  11  15
BRANCH   1  24
ATOM     23  N   UNL     1       7.826  -4.814   3.796  0.00  0.00    -0.314 N 
ATOM     24  C   UNL     1       8.803  -3.904   3.613  0.00  0.00    +0.218 C 
ATOM     25  O   UNL     1       8.554  -2.720   3.705  0.00  0.00    -0.275 OA
ATOM     26  H   UNL     1       8.025  -5.761   3.722  0.00  0.00    +0.149 HD
BRANCH  23  27
ATOM     27  C   UNL     1       6.463  -4.374   4.105  0.00  0.00    +0.115 C 
BRANCH  27  28
ATOM     28  C   UNL     1       5.556  -5.596   4.262  0.00  0.00    +0.088 C 
BRANCH  28  29
ATOM     29  S   UNL     1       3.869  -5.052   4.645  0.00  0.00    -0.155 S 
BRANCH  29  30
ATOM     30  C   UNL     1       2.933  -6.598   4.798  0.00  0.00    +0.104 C 
BRANCH  30  34
ATOM     31  C   UNL     1      -1.145  -5.712   5.710  0.00  0.00    +0.000 A 
ATOM     32  C   UNL     1      -0.739  -5.817   4.393  0.00  0.00    +0.000 A 
ATOM     33  C   UNL     1       0.581  -6.103   4.098  0.00  0.00    +0.004 A 
ATOM     34  C   UNL     1       1.494  -6.284   5.120  0.00  0.00    -0.038 A 
ATOM     35  C   UNL     1       1.088  -6.178   6.437  0.00  0.00    +0.004 A 
ATOM     36  C   UNL     1      -0.232  -5.893   6.732  0.00  0.00    +0.000 A 
ENDBRANCH  30  34
ENDBRANCH  29  30
ENDBRANCH  28  29
ENDBRANCH  27  28
ENDBRANCH  23  27
ENDBRANCH   1  24
TORSDOF 7
