REMARK  Name = ZINC09380716
REMARK  14 active torsions:
REMARK  status: ('A' for Active; 'I' for Inactive)
REMARK    1  A    between atoms: C_1  and  C_2
REMARK    2  A    between atoms: C_4  and  C_13
REMARK    3  A    between atoms: C_7  and  O_8
REMARK    4  A    between atoms: O_8  and  C_9
REMARK    5  A    between atoms: C_9  and  C_10
REMARK    6  A    between atoms: C_10  and  C_11
REMARK    7  A    between atoms: C_10  and  C_12
REMARK    8  A    between atoms: C_13  and  C_15
REMARK    9  A    between atoms: N_19  and  C_31
REMARK   10  A    between atoms: C_20  and  C_22
REMARK   11  A    between atoms: C_26  and  N_28
REMARK   12  A    between atoms: C_31  and  C_32
REMARK   13  A    between atoms: C_32  and  O_33
REMARK   14  A    between atoms: O_33  and  C_34
REMARK                            x       y       z     vdW  Elec       q    Type
REMARK                         _______ _______ _______ _____ _____    ______ ____
ROOT
ATOM      1  C   UNL     1       1.778   5.759   0.408  0.00  0.00    +0.076 C 
ATOM      2  C   UNL     1       2.653   6.790   0.381  0.00  0.00    +0.249 C 
ATOM      3  C   UNL     1       1.904   8.064   0.393  0.00  0.00    +0.288 C 
ATOM      4  O   UNL     1       2.407   9.170   0.371  0.00  0.00    -0.266 OA
ATOM      5  N   UNL     1       0.582   7.819   0.436  0.00  0.00    -0.281 N 
ATOM      6  C   UNL     1       0.393   6.363   0.449  0.00  0.00    +0.145 C 
ATOM      7  O   UNL     1       4.001   6.674   0.346  0.00  0.00    -0.282 OA
ENDROOT
BRANCH   6   8
ATOM      8  C   UNL     1      -0.397   5.931  -0.759  0.00  0.00    -0.020 A 
ATOM      9  C   UNL     1      -0.116   6.473  -1.999  0.00  0.00    +0.006 A 
ATOM     10  C   UNL     1      -0.838   6.073  -3.107  0.00  0.00    +0.003 A 
ATOM     11  C   UNL     1      -1.847   5.138  -2.975  0.00  0.00    +0.033 A 
ATOM     12  C   UNL     1      -2.131   4.599  -1.734  0.00  0.00    +0.127 A 
ATOM     13  C   UNL     1      -1.406   4.996  -0.626  0.00  0.00    +0.038 A 
BRANCH  12  14
ATOM     14  N   UNL     1      -3.212   3.597  -1.592  0.00  0.00    +0.056 N 
ATOM     15  O   UNL     1      -3.411   3.065  -0.514  0.00  0.00    -0.126 OA
ATOM     16  O   UNL     1      -3.902   3.305  -2.552  0.00  0.00    -0.126 OA
ENDBRANCH  12  14
ENDBRANCH   6   8
BRANCH   1  17
ATOM     17  C   UNL     1       2.109   4.330   0.405  0.00  0.00    +0.195 C 
ATOM     18  O   UNL     1       2.635   3.830  -0.572  0.00  0.00    -0.287 OA
BRANCH  17  22
ATOM     19  C   UNL     1       2.026  -0.132   2.630  0.00  0.00    +0.047 C 
ATOM     20  C   UNL     1       1.762   1.351   2.660  0.00  0.00    -0.008 A 
ATOM     21  C   UNL     1       2.049   2.123   1.556  0.00  0.00    +0.018 A 
ATOM     22  C   UNL     1       1.803   3.499   1.585  0.00  0.00    +0.023 A 
ATOM     23  C   UNL     1       1.267   4.086   2.736  0.00  0.00    +0.015 A 
ATOM     24  C   UNL     1       0.983   3.307   3.835  0.00  0.00    +0.046 A 
ATOM     25  C   UNL     1       1.224   1.938   3.800  0.00  0.00    +0.123 A 
BRANCH  25  26
ATOM     26  O   UNL     1       0.937   1.172   4.883  0.00  0.00    -0.491 OA
BRANCH  26  27
ATOM     27  C   UNL     1       0.289   1.818   5.981  0.00  0.00    +0.232 C 
BRANCH  27  28
ATOM     28  C   UNL     1       0.095   0.816   7.120  0.00  0.00    +0.020 C 
ATOM     29  C   UNL     1       1.460   0.381   7.655  0.00  0.00    +0.010 C 
ATOM     30  C   UNL     1      -0.709   1.472   8.245  0.00  0.00    +0.010 C 
ENDBRANCH  27  28
ENDBRANCH  26  27
ENDBRANCH  25  26
ENDBRANCH  17  22
ENDBRANCH   1  17
BRANCH   5  31
ATOM     31  C   UNL     1      -0.482   8.826   0.465  0.00  0.00    +0.137 C 
BRANCH  31  32
ATOM     32  C   UNL     1      -0.806   9.183   1.917  0.00  0.00    +0.178 C 
BRANCH  32  33
ATOM     33  O   UNL     1       0.328   9.813   2.517  0.00  0.00    -0.381 OA
ATOM     34  C   UNL     1       0.129  10.190   3.881  0.00  0.00    +0.194 C 
ENDBRANCH  32  33
ENDBRANCH  31  32
ENDBRANCH   5  31
TORSDOF 10
