REMARK  Name = ZINC06133915
REMARK  8 active torsions:
REMARK  status: ('A' for Active; 'I' for Inactive)
REMARK    1  A    between atoms: C_1  and  C_2
REMARK    2  A    between atoms: C_2  and  O_3
REMARK    3  A    between atoms: O_3  and  C_4
REMARK    4  A    between atoms: C_11  and  C_16
REMARK    5  A    between atoms: C_16  and  C_18
REMARK    6  A    between atoms: C_16  and  N_73
REMARK    7  A    between atoms: N_22  and  C_23
REMARK    8  A    between atoms: N_31  and  C_34
REMARK                            x       y       z     vdW  Elec       q    Type
REMARK                         _______ _______ _______ _____ _____    ______ ____
ROOT
ATOM      1  C   UNL     1       4.958   1.184  -0.037  0.00  0.00    +0.039 C 
ENDROOT
BRANCH   1   9
ATOM      2  C   UNL     1       0.142   4.480  -2.129  0.00  0.00    +0.121 A 
ATOM      3  C   UNL     1      -0.615   4.395  -0.963  0.00  0.00    +0.047 A 
ATOM      4  C   UNL     1      -0.138   3.715   0.136  0.00  0.00    +0.030 A 
ATOM      5  C   UNL     1       1.108   3.099   0.085  0.00  0.00    +0.049 A 
ATOM      6  C   UNL     1       1.874   3.178  -1.093  0.00  0.00    +0.002 A 
ATOM      7  C   UNL     1       1.379   3.872  -2.202  0.00  0.00    +0.055 A 
ATOM      8  C   UNL     1       3.184   2.526  -1.133  0.00  0.00    +0.017 A 
ATOM      9  C   UNL     1       3.614   1.867  -0.029  0.00  0.00    +0.011 A 
ATOM     10  C   UNL     1       2.808   1.817   1.128  0.00  0.00    +0.251 A 
ATOM     11  O   UNL     1       3.214   1.219   2.110  0.00  0.00    -0.268 OA
ATOM     12  N   UNL     1       1.603   2.413   1.175  0.00  0.00    -0.322 N 
ATOM     13  H   UNL     1       1.058   2.357   2.011  0.00  0.00    +0.169 HD
BRANCH   2  14
ATOM     14  O   UNL     1      -0.342   5.160  -3.202  0.00  0.00    -0.492 OA
BRANCH  14  16
ATOM     15  C   UNL     1      -2.002   6.481  -4.359  0.00  0.00    +0.048 C 
ATOM     16  C   UNL     1      -1.628   5.766  -3.059  0.00  0.00    +0.225 C 
ENDBRANCH  14  16
ENDBRANCH   2  14
ENDBRANCH   1   9
BRANCH   1  22
ATOM     17  C   UNL     1       5.924   3.212   0.868  0.00  0.00    -0.058 C 
ATOM     18  C   UNL     1       6.745   3.777   2.030  0.00  0.00    +0.086 C 
ATOM     19  N   UNL     1       8.069   3.142   2.045  0.00  0.00    -0.331 N 
ATOM     20  C   UNL     1       7.950   1.685   2.196  0.00  0.00    +0.086 C 
ATOM     21  C   UNL     1       7.129   1.120   1.034  0.00  0.00    -0.058 C 
ATOM     22  N   UNL     1       5.792   1.751   1.044  0.00  0.00    +0.391 N 
ATOM     23  H   UNL     1       5.341   1.562   1.947  0.00  0.00    -0.080 HD
BRANCH  19  24
ATOM     24  C   UNL     1       8.875   3.686   3.050  0.00  0.00    +0.065 A 
ATOM     25  C   UNL     1      10.193   3.272   3.185  0.00  0.00    +0.026 A 
ATOM     26  C   UNL     1      10.988   3.814   4.177  0.00  0.00    +0.002 A 
ATOM     27  C   UNL     1      10.469   4.761   5.042  0.00  0.00    +0.003 A 
ATOM     28  C   UNL     1       9.155   5.172   4.914  0.00  0.00    +0.040 A 
ATOM     29  C   UNL     1       8.355   4.637   3.921  0.00  0.00    +0.144 A 
ATOM     30  F   UNL     1       7.071   5.038   3.797  0.00  0.00    -0.204 F 
ENDBRANCH  19  24
ENDBRANCH   1  22
BRANCH   1  31
ATOM     31  C   UNL     1       5.618   1.391  -1.376  0.00  0.00    +0.143 A 
ATOM     32  N   UNL     1       6.175   2.494  -1.812  0.00  0.00    -0.115 NA
ATOM     33  N   UNL     1       6.627   2.270  -2.997  0.00  0.00    -0.023 NA
ATOM     34  N   UNL     1       6.367   1.055  -3.332  0.00  0.00    -0.044 NA
ATOM     35  N   UNL     1       5.745   0.480  -2.358  0.00  0.00    -0.227 N 
BRANCH  35  36
ATOM     36  C   UNL     1       5.267  -0.905  -2.328  0.00  0.00    +0.111 C 
ATOM     37  C   UNL     1       6.452  -1.857  -2.502  0.00  0.00    +0.027 C 
ATOM     38  C   UNL     1       5.954  -3.303  -2.470  0.00  0.00    +0.002 C 
ATOM     39  C   UNL     1       4.952  -3.522  -3.607  0.00  0.00    +0.000 C 
ATOM     40  C   UNL     1       3.767  -2.570  -3.433  0.00  0.00    +0.002 C 
ATOM     41  C   UNL     1       4.266  -1.124  -3.464  0.00  0.00    +0.027 C 
ENDBRANCH  35  36
ENDBRANCH   1  31
TORSDOF 7
