REMARK  Name = ZINC66398333
REMARK  7 active torsions:
REMARK  status: ('A' for Active; 'I' for Inactive)
REMARK    1  A    between atoms: C_1  and  C_2
REMARK    2  A    between atoms: C_7  and  C_8
REMARK    3  A    between atoms: C_8  and  C_10
REMARK    4  A    between atoms: C_8  and  N_12
REMARK    5  A    between atoms: C_13  and  C_15
REMARK    6  A    between atoms: C_16  and  C_17
REMARK    7  A    between atoms: C_22  and  N_23
REMARK                            x       y       z     vdW  Elec       q    Type
REMARK                         _______ _______ _______ _____ _____    ______ ____
ROOT
ATOM      1  N   UNL     1      -0.806  -0.852   3.398  0.00  0.00    -0.293 N 
ATOM      2  C   UNL     1      -1.410  -0.290   4.463  0.00  0.00    +0.238 C 
ATOM      3  O   UNL     1      -1.537   0.919   4.524  0.00  0.00    -0.271 OA
ATOM      4  H   UNL     1      -0.705  -1.816   3.350  0.00  0.00    +0.151 HD
ENDROOT
BRANCH   2   5
ATOM      5  C   UNL     1      -1.914  -1.133   5.548  0.00  0.00    +0.068 C 
ATOM      6  C   UNL     1      -2.518  -0.571   6.615  0.00  0.00    +0.015 C 
BRANCH   6   7
ATOM      7  C   UNL     1      -3.025  -1.419   7.705  0.00  0.00    +0.006 A 
ATOM      8  C   UNL     1      -2.791  -2.798   7.689  0.00  0.00    +0.013 A 
ATOM      9  C   UNL     1      -3.268  -3.586   8.713  0.00  0.00    +0.039 A 
ATOM     10  C   UNL     1      -3.978  -3.015   9.759  0.00  0.00    +0.126 A 
ATOM     11  C   UNL     1      -4.212  -1.649   9.781  0.00  0.00    +0.071 A 
ATOM     12  C   UNL     1      -3.736  -0.848   8.766  0.00  0.00    +0.136 A 
ATOM     13  F   UNL     1      -4.443  -3.794  10.760  0.00  0.00    -0.205 F 
BRANCH  12  14
ATOM     14  N   UNL     1      -3.982   0.611   8.794  0.00  0.00    +0.057 N 
ATOM     15  O   UNL     1      -3.124   1.376   8.421  0.00  0.00    -0.126 OA
ATOM     16  O   UNL     1      -5.042   1.038   9.190  0.00  0.00    -0.126 OA
ENDBRANCH  12  14
ENDBRANCH   6   7
ENDBRANCH   2   5
BRANCH   1  17
ATOM     17  C   UNL     1      -0.302  -0.008   2.312  0.00  0.00    +0.207 C 
BRANCH  17  24
ATOM     18  C   UNL     1      -0.560   1.394  -0.201  0.00  0.00    +0.044 C 
ATOM     19  C   UNL     1      -0.459  -0.109  -0.184  0.00  0.00    -0.045 A 
ATOM     20  C   UNL     1      -0.484  -0.817  -1.371  0.00  0.00    +0.004 A 
ATOM     21  C   UNL     1      -0.392  -2.196  -1.356  0.00  0.00    +0.000 A 
ATOM     22  C   UNL     1      -0.273  -2.867  -0.153  0.00  0.00    +0.000 A 
ATOM     23  C   UNL     1      -0.247  -2.160   1.034  0.00  0.00    +0.007 A 
ATOM     24  C   UNL     1      -0.336  -0.780   1.018  0.00  0.00    -0.010 A 
ENDBRANCH  17  24
BRANCH  17  25
ATOM     25  C   UNL     1       1.083   0.396   2.606  0.00  0.00    +0.090 C 
ATOM     26  N   UNL     1       2.151   0.707   2.834  0.00  0.00    -0.194 NA
ENDBRANCH  17  25
ENDBRANCH   1  17
TORSDOF 6
