REMARK  Name = ZINC12893026
REMARK  11 active torsions:
REMARK  status: ('A' for Active; 'I' for Inactive)
REMARK    1  A    between atoms: C_1  and  C_2
REMARK    2  A    between atoms: C_2  and  O_3
REMARK    3  A    between atoms: O_3  and  C_4
REMARK    4  A    between atoms: C_4  and  C_6
REMARK    5  A    between atoms: C_6  and  O_32
REMARK    6  A    between atoms: C_7  and  C_24
REMARK    7  A    between atoms: C_9  and  C_16
REMARK    8  A    between atoms: N_14  and  C_15
REMARK    9  A    between atoms: C_19  and  O_22
REMARK   10  A    between atoms: O_22  and  C_23
REMARK   11  A    between atoms: C_24  and  C_26
REMARK                            x       y       z     vdW  Elec       q    Type
REMARK                         _______ _______ _______ _____ _____    ______ ____
ROOT
ATOM      1  C   UNL     1      -1.228   7.403  -0.660  0.00  0.00    +0.246 C 
ATOM      2  C   UNL     1      -1.385   6.053   0.047  0.00  0.00    +0.146 C 
ATOM      3  C   UNL     1      -1.817   6.304   1.496  0.00  0.00    +0.118 C 
ATOM      4  N   UNL     1      -0.845   7.199   2.135  0.00  0.00    -0.319 N 
ATOM      5  C   UNL     1      -0.151   8.100   1.423  0.00  0.00    +0.136 C 
ATOM      6  S   UNL     1       0.955   9.119   2.241  0.00  0.00    -0.019 S 
ATOM      7  N   UNL     1      -0.290   8.235   0.095  0.00  0.00    -0.278 N 
ATOM      8  C   UNL     1       0.513   9.235  -0.613  0.00  0.00    +0.134 C 
ATOM      9  H   UNL     1      -0.701   7.137   3.092  0.00  0.00    +0.148 HD
ENDROOT
BRANCH   3  10
ATOM     10  C   UNL     1      -1.869   4.994   2.240  0.00  0.00    -0.026 A 
ATOM     11  C   UNL     1      -0.703   4.425   2.717  0.00  0.00    +0.009 A 
ATOM     12  C   UNL     1      -0.749   3.227   3.405  0.00  0.00    +0.046 A 
ATOM     13  C   UNL     1      -1.966   2.590   3.606  0.00  0.00    +0.120 A 
ATOM     14  C   UNL     1      -3.133   3.161   3.121  0.00  0.00    +0.046 A 
ATOM     15  C   UNL     1      -3.083   4.362   2.440  0.00  0.00    +0.009 A 
BRANCH  13  16
ATOM     16  O   UNL     1      -2.013   1.409   4.276  0.00  0.00    -0.495 OA
ATOM     17  C   UNL     1      -0.771   0.880   4.746  0.00  0.00    +0.277 C 
ENDBRANCH  13  16
ENDBRANCH   3  10
BRANCH   1  18
ATOM     18  C   UNL     1      -2.566   8.092  -0.733  0.00  0.00    +0.359 C 
ATOM     19  O   UNL     1      -3.085   8.293  -1.805  0.00  0.00    -0.246 OA
BRANCH  18  20
ATOM     20  O   UNL     1      -3.182   8.483   0.394  0.00  0.00    -0.462 OA
BRANCH  20  22
ATOM     21  C   UNL     1      -5.011   9.511   1.630  0.00  0.00    +0.048 C 
ATOM     22  C   UNL     1      -4.468   9.141   0.248  0.00  0.00    +0.229 C 
ENDBRANCH  20  22
ENDBRANCH  18  20
ENDBRANCH   1  18
BRANCH   2  23
ATOM     23  C   UNL     1      -0.070   5.317   0.031  0.00  0.00    +0.173 C 
ATOM     24  O   UNL     1       0.972   5.938   0.025  0.00  0.00    -0.292 OA
BRANCH  23  25
ATOM     25  C   UNL     1      -0.050   3.846   0.023  0.00  0.00    +0.018 A 
ATOM     26  C   UNL     1       1.168   3.159   0.008  0.00  0.00    +0.011 A 
ATOM     27  C   UNL     1       1.179   1.780   0.000  0.00  0.00    +0.001 A 
ATOM     28  C   UNL     1      -0.013   1.076   0.008  0.00  0.00    +0.000 A 
ATOM     29  C   UNL     1      -1.222   1.748   0.017  0.00  0.00    +0.001 A 
ATOM     30  C   UNL     1      -1.250   3.126   0.030  0.00  0.00    +0.011 A 
ENDBRANCH  23  25
ENDBRANCH   2  23
BRANCH   1  31
ATOM     31  O   UNL     1      -0.725   7.194  -1.981  0.00  0.00    -0.362 OA
ATOM     32  H   UNL     1      -0.601   8.009  -2.488  0.00  0.00    +0.213 HD
ENDBRANCH   1  31
TORSDOF 8
