REMARK  Name = ZINC49539613
REMARK  14 active torsions:
REMARK  status: ('A' for Active; 'I' for Inactive)
REMARK    1  A    between atoms: C_1  and  C_2
REMARK    2  A    between atoms: C_5  and  N_9
REMARK    3  A    between atoms: C_10  and  N_11
REMARK    4  A    between atoms: C_13  and  C_37
REMARK    5  A    between atoms: C_19  and  S_20
REMARK    6  A    between atoms: S_20  and  C_21
REMARK    7  A    between atoms: C_21  and  C_22
REMARK    8  A    between atoms: N_24  and  C_25
REMARK    9  A    between atoms: C_25  and  C_26
REMARK   10  A    between atoms: C_26  and  C_27
REMARK   11  A    between atoms: C_30  and  O_35
REMARK   12  A    between atoms: C_31  and  O_33
REMARK   13  A    between atoms: O_33  and  C_34
REMARK   14  A    between atoms: O_35  and  C_36
REMARK                            x       y       z     vdW  Elec       q    Type
REMARK                         _______ _______ _______ _____ _____    ______ ____
ROOT
ATOM      1  N   UNL     1      -0.116  -4.014  -0.822  0.00  0.00    -0.276 N 
ATOM      2  C   UNL     1      -1.089  -4.605  -0.126  0.00  0.00    +0.115 A 
ATOM      3  C   UNL     1      -0.952  -5.968   0.195  0.00  0.00    +0.079 A 
ATOM      4  C   UNL     1      -1.744  -6.906   0.894  0.00  0.00    +0.072 A 
ATOM      5  N   UNL     1      -1.126  -8.052   0.893  0.00  0.00    -0.177 NA
ATOM      6  N   UNL     1       0.088  -7.933   0.204  0.00  0.00    -0.260 N 
ATOM      7  H   UNL     1       0.733  -8.643   0.062  0.00  0.00    +0.191 HD
ATOM      8  C   UNL     1       0.207  -6.646  -0.233  0.00  0.00    +0.162 A 
ATOM      9  N   UNL     1       1.129  -5.978  -0.924  0.00  0.00    -0.204 NA
ATOM     10  C   UNL     1       0.962  -4.699  -1.212  0.00  0.00    +0.177 A 
ATOM     11  C   UNL     1      -3.080  -6.627   1.533  0.00  0.00    +0.068 C 
ENDROOT
BRANCH   1  16
ATOM     12  C   UNL     1      -0.578   1.460  -2.165  0.00  0.00    +0.045 C 
ATOM     13  C   UNL     1      -0.455   0.001  -1.807  0.00  0.00    -0.032 A 
ATOM     14  C   UNL     1      -0.455  -0.956  -2.805  0.00  0.00    +0.007 A 
ATOM     15  C   UNL     1      -0.343  -2.293  -2.483  0.00  0.00    +0.026 A 
ATOM     16  C   UNL     1      -0.228  -2.679  -1.149  0.00  0.00    +0.052 A 
ATOM     17  C   UNL     1      -0.228  -1.712  -0.147  0.00  0.00    +0.046 A 
ATOM     18  C   UNL     1      -0.336  -0.375  -0.480  0.00  0.00    +0.046 A 
ATOM     19 CL   UNL     1      -0.330   0.832   0.767  0.00  0.00    -0.083 Cl
ENDBRANCH   1  16
BRANCH   2  20
ATOM     20  N   UNL     1      -2.205  -3.896   0.269  0.00  0.00    -0.344 N 
ATOM     21  H   UNL     1      -2.233  -2.933   0.154  0.00  0.00    +0.144 HD
ATOM     22  H   UNL     1      -2.961  -4.360   0.662  0.00  0.00    +0.144 HD
ENDBRANCH   2  20
BRANCH  10  23
ATOM     23  S   UNL     1       2.210  -3.866  -2.135  0.00  0.00    -0.078 S 
BRANCH  23  24
ATOM     24  C   UNL     1       3.457  -5.147  -2.443  0.00  0.00    +0.173 C 
BRANCH  24  25
ATOM     25  C   UNL     1       4.596  -4.559  -3.236  0.00  0.00    +0.223 C 
ATOM     26  O   UNL     1       4.569  -3.391  -3.561  0.00  0.00    -0.275 OA
ATOM     27  N   UNL     1       5.645  -5.332  -3.583  0.00  0.00    -0.314 N 
ATOM     28  H   UNL     1       5.666  -6.266  -3.323  0.00  0.00    +0.149 HD
BRANCH  27  29
ATOM     29  C   UNL     1       6.752  -4.760  -4.354  0.00  0.00    +0.109 C 
BRANCH  29  30
ATOM     30  C   UNL     1       7.804  -5.841  -4.614  0.00  0.00    +0.054 C 
BRANCH  30  31
ATOM     31  C   UNL     1       8.943  -5.253  -5.406  0.00  0.00    -0.042 A 
ATOM     32  C   UNL     1       8.905  -5.275  -6.788  0.00  0.00    +0.007 A 
ATOM     33  C   UNL     1       9.947  -4.737  -7.520  0.00  0.00    +0.049 A 
ATOM     34  C   UNL     1      11.033  -4.174  -6.868  0.00  0.00    +0.161 A 
ATOM     35  C   UNL     1      11.070  -4.151  -5.477  0.00  0.00    +0.162 A 
ATOM     36  C   UNL     1      10.020  -4.688  -4.750  0.00  0.00    +0.053 A 
BRANCH  35  37
ATOM     37  O   UNL     1      12.133  -3.599  -4.833  0.00  0.00    -0.491 OA
ATOM     38  C   UNL     1      12.104  -3.611  -3.405  0.00  0.00    +0.277 C 
ENDBRANCH  35  37
BRANCH  34  39
ATOM     39  O   UNL     1      12.059  -3.645  -7.587  0.00  0.00    -0.491 OA
ATOM     40  C   UNL     1      11.953  -3.704  -9.010  0.00  0.00    +0.277 C 
ENDBRANCH  34  39
ENDBRANCH  30  31
ENDBRANCH  29  30
ENDBRANCH  27  29
ENDBRANCH  24  25
ENDBRANCH  23  24
ENDBRANCH  10  23
TORSDOF 10
