REMARK  Name = ZINC03861359
REMARK  2 active torsions:
REMARK  status: ('A' for Active; 'I' for Inactive)
REMARK    1  A    between atoms: C_5  and  O_10
REMARK    2  A    between atoms: C_5  and  O_11
REMARK                            x       y       z     vdW  Elec       q    Type
REMARK                         _______ _______ _______ _____ _____    ______ ____
ROOT
ATOM      1  C   UNL     1       0.002  -0.004   0.002  0.00  0.00    +0.011 C 
ATOM      2  C   UNL     1       0.639  -0.497  -1.301  0.00  0.00    +0.080 C 
ATOM      3  C   UNL     1       2.001   0.145  -1.444  0.00  0.00    +0.195 C 
ATOM      4  O   UNL     1       2.982  -0.524  -1.664  0.00  0.00    -0.292 OA
ATOM      5  C   UNL     1       2.103   1.648  -1.304  0.00  0.00    +0.259 C 
ATOM      6  C   UNL     1       1.413   2.063  -0.000  0.00  0.00    +0.179 C 
ATOM      7  C   UNL     1      -0.019   1.525   0.010  0.00  0.00    +0.045 C 
ATOM      8 CL   UNL     1       1.380   3.862   0.116  0.00  0.00    -0.095 Cl
ATOM      9 CL   UNL     1       2.321   1.387   1.403  0.00  0.00    -0.095 Cl
ENDROOT
BRANCH   5  10
ATOM     10  O   UNL     1       3.479   2.034  -1.263  0.00  0.00    -0.357 OA
ATOM     11  H   UNL     1       3.980   1.788  -2.052  0.00  0.00    +0.213 HD
ENDBRANCH   5  10
BRANCH   5  12
ATOM     12  O   UNL     1       1.461   2.279  -2.414  0.00  0.00    -0.357 OA
ATOM     13  H   UNL     1       1.841   2.047  -3.272  0.00  0.00    +0.213 HD
ENDBRANCH   5  12
TORSDOF 2
