REMARK  Name = ZINC07125421
REMARK  12 active torsions:
REMARK  status: ('A' for Active; 'I' for Inactive)
REMARK    1  A    between atoms: C_1  and  C_2
REMARK    2  A    between atoms: C_2  and  C_3
REMARK    3  A    between atoms: C_3  and  C_4
REMARK    4  A    between atoms: C_7  and  C_10
REMARK    5  A    between atoms: C_10  and  C_31
REMARK    6  A    between atoms: N_13  and  C_17
REMARK    7  A    between atoms: C_17  and  C_18
REMARK    8  A    between atoms: N_20  and  C_21
REMARK    9  A    between atoms: C_21  and  C_22
REMARK   10  A    between atoms: C_22  and  C_23
REMARK   11  A    between atoms: C_26  and  O_29
REMARK   12  A    between atoms: O_29  and  C_30
REMARK                            x       y       z     vdW  Elec       q    Type
REMARK                         _______ _______ _______ _____ _____    ______ ____
ROOT
ATOM      1  C   UNL     1      -0.018   1.469   0.010  0.00  0.00    +0.135 C 
ATOM      2  C   UNL     1       1.450   1.845  -0.002  0.00  0.00    +0.251 C 
ATOM      3  O   UNL     1       1.920   2.963  -0.001  0.00  0.00    -0.272 OA
ATOM      4  N   UNL     1       2.125   0.679  -0.015  0.00  0.00    -0.215 N 
ATOM      5  C   UNL     1       1.296  -0.371  -0.012  0.00  0.00    +0.310 C 
ATOM      6  O   UNL     1       1.670  -1.528  -0.022  0.00  0.00    -0.252 OA
ATOM      7  N   UNL     1       0.002  -0.004   0.002  0.00  0.00    -0.281 N 
ATOM      8  C   UNL     1      -0.721   2.005  -1.239  0.00  0.00    +0.047 C 
ATOM      9  H   UNL     1      -0.768  -0.594   0.006  0.00  0.00    +0.152 HD
ENDROOT
BRANCH   1  13
ATOM     10  C   UNL     1      -1.913   2.926   3.550  0.00  0.00    -0.047 A 
ATOM     11  C   UNL     1      -2.314   1.725   2.996  0.00  0.00    +0.004 A 
ATOM     12  C   UNL     1      -1.701   1.253   1.850  0.00  0.00    +0.006 A 
ATOM     13  C   UNL     1      -0.687   1.983   1.259  0.00  0.00    -0.015 A 
ATOM     14  C   UNL     1      -0.283   3.182   1.816  0.00  0.00    +0.006 A 
ATOM     15  C   UNL     1      -0.899   3.656   2.958  0.00  0.00    +0.004 A 
BRANCH  10  16
ATOM     16  C   UNL     1      -2.582   3.440   4.799  0.00  0.00    +0.035 C 
BRANCH  16  18
ATOM     17  C   UNL     1      -2.514   3.440   7.297  0.00  0.00    +0.004 C 
ATOM     18  C   UNL     1      -1.836   2.918   6.028  0.00  0.00    +0.001 C 
ENDBRANCH  16  18
ENDBRANCH  10  16
ENDBRANCH   1  13
BRANCH   4  19
ATOM     19  C   UNL     1       3.587   0.574  -0.028  0.00  0.00    +0.213 C 
BRANCH  19  20
ATOM     20  C   UNL     1       4.075   0.545  -1.454  0.00  0.00    +0.231 C 
ATOM     21  O   UNL     1       3.280   0.607  -2.368  0.00  0.00    -0.274 OA
ATOM     22  N   UNL     1       5.394   0.451  -1.712  0.00  0.00    -0.314 N 
ATOM     23  H   UNL     1       6.029   0.402  -0.981  0.00  0.00    +0.149 HD
BRANCH  22  24
ATOM     24  C   UNL     1       5.869   0.424  -3.098  0.00  0.00    +0.109 C 
BRANCH  24  25
ATOM     25  C   UNL     1       7.395   0.314  -3.113  0.00  0.00    +0.054 C 
BRANCH  25  26
ATOM     26  C   UNL     1       7.883   0.285  -4.538  0.00  0.00    -0.046 A 
ATOM     27  C   UNL     1       8.026  -0.923  -5.195  0.00  0.00    +0.007 A 
ATOM     28  C   UNL     1       8.468  -0.951  -6.503  0.00  0.00    +0.046 A 
ATOM     29  C   UNL     1       8.779   0.233  -7.155  0.00  0.00    +0.120 A 
ATOM     30  C   UNL     1       8.640   1.444  -6.492  0.00  0.00    +0.046 A 
ATOM     31  C   UNL     1       8.193   1.467  -5.185  0.00  0.00    +0.007 A 
BRANCH  29  32
ATOM     32  O   UNL     1       9.219   0.208  -8.440  0.00  0.00    -0.495 OA
ATOM     33  C   UNL     1       9.338  -1.075  -9.060  0.00  0.00    +0.277 C 
ENDBRANCH  29  32
ENDBRANCH  25  26
ENDBRANCH  24  25
ENDBRANCH  22  24
ENDBRANCH  19  20
ENDBRANCH   4  19
TORSDOF 9
