REMARK  Name = ZINC40304523
REMARK  6 active torsions:
REMARK  status: ('A' for Active; 'I' for Inactive)
REMARK    1  A    between atoms: C_1  and  C_2
REMARK    2  A    between atoms: C_2  and  C_3
REMARK    3  A    between atoms: C_7  and  C_21
REMARK    4  A    between atoms: C_11  and  C_13
REMARK    5  A    between atoms: C_15  and  N_20
REMARK    6  A    between atoms: C_17  and  N_19
REMARK                            x       y       z     vdW  Elec       q    Type
REMARK                         _______ _______ _______ _____ _____    ______ ____
ROOT
ATOM      1  C   UNL     1       4.111   1.110   1.995  0.00  0.00    +0.040 A 
ATOM      2  C   UNL     1       4.774   1.420   3.183  0.00  0.00    +0.036 A 
ATOM      3  C   UNL     1       6.132   1.702   3.164  0.00  0.00    +0.027 A 
ATOM      4  C   UNL     1       6.831   1.675   1.965  0.00  0.00    +0.045 A 
ATOM      5  C   UNL     1       6.175   1.367   0.781  0.00  0.00    +0.027 A 
ATOM      6  C   UNL     1       4.818   1.078   0.793  0.00  0.00    +0.036 A 
ENDROOT
BRANCH   1  13
ATOM      7  C   UNL     1       0.772  -0.654   1.455  0.00  0.00    +0.102 C 
ATOM      8  C   UNL     1       0.671  -2.127   1.867  0.00  0.00    +0.182 C 
ATOM      9  O   UNL     1       1.486  -2.917   0.998  0.00  0.00    -0.373 OA
ATOM     10  C   UNL     1       2.880  -2.606   1.059  0.00  0.00    +0.133 C 
ATOM     11  C   UNL     1       3.094  -1.158   0.605  0.00  0.00    +0.139 C 
ATOM     12  N   UNL     1       2.196  -0.289   1.383  0.00  0.00    -0.290 N 
ATOM     13  C   UNL     1       2.663   0.808   2.012  0.00  0.00    +0.247 C 
ATOM     14  O   UNL     1       1.894   1.550   2.592  0.00  0.00    -0.270 OA
ATOM     15  C   UNL     1       3.655  -3.551   0.139  0.00  0.00    +0.039 C 
BRANCH   7  17
ATOM     16  C   UNL     1       0.124   1.031  -0.272  0.00  0.00    +0.006 C 
ATOM     17  C   UNL     1       0.120  -0.457   0.085  0.00  0.00    +0.021 C 
ENDBRANCH   7  17
ENDBRANCH   1  13
BRANCH   5  18
ATOM     18  N   UNL     1       6.883   1.341  -0.423  0.00  0.00    -0.358 N 
ATOM     19  H   UNL     1       7.832   1.539  -0.432  0.00  0.00    +0.142 HD
ATOM     20  H   UNL     1       6.424   1.126  -1.251  0.00  0.00    +0.142 HD
ENDBRANCH   5  18
BRANCH   3  21
ATOM     21  N   UNL     1       6.796   2.014   4.353  0.00  0.00    -0.358 N 
ATOM     22  H   UNL     1       6.308   2.033   5.191  0.00  0.00    +0.142 HD
ATOM     23  H   UNL     1       7.746   2.211   4.340  0.00  0.00    +0.142 HD
ENDBRANCH   3  21
TORSDOF 4
