REMARK  Name = ZINC50674003
REMARK  5 active torsions:
REMARK  status: ('A' for Active; 'I' for Inactive)
REMARK    1  A    between atoms: C_1  and  C_2
REMARK    2  A    between atoms: C_2  and  N_9
REMARK    3  A    between atoms: N_9  and  S_10
REMARK    4  A    between atoms: S_10  and  C_13
REMARK    5  A    between atoms: N_19  and  C_20
REMARK                            x       y       z     vdW  Elec       q    Type
REMARK                         _______ _______ _______ _____ _____    ______ ____
ROOT
ATOM      1  S   UNL     1       0.358  -0.145  -2.675  0.00  0.00    +0.059 S 
ATOM      2  O   UNL     1       1.162  -0.893  -3.578  0.00  0.00    -0.153 OA
ATOM      3  O   UNL     1      -1.061  -0.207  -2.688  0.00  0.00    -0.153 OA
ENDROOT
BRANCH   1   4
ATOM      4  C   UNL     1       0.790   1.548  -2.899  0.00  0.00    +0.110 A 
ATOM      5  C   UNL     1      -0.151   2.552  -2.713  0.00  0.00    +0.048 A 
ATOM      6  C   UNL     1       0.219   3.869  -2.896  0.00  0.00    +0.115 A 
ATOM      7  N   UNL     1       1.453   4.183  -3.244  0.00  0.00    -0.240 NA
ATOM      8  C   UNL     1       2.379   3.255  -3.430  0.00  0.00    +0.120 A 
ATOM      9  C   UNL     1       2.077   1.908  -3.258  0.00  0.00    +0.072 A 
ATOM     10  N   UNL     1       3.667   3.631  -3.796  0.00  0.00    -0.332 N 
ATOM     11  C   UNL     1       4.696   2.610  -4.004  0.00  0.00    +0.127 C 
ATOM     12  H   UNL     1       3.883   4.569  -3.914  0.00  0.00    +0.147 HD
ENDBRANCH   1   4
BRANCH   1  13
ATOM     13  N   UNL     1       0.837  -0.575  -1.149  0.00  0.00    -0.183 NA
ATOM     14  H   UNL     1       1.514  -1.258  -1.028  0.00  0.00    +0.149 HD
BRANCH  13  16
ATOM     15  C   UNL     1      -1.286   0.036  -0.130  0.00  0.00    +0.031 C 
ATOM     16  C   UNL     1       0.236   0.076   0.017  0.00  0.00    +0.058 C 
ATOM     17  C   UNL     1       0.627  -0.709   1.268  0.00  0.00    +0.047 C 
ATOM     18  C   UNL     1       1.953  -0.154   1.860  0.00  0.00    +0.168 C 
ATOM     19  S   UNL     1       1.671   1.653   1.604  0.00  0.00    -0.029 S 
ATOM     20  O   UNL     1       2.913   2.286   1.331  0.00  0.00    -0.174 OA
ATOM     21  O   UNL     1       0.843   2.150   2.647  0.00  0.00    -0.174 OA
ATOM     22  C   UNL     1       0.690   1.549   0.049  0.00  0.00    +0.189 C 
ENDBRANCH  13  16
ENDBRANCH   1  13
TORSDOF 3
