REMARK  Name = ZINC38933596
REMARK  7 active torsions:
REMARK  status: ('A' for Active; 'I' for Inactive)
REMARK    1  A    between atoms: C_1  and  C_2
REMARK    2  A    between atoms: C_5  and  C_37
REMARK    3  A    between atoms: N_8  and  S_10
REMARK    4  A    between atoms: S_10  and  C_13
REMARK    5  A    between atoms: C_16  and  C_19
REMARK    6  A    between atoms: C_25  and  C_27
REMARK    7  A    between atoms: C_30  and  C_33
REMARK                            x       y       z     vdW  Elec       q    Type
REMARK                         _______ _______ _______ _____ _____    ______ ____
ROOT
ATOM      1  C   UNL     1       3.868  -4.121  -4.163  0.00  0.00    +0.252 C 
ATOM      2  O   UNL     1       3.457  -5.108  -4.741  0.00  0.00    -0.270 OA
ATOM      3  N   UNL     1       4.742  -3.298  -4.773  0.00  0.00    -0.234 N 
ATOM      4  C   UNL     1       5.173  -3.576  -6.059  0.00  0.00    +0.315 A 
ATOM      5  N   UNL     1       4.808  -4.598  -6.796  0.00  0.00    -0.092 NA
ATOM      6  N   UNL     1       5.405  -4.541  -7.934  0.00  0.00    -0.106 NA
ATOM      7  C   UNL     1       6.175  -3.480  -7.969  0.00  0.00    +0.250 A 
ATOM      8  O   UNL     1       6.040  -2.845  -6.785  0.00  0.00    -0.405 OA
ATOM      9  H   UNL     1       5.070  -2.510  -4.312  0.00  0.00    +0.160 HD
ENDROOT
BRANCH   1  13
ATOM     10  C   UNL     1       2.547  -3.268  -0.217  0.00  0.00    +0.106 A 
ATOM     11  C   UNL     1       2.077  -4.392  -0.873  0.00  0.00    +0.029 A 
ATOM     12  C   UNL     1       2.502  -4.675  -2.154  0.00  0.00    +0.015 A 
ATOM     13  C   UNL     1       3.408  -3.824  -2.790  0.00  0.00    +0.037 A 
ATOM     14  C   UNL     1       3.878  -2.692  -2.123  0.00  0.00    +0.015 A 
ATOM     15  C   UNL     1       3.441  -2.418  -0.843  0.00  0.00    +0.029 A 
BRANCH  10  16
ATOM     16  S   UNL     1       1.999  -2.914   1.419  0.00  0.00    +0.061 S 
ATOM     17  O   UNL     1       2.998  -2.098   2.015  0.00  0.00    -0.153 OA
ATOM     18  O   UNL     1       1.587  -4.150   1.986  0.00  0.00    -0.153 OA
BRANCH  16  24
ATOM     19  C   UNL     1      -0.019   1.526   0.010  0.00  0.00    +0.009 C 
ATOM     20  C   UNL     1       0.002  -0.004   0.002  0.00  0.00    +0.002 C 
ATOM     21  C   UNL     1      -1.433  -0.534   0.015  0.00  0.00    +0.009 C 
ATOM     22  C   UNL     1      -1.414  -2.064  -0.027  0.00  0.00    +0.002 C 
ATOM     23  C   UNL     1      -0.692  -2.596   1.215  0.00  0.00    +0.112 C 
ATOM     24  N   UNL     1       0.639  -1.977   1.288  0.00  0.00    -0.176 NA
ATOM     25  C   UNL     1       0.742  -0.512   1.244  0.00  0.00    +0.112 C 
ATOM     26  C   UNL     1      -2.850  -2.592  -0.049  0.00  0.00    +0.009 C 
ENDBRANCH  16  24
ENDBRANCH  10  16
ENDBRANCH   1  13
BRANCH   7  27
ATOM     27  C   UNL     1       7.028  -3.055  -9.098  0.00  0.00    +0.039 A 
ATOM     28  C   UNL     1       7.805  -1.900  -8.993  0.00  0.00    +0.014 A 
ATOM     29  C   UNL     1       8.600  -1.509 -10.051  0.00  0.00    +0.013 A 
ATOM     30  C   UNL     1       8.628  -2.258 -11.213  0.00  0.00    +0.055 A 
ATOM     31  C   UNL     1       7.860  -3.404 -11.324  0.00  0.00    +0.013 A 
ATOM     32  C   UNL     1       7.065  -3.809 -10.272  0.00  0.00    +0.014 A 
BRANCH  30  33
ATOM     33  C   UNL     1       9.498  -1.824 -12.365  0.00  0.00    +0.417 C 
ATOM     34  F   UNL     1      10.764  -2.404 -12.237  0.00  0.00    -0.166 F 
ATOM     35  F   UNL     1       8.916  -2.235 -13.569  0.00  0.00    -0.166 F 
ATOM     36  F   UNL     1       9.620  -0.430 -12.357  0.00  0.00    -0.166 F 
ENDBRANCH  30  33
ENDBRANCH   7  27
TORSDOF 5
