REMARK  Name = ZINC63361844
REMARK  8 active torsions:
REMARK  status: ('A' for Active; 'I' for Inactive)
REMARK    1  A    between atoms: C_1  and  C_2
REMARK    2  A    between atoms: C_5  and  S_8
REMARK    3  A    between atoms: S_8  and  N_11
REMARK    4  A    between atoms: N_11  and  C_12
REMARK    5  A    between atoms: C_12  and  C_14
REMARK    6  A    between atoms: C_12  and  C_24
REMARK    7  A    between atoms: C_14  and  C_15
REMARK    8  A    between atoms: C_29  and  O_37
REMARK                            x       y       z     vdW  Elec       q    Type
REMARK                         _______ _______ _______ _____ _____    ______ ____
ROOT
ATOM      1  C   UNL     1       2.514  -4.697   1.113  0.00  0.00    +0.166 C 
ENDROOT
BRANCH   1   2
ATOM      2  C   UNL     1       3.883  -4.566   0.495  0.00  0.00    +0.235 C 
ATOM      3  O   UNL     1       4.065  -4.909  -0.653  0.00  0.00    -0.274 OA
ATOM      4  N   UNL     1       4.904  -4.067   1.220  0.00  0.00    -0.300 N 
ATOM      5  C   UNL     1       4.729  -3.756   2.646  0.00  0.00    +0.110 C 
ATOM      6  C   UNL     1       5.819  -4.477   3.444  0.00  0.00    +0.054 C 
ATOM      7  C   UNL     1       7.193  -4.097   2.885  0.00  0.00    +0.072 C 
ATOM      8  C   UNL     1       8.281  -4.804   3.698  0.00  0.00    +0.035 C 
ATOM      9  C   UNL     1       8.075  -6.318   3.612  0.00  0.00    +0.003 C 
ATOM     10  C   UNL     1       8.160  -6.764   2.151  0.00  0.00    +0.001 C 
ATOM     11  C   UNL     1       7.079  -6.053   1.335  0.00  0.00    +0.008 C 
ATOM     12  C   UNL     1       7.290  -4.540   1.423  0.00  0.00    +0.038 C 
ATOM     13  C   UNL     1       6.215  -3.830   0.602  0.00  0.00    +0.114 C 
BRANCH   7  14
ATOM     14  O   UNL     1       7.369  -2.682   2.968  0.00  0.00    -0.388 OA
ATOM     15  H   UNL     1       7.322  -2.332   3.869  0.00  0.00    +0.210 HD
ENDBRANCH   7  14
ENDBRANCH   1   2
BRANCH   1  16
ATOM     16  N   UNL     1       1.496  -4.635   0.061  0.00  0.00    -0.178 NA
ATOM     17  H   UNL     1       1.676  -5.019  -0.811  0.00  0.00    +0.149 HD
BRANCH  16  18
ATOM     18  S   UNL     1       0.038  -3.908   0.361  0.00  0.00    +0.059 S 
ATOM     19  O   UNL     1      -0.437  -4.445   1.588  0.00  0.00    -0.153 OA
ATOM     20  O   UNL     1      -0.709  -3.985  -0.845  0.00  0.00    -0.153 OA
BRANCH  18  25
ATOM     21  C   UNL     1       1.127   1.944   1.347  0.00  0.00    +0.044 C 
ATOM     22  C   UNL     1       0.855   0.482   1.100  0.00  0.00    -0.050 A 
ATOM     23  C   UNL     1       0.601   0.033  -0.182  0.00  0.00    +0.005 A 
ATOM     24  C   UNL     1       0.352  -1.308  -0.408  0.00  0.00    +0.029 A 
ATOM     25  C   UNL     1       0.357  -2.199   0.649  0.00  0.00    +0.105 A 
ATOM     26  C   UNL     1       0.613  -1.750   1.931  0.00  0.00    +0.029 A 
ATOM     27  C   UNL     1       0.866  -0.410   2.156  0.00  0.00    +0.005 A 
ENDBRANCH  18  25
ENDBRANCH  16  18
ENDBRANCH   1  16
BRANCH   1  28
ATOM     28  C   UNL     1       2.411  -6.036   1.844  0.00  0.00    +0.063 C 
BRANCH  28  29
ATOM     29  C   UNL     1       1.058  -6.149   2.498  0.00  0.00    -0.040 C 
ATOM     30  C   UNL     1      -0.041  -6.755   1.995  0.00  0.00    -0.001 A 
ATOM     31  C   UNL     1      -0.296  -7.465   0.735  0.00  0.00    +0.010 A 
ATOM     32  C   UNL     1      -1.528  -7.976   0.508  0.00  0.00    +0.001 A 
ATOM     33  C   UNL     1      -2.564  -7.846   1.443  0.00  0.00    +0.002 A 
ATOM     34  C   UNL     1      -2.406  -7.208   2.622  0.00  0.00    +0.026 A 
ATOM     35  C   UNL     1      -1.152  -6.632   2.965  0.00  0.00    +0.043 A 
ATOM     36  N   UNL     1      -0.755  -5.974   4.028  0.00  0.00    -0.380 N 
ATOM     37  C   UNL     1       0.655  -5.611   3.853  0.00  0.00    +0.144 C 
ATOM     38  H   UNL     1      -1.302  -5.766   4.801  0.00  0.00    +0.160 HD
ENDBRANCH  28  29
ENDBRANCH   1  28
TORSDOF 7
