REMARK  Name = ZINC02100102
REMARK  8 active torsions:
REMARK  status: ('A' for Active; 'I' for Inactive)
REMARK    1  A    between atoms: C_1  and  C_2
REMARK    2  A    between atoms: C_2  and  C_3
REMARK    3  A    between atoms: C_2  and  C_4
REMARK    4  A    between atoms: C_7  and  C_10
REMARK    5  A    between atoms: N_29  and  C_32
REMARK    6  A    between atoms: C_32  and  C_33
REMARK    7  A    between atoms: C_33  and  C_35
REMARK    8  A    between atoms: C_33  and  O_41
REMARK                            x       y       z     vdW  Elec       q    Type
REMARK                         _______ _______ _______ _____ _____    ______ ____
ROOT
ATOM      1  C   UNL     1       4.795   2.636  -0.035  0.00  0.00    +0.154 C 
ATOM      2  C   UNL     1       3.290   2.514   0.054  0.00  0.00    +0.046 A 
ATOM      3  C   UNL     1       2.637   1.332   0.064  0.00  0.00    -0.015 A 
ATOM      4  C   UNL     1       1.222   1.631   0.149  0.00  0.00    +0.003 A 
ATOM      5  C   UNL     1       0.083   0.822   0.192  0.00  0.00    +0.010 A 
ATOM      6  C   UNL     1      -1.130   1.460   0.275  0.00  0.00    +0.001 A 
ATOM      7  C   UNL     1      -1.233   2.841   0.325  0.00  0.00    +0.002 A 
ATOM      8  C   UNL     1      -0.123   3.666   0.283  0.00  0.00    +0.026 A 
ATOM      9  C   UNL     1       1.122   3.046   0.193  0.00  0.00    +0.047 A 
ATOM     10  N   UNL     1       2.391   3.545   0.131  0.00  0.00    -0.356 N 
ATOM     11  H   UNL     1       2.622   4.487   0.140  0.00  0.00    +0.166 HD
ATOM     12  C   UNL     1       3.304  -0.018   0.003  0.00  0.00    +0.069 C 
ATOM     13  C   UNL     1       4.743   0.161  -0.501  0.00  0.00    +0.167 C 
ATOM     14  N   UNL     1       5.361   1.289   0.195  0.00  0.00    -0.276 N 
ATOM     15  C   UNL     1       6.399   1.156   1.022  0.00  0.00    +0.234 C 
ATOM     16  O   UNL     1       6.792   2.147   1.600  0.00  0.00    -0.274 OA
ATOM     17  C   UNL     1       7.112  -0.131   1.282  0.00  0.00    +0.203 C 
ATOM     18  N   UNL     1       6.562  -1.227   0.502  0.00  0.00    -0.288 N 
ATOM     19  C   UNL     1       5.506  -1.108  -0.300  0.00  0.00    +0.237 C 
ATOM     20  O   UNL     1       5.140  -2.093  -0.906  0.00  0.00    -0.274 OA
ENDROOT
BRANCH   1  24
ATOM     21  C   UNL     1       6.212   5.336   2.956  0.00  0.00    -0.045 A 
ATOM     22  C   UNL     1       6.603   5.496   1.639  0.00  0.00    +0.004 A 
ATOM     23  C   UNL     1       6.144   4.622   0.672  0.00  0.00    +0.006 A 
ATOM     24  C   UNL     1       5.295   3.588   1.020  0.00  0.00    -0.021 A 
ATOM     25  C   UNL     1       4.900   3.432   2.336  0.00  0.00    +0.006 A 
ATOM     26  C   UNL     1       5.362   4.304   3.304  0.00  0.00    +0.004 A 
BRANCH  21  28
ATOM     27  C   UNL     1       5.524   6.994   4.667  0.00  0.00    +0.012 C 
ATOM     28  C   UNL     1       6.713   6.289   4.011  0.00  0.00    +0.013 C 
ATOM     29  C   UNL     1       7.493   5.510   5.072  0.00  0.00    +0.012 C 
ENDBRANCH  21  28
ENDBRANCH   1  24
BRANCH  18  30
ATOM     30  C   UNL     1       7.208  -2.538   0.604  0.00  0.00    +0.144 C 
BRANCH  30  31
ATOM     31  C   UNL     1       8.304  -2.651  -0.457  0.00  0.00    +0.162 C 
BRANCH  31  32
ATOM     32  C   UNL     1       8.884  -4.042  -0.434  0.00  0.00    -0.018 A 
ATOM     33  C   UNL     1       9.827  -4.382   0.519  0.00  0.00    +0.006 A 
ATOM     34  C   UNL     1      10.356  -5.659   0.543  0.00  0.00    +0.000 A 
ATOM     35  C   UNL     1       9.949  -6.593  -0.391  0.00  0.00    +0.000 A 
ATOM     36  C   UNL     1       9.011  -6.252  -1.347  0.00  0.00    +0.000 A 
ATOM     37  C   UNL     1       8.478  -4.976  -1.369  0.00  0.00    +0.006 A 
ENDBRANCH  31  32
BRANCH  31  38
ATOM     38  O   UNL     1       9.334  -1.700  -0.181  0.00  0.00    -0.386 OA
ATOM     39  H   UNL     1       9.758  -1.819   0.681  0.00  0.00    +0.210 HD
ENDBRANCH  31  38
ENDBRANCH  30  31
ENDBRANCH  18  30
TORSDOF 6
