REMARK  Name = ZINC04113476
REMARK  5 active torsions:
REMARK  status: ('A' for Active; 'I' for Inactive)
REMARK    1  A    between atoms: C_4  and  C_7
REMARK    2  A    between atoms: C_10  and  C_12
REMARK    3  A    between atoms: N_14  and  N_15
REMARK    4  A    between atoms: N_15  and  S_16
REMARK    5  A    between atoms: S_16  and  C_19
REMARK                            x       y       z     vdW  Elec       q    Type
REMARK                         _______ _______ _______ _____ _____    ______ ____
ROOT
ATOM      1  C   UNL     1      -0.187   7.354  -1.612  0.00  0.00    +0.231 C 
ATOM      2  O   UNL     1       0.804   7.807  -1.078  0.00  0.00    -0.274 OA
ATOM      3  N   UNL     1      -0.764   8.016  -2.634  0.00  0.00    -0.232 N 
ATOM      4  H   UNL     1      -1.556   7.654  -3.061  0.00  0.00    +0.171 HD
ENDROOT
BRANCH   1   7
ATOM      5  C   UNL     1      -0.070   5.347   0.031  0.00  0.00    +0.032 C 
ATOM      6  C   UNL     1      -1.419   6.034   0.254  0.00  0.00    +0.022 C 
ATOM      7  C   UNL     1      -0.772   6.051  -1.133  0.00  0.00    +0.084 C 
BRANCH   5  11
ATOM      8  C   UNL     1      -0.013   1.076   0.008  0.00  0.00    +0.000 A 
ATOM      9  C   UNL     1      -1.219   1.751   0.017  0.00  0.00    +0.000 A 
ATOM     10  C   UNL     1      -1.238   3.133   0.030  0.00  0.00    +0.004 A 
ATOM     11  C   UNL     1      -0.050   3.840   0.023  0.00  0.00    -0.044 A 
ATOM     12  C   UNL     1       1.156   3.165   0.008  0.00  0.00    +0.004 A 
ATOM     13  C   UNL     1       1.175   1.783   0.000  0.00  0.00    +0.000 A 
ENDBRANCH   5  11
ENDBRANCH   1   7
BRANCH   3  14
ATOM     14  N   UNL     1      -0.220   9.228  -3.079  0.00  0.00    -0.108 NA
ATOM     15  H   UNL     1      -0.083   9.957  -2.454  0.00  0.00    +0.172 HD
BRANCH  14  16
ATOM     16  S   UNL     1       0.188   9.416  -4.673  0.00  0.00    +0.074 S 
ATOM     17  O   UNL     1       0.568  10.776  -4.838  0.00  0.00    -0.152 OA
ATOM     18  O   UNL     1       1.054   8.338  -5.001  0.00  0.00    -0.152 OA
BRANCH  16  19
ATOM     19  C   UNL     1      -1.282   9.187  -5.618  0.00  0.00    +0.107 A 
ATOM     20  C   UNL     1      -1.622   7.926  -6.072  0.00  0.00    +0.029 A 
ATOM     21  C   UNL     1      -2.777   7.745  -6.809  0.00  0.00    +0.017 A 
ATOM     22  C   UNL     1      -3.587   8.828  -7.101  0.00  0.00    +0.018 A 
ATOM     23  C   UNL     1      -3.244  10.090  -6.651  0.00  0.00    +0.017 A 
ATOM     24  C   UNL     1      -2.091  10.269  -5.910  0.00  0.00    +0.029 A 
ATOM     25 BR   UNL     1      -5.165   8.582  -8.115  0.00  0.00    -0.050 Br
ENDBRANCH  16  19
ENDBRANCH  14  16
ENDBRANCH   3  14
TORSDOF 5
