REMARK  Name = ZINC12773343
REMARK  8 active torsions:
REMARK  status: ('A' for Active; 'I' for Inactive)
REMARK    1  A    between atoms: C_1  and  N_2
REMARK    2  A    between atoms: N_2  and  C_3
REMARK    3  A    between atoms: C_3  and  C_4
REMARK    4  A    between atoms: C_12  and  C_14
REMARK    5  A    between atoms: C_14  and  S_15
REMARK    6  A    between atoms: S_15  and  C_16
REMARK    7  A    between atoms: C_19  and  C_25
REMARK    8  A    between atoms: C_21  and  N_22
REMARK                            x       y       z     vdW  Elec       q    Type
REMARK                         _______ _______ _______ _____ _____    ______ ____
ROOT
ATOM      1  S   UNL     1      -3.389   0.828   4.543  0.00  0.00    -0.114 S 
ENDROOT
BRANCH   1   2
ATOM      2  C   UNL     1      -3.691   1.508   6.141  0.00  0.00    +0.039 A 
ATOM      3  C   UNL     1      -3.297   2.813   6.426  0.00  0.00    +0.018 A 
ATOM      4  C   UNL     1      -3.528   3.345   7.662  0.00  0.00    +0.014 A 
ATOM      5  C   UNL     1      -4.161   2.580   8.647  0.00  0.00    +0.039 A 
ATOM      6  C   UNL     1      -4.557   1.269   8.363  0.00  0.00    +0.047 A 
ATOM      7  C   UNL     1      -4.327   0.741   7.114  0.00  0.00    +0.140 A 
BRANCH   5   8
ATOM      8  C   UNL     1      -4.410   3.154   9.983  0.00  0.00    +0.242 C 
ATOM      9  O   UNL     1      -4.960   2.488  10.838  0.00  0.00    -0.270 OA
ATOM     10  N   UNL     1      -4.027   4.418  10.255  0.00  0.00    -0.325 N 
ATOM     11  H   UNL     1      -3.588   4.949   9.572  0.00  0.00    +0.145 HD
ATOM     12  H   UNL     1      -4.191   4.795  11.133  0.00  0.00    +0.145 HD
ENDBRANCH   5   8
BRANCH   7  13
ATOM     13  N   UNL     1      -4.749  -0.644   6.806  0.00  0.00    +0.058 N 
ATOM     14  O   UNL     1      -5.305  -1.315   7.658  0.00  0.00    -0.126 OA
ATOM     15  O   UNL     1      -4.541  -1.114   5.702  0.00  0.00    -0.126 OA
ENDBRANCH   7  13
ENDBRANCH   1   2
BRANCH   1  16
ATOM     16  C   UNL     1      -2.568   2.171   3.643  0.00  0.00    +0.170 C 
BRANCH  16  19
ATOM     17  C   UNL     1      -1.274   3.907   1.814  0.00  0.00    +0.132 C 
ATOM     18  N   UNL     1      -1.635   2.554   1.384  0.00  0.00    -0.299 N 
ATOM     19  C   UNL     1      -2.251   1.716   2.241  0.00  0.00    +0.226 C 
ATOM     20  O   UNL     1      -2.549   0.596   1.885  0.00  0.00    -0.275 OA
BRANCH  18  21
ATOM     21  C   UNL     1      -1.326   2.111   0.022  0.00  0.00    +0.144 C 
BRANCH  21  22
ATOM     22  C   UNL     1      -0.008   1.380   0.018  0.00  0.00    -0.012 A 
ATOM     23  C   UNL     1       0.751   1.318   1.171  0.00  0.00    +0.008 A 
ATOM     24  C   UNL     1       1.957   0.642   1.169  0.00  0.00    +0.020 A 
ATOM     25  C   UNL     1       2.405   0.029   0.013  0.00  0.00    +0.042 A 
ATOM     26  C   UNL     1       1.645   0.091  -1.141  0.00  0.00    +0.040 A 
ATOM     27  C   UNL     1       0.438   0.767  -1.139  0.00  0.00    +0.047 A 
ATOM     28 CL   UNL     1      -0.515   0.846  -2.588  0.00  0.00    -0.083 Cl
ATOM     29 CL   UNL     1       3.920  -0.819   0.011  0.00  0.00    -0.083 Cl
ENDBRANCH  21  22
ENDBRANCH  18  21
ENDBRANCH  16  19
ENDBRANCH   1  16
TORSDOF 7
