REMARK  Name = ZINC58611200
REMARK  5 active torsions:
REMARK  status: ('A' for Active; 'I' for Inactive)
REMARK    1  A    between atoms: C_1  and  C_2
REMARK    2  A    between atoms: C_2  and  C_4
REMARK    3  A    between atoms: C_2  and  S_19
REMARK    4  A    between atoms: N_6  and  C_7
REMARK    5  A    between atoms: S_19  and  C_20
REMARK                            x       y       z     vdW  Elec       q    Type
REMARK                         _______ _______ _______ _____ _____    ______ ____
ROOT
ATOM      1  C   UNL     1       0.772  -0.347   1.278  0.00  0.00    +0.230 C 
ATOM      2  O   UNL     1       1.978  -0.474   1.269  0.00  0.00    -0.274 OA
ATOM      3  N   UNL     1       0.071  -0.647   2.389  0.00  0.00    -0.285 N 
ATOM      4  H   UNL     1      -0.882  -0.474   2.423  0.00  0.00    +0.155 HD
ENDROOT
BRANCH   3   5
ATOM      5  C   UNL     1       0.721  -1.210   3.496  0.00  0.00    +0.035 A 
ATOM      6  C   UNL     1       0.284  -0.911   4.782  0.00  0.00    +0.025 A 
ATOM      7  C   UNL     1       0.919  -1.462   5.877  0.00  0.00    +0.029 A 
ATOM      8  C   UNL     1       1.997  -2.315   5.694  0.00  0.00    +0.067 A 
ATOM      9  C   UNL     1       2.438  -2.617   4.404  0.00  0.00    +0.069 A 
ATOM     10  C   UNL     1       1.794  -2.067   3.307  0.00  0.00    +0.051 A 
ATOM     11  N   UNL     1       3.518  -3.486   4.541  0.00  0.00    -0.306 N 
ATOM     12  H   UNL     1       4.033  -3.869   3.814  0.00  0.00    +0.170 HD
ATOM     13  C   UNL     1       3.725  -3.703   5.853  0.00  0.00    +0.325 A 
ATOM     14  O   UNL     1       4.596  -4.417   6.316  0.00  0.00    -0.247 OA
ATOM     15  N   UNL     1       2.824  -3.011   6.575  0.00  0.00    -0.306 N 
ATOM     16  H   UNL     1       2.761  -2.999   7.543  0.00  0.00    +0.170 HD
ENDBRANCH   3   5
BRANCH   1  18
ATOM     17  C   UNL     1      -0.149   1.658   0.148  0.00  0.00    +0.029 C 
ATOM     18  C   UNL     1       0.057   0.145   0.046  0.00  0.00    +0.137 C 
BRANCH  18  19
ATOM     19  S   UNL     1       1.052  -0.232  -1.423  0.00  0.00    -0.075 S 
BRANCH  19  20
ATOM     20  C   UNL     1       0.029   0.264  -2.769  0.00  0.00    +0.168 A 
ATOM     21  N   UNL     1       0.365   0.161  -4.090  0.00  0.00    -0.333 N 
ATOM     22  H   UNL     1       1.195  -0.192  -4.447  0.00  0.00    +0.168 HD
ATOM     23  C   UNL     1      -0.702   0.655  -4.824  0.00  0.00    +0.070 A 
ATOM     24  C   UNL     1      -0.945   0.808  -6.181  0.00  0.00    +0.069 A 
ATOM     25  C   UNL     1      -2.142   1.349  -6.609  0.00  0.00    +0.160 A 
ATOM     26  C   UNL     1      -3.106   1.741  -5.686  0.00  0.00    +0.161 A 
ATOM     27  C   UNL     1      -2.878   1.595  -4.335  0.00  0.00    +0.071 A 
ATOM     28  C   UNL     1      -1.672   1.049  -3.888  0.00  0.00    +0.093 A 
ATOM     29  N   UNL     1      -1.169   0.781  -2.654  0.00  0.00    -0.222 NA
ATOM     30  F   UNL     1      -4.272   2.268  -6.118  0.00  0.00    -0.202 F 
ATOM     31  F   UNL     1      -2.377   1.498  -7.931  0.00  0.00    -0.202 F 
ENDBRANCH  19  20
ENDBRANCH  18  19
ENDBRANCH   1  18
TORSDOF 4
