REMARK  Name = ZINC34919849
REMARK  12 active torsions:
REMARK  status: ('A' for Active; 'I' for Inactive)
REMARK    1  A    between atoms: C_1  and  C_2
REMARK    2  A    between atoms: C_2  and  C_3
REMARK    3  A    between atoms: C_3  and  C_5
REMARK    4  A    between atoms: C_3  and  N_6
REMARK    5  A    between atoms: N_6  and  S_7
REMARK    6  A    between atoms: S_7  and  C_10
REMARK    7  A    between atoms: C_12  and  N_25
REMARK    8  A    between atoms: C_15  and  N_16
REMARK    9  A    between atoms: C_19  and  C_22
REMARK   10  A    between atoms: C_26  and  C_28
REMARK   11  A    between atoms: C_28  and  C_29
REMARK   12  A    between atoms: C_29  and  C_30
REMARK                            x       y       z     vdW  Elec       q    Type
REMARK                         _______ _______ _______ _____ _____    ______ ____
ROOT
ATOM      1  C   UNL     1      -4.284   1.709  -0.104  0.00  0.00    +0.128 A 
ATOM      2  C   UNL     1      -4.894   2.843  -0.603  0.00  0.00    +0.053 A 
ATOM      3  C   UNL     1      -4.913   4.009   0.150  0.00  0.00    +0.035 A 
ATOM      4  C   UNL     1      -4.319   4.036   1.405  0.00  0.00    +0.025 A 
ATOM      5  C   UNL     1      -3.709   2.902   1.904  0.00  0.00    +0.027 A 
ATOM      6  C   UNL     1      -3.695   1.734   1.154  0.00  0.00    +0.056 A 
ENDROOT
BRANCH   6   7
ATOM      7  N   UNL     1      -3.083   0.583   1.662  0.00  0.00    -0.328 N 
ATOM      8  C   UNL     1      -1.632   0.388   1.532  0.00  0.00    +0.106 C 
ATOM      9  C   UNL     1      -1.046   0.107   2.919  0.00  0.00    +0.031 C 
ATOM     10  C   UNL     1      -1.785  -1.075   3.551  0.00  0.00    +0.078 C 
ATOM     11  C   UNL     1      -3.266  -0.724   3.715  0.00  0.00    +0.031 C 
ATOM     12  C   UNL     1      -3.876  -0.449   2.342  0.00  0.00    +0.106 C 
BRANCH  10  13
ATOM     13  C   UNL     1      -1.188  -1.375   4.902  0.00  0.00    +0.214 C 
ATOM     14  O   UNL     1      -0.263  -0.710   5.318  0.00  0.00    -0.276 OA
ATOM     15  N   UNL     1      -1.683  -2.383   5.648  0.00  0.00    -0.329 N 
ATOM     16  H   UNL     1      -2.423  -2.915   5.315  0.00  0.00    +0.145 HD
ATOM     17  H   UNL     1      -1.298  -2.577   6.517  0.00  0.00    +0.145 HD
ENDBRANCH  10  13
ENDBRANCH   6   7
BRANCH   3  18
ATOM     18  N   UNL     1      -5.532   5.160  -0.357  0.00  0.00    -0.285 N 
ATOM     19  C   UNL     1      -6.195   5.989   0.472  0.00  0.00    +0.217 C 
ATOM     20  O   UNL     1      -6.190   5.783   1.668  0.00  0.00    -0.275 OA
ATOM     21  H   UNL     1      -5.482   5.359  -1.305  0.00  0.00    +0.155 HD
BRANCH  19  22
ATOM     22  C   UNL     1      -6.943   7.173  -0.085  0.00  0.00    +0.096 C 
BRANCH  22  23
ATOM     23  C   UNL     1      -7.603   7.944   1.060  0.00  0.00    +0.013 C 
BRANCH  23  24
ATOM     24  C   UNL     1      -8.363   9.146   0.494  0.00  0.00    -0.011 C 
ATOM     25  C   UNL     1      -9.614   8.677  -0.289  0.00  0.00    +0.003 C 
ATOM     26  C   UNL     1     -10.532   9.923  -0.245  0.00  0.00    +0.000 C 
ATOM     27  C   UNL     1     -10.312  10.505   1.167  0.00  0.00    +0.000 C 
ATOM     28  C   UNL     1      -8.933  10.011   1.636  0.00  0.00    +0.003 C 
ENDBRANCH  23  24
ENDBRANCH  22  23
ENDBRANCH  19  22
ENDBRANCH   3  18
BRANCH   1  29
ATOM     29  S   UNL     1      -4.261   0.228  -1.059  0.00  0.00    +0.060 S 
ATOM     30  O   UNL     1      -3.180  -0.554  -0.569  0.00  0.00    -0.153 OA
ATOM     31  O   UNL     1      -4.361   0.621  -2.420  0.00  0.00    -0.153 OA
BRANCH  29  32
ATOM     32  N   UNL     1      -5.646  -0.606  -0.703  0.00  0.00    -0.187 NA
ATOM     33  H   UNL     1      -5.595  -1.458  -0.242  0.00  0.00    +0.148 HD
BRANCH  32  34
ATOM     34  C   UNL     1      -6.950  -0.058  -1.086  0.00  0.00    +0.073 C 
ATOM     35  C   UNL     1      -7.374  -0.645  -2.434  0.00  0.00    +0.025 C 
BRANCH  34  37
ATOM     36  C   UNL     1      -7.603   0.230   1.308  0.00  0.00    +0.005 C 
ATOM     37  C   UNL     1      -7.988  -0.420  -0.022  0.00  0.00    +0.017 C 
ENDBRANCH  34  37
ENDBRANCH  32  34
ENDBRANCH  29  32
ENDBRANCH   1  29
TORSDOF 10
