REMARK  Name = ZINC26860911
REMARK  11 active torsions:
REMARK  status: ('A' for Active; 'I' for Inactive)
REMARK    1  A    between atoms: C_1  and  C_2
REMARK    2  A    between atoms: C_2  and  C_27
REMARK    3  A    between atoms: N_5  and  N_9
REMARK    4  A    between atoms: C_10  and  C_12
REMARK    5  A    between atoms: C_12  and  N_13
REMARK    6  A    between atoms: N_13  and  C_14
REMARK    7  A    between atoms: N_13  and  C_21
REMARK    8  A    between atoms: C_14  and  C_15
REMARK    9  A    between atoms: C_21  and  C_22
REMARK   10  A    between atoms: C_27  and  C_28
REMARK   11  A    between atoms: C_28  and  C_29
REMARK                            x       y       z     vdW  Elec       q    Type
REMARK                         _______ _______ _______ _____ _____    ______ ____
ROOT
ATOM      1  N   UNL     1       3.026  -1.366  -0.974  0.00  0.00    -0.225 N 
ATOM      2  C   UNL     1       4.267  -0.920  -1.252  0.00  0.00    +0.213 C 
ATOM      3  O   UNL     1       4.619   0.175  -0.866  0.00  0.00    -0.276 OA
ATOM      4  H   UNL     1       2.745  -2.241  -1.283  0.00  0.00    +0.173 HD
ENDROOT
BRANCH   1   9
ATOM      5  C   UNL     1       0.476   2.336   0.168  0.00  0.00    +0.041 C 
ATOM      6  C   UNL     1       0.437   0.821   0.383  0.00  0.00    +0.112 C 
ATOM      7  C   UNL     1       1.101   0.101  -0.774  0.00  0.00    +0.263 C 
ATOM      8  O   UNL     1       0.764   0.121  -1.938  0.00  0.00    -0.271 OA
ATOM      9  N   UNL     1       2.143  -0.565  -0.238  0.00  0.00    -0.137 N 
ATOM     10  C   UNL     1       2.229  -0.368   1.082  0.00  0.00    +0.326 C 
ATOM     11  O   UNL     1       3.087  -0.865   1.785  0.00  0.00    -0.251 OA
ATOM     12  N   UNL     1       1.259   0.442   1.545  0.00  0.00    -0.284 N 
ATOM     13  H   UNL     1       1.128   0.721   2.465  0.00  0.00    +0.151 HD
BRANCH   6  14
ATOM     14  C   UNL     1      -1.005   0.342   0.564  0.00  0.00    +0.040 C 
BRANCH  14  15
ATOM     15  C   UNL     1      -1.628   1.046   1.771  0.00  0.00    +0.038 C 
BRANCH  15  16
ATOM     16  C   UNL     1      -3.048   0.573   1.950  0.00  0.00    -0.047 A 
ATOM     17  C   UNL     1      -4.082   1.236   1.315  0.00  0.00    +0.003 A 
ATOM     18  C   UNL     1      -5.384   0.802   1.478  0.00  0.00    +0.000 A 
ATOM     19  C   UNL     1      -5.653  -0.294   2.277  0.00  0.00    +0.000 A 
ATOM     20  C   UNL     1      -4.619  -0.957   2.911  0.00  0.00    +0.000 A 
ATOM     21  C   UNL     1      -3.316  -0.526   2.744  0.00  0.00    +0.003 A 
ENDBRANCH  15  16
ENDBRANCH  14  15
ENDBRANCH   6  14
ENDBRANCH   1   9
BRANCH   2  22
ATOM     22  C   UNL     1       5.218  -1.781  -2.043  0.00  0.00    +0.021 C 
BRANCH  22  23
ATOM     23  N   UNL     1       6.495  -1.075  -2.211  0.00  0.00    +0.393 N 
ATOM     24  H   UNL     1       6.327  -0.172  -2.629  0.00  0.00    -0.080 HD
BRANCH  23  25
ATOM     25  C   UNL     1       7.379  -1.861  -3.082  0.00  0.00    -0.042 C 
BRANCH  25  26
ATOM     26  C   UNL     1       6.790  -1.927  -4.468  0.00  0.00    -0.064 A 
ATOM     27  C   UNL     1       6.021  -3.012  -4.841  0.00  0.00    +0.002 A 
ATOM     28  C   UNL     1       5.481  -3.072  -6.113  0.00  0.00    +0.000 A 
ATOM     29  C   UNL     1       5.710  -2.046  -7.010  0.00  0.00    +0.000 A 
ATOM     30  C   UNL     1       6.479  -0.960  -6.636  0.00  0.00    +0.000 A 
ATOM     31  C   UNL     1       7.015  -0.898  -5.363  0.00  0.00    +0.002 A 
ENDBRANCH  25  26
ENDBRANCH  23  25
BRANCH  23  32
ATOM     32  C   UNL     1       7.132  -0.897  -0.899  0.00  0.00    -0.002 C 
BRANCH  32  33
ATOM     33  C   UNL     1       8.381  -0.069  -1.056  0.00  0.00    +0.089 A 
ATOM     34  C   UNL     1       8.436   1.275  -1.080  0.00  0.00    +0.042 A 
ATOM     35  C   UNL     1       9.796   1.627  -1.243  0.00  0.00    +0.041 A 
ATOM     36  C   UNL     1      10.490   0.477  -1.308  0.00  0.00    +0.195 A 
ATOM     37  O   UNL     1       9.629  -0.547  -1.188  0.00  0.00    -0.470 OA
ENDBRANCH  32  33
ENDBRANCH  23  32
ENDBRANCH  22  23
ENDBRANCH   2  22
TORSDOF 10
