REMARK  Name = ZINC45561464
REMARK  10 active torsions:
REMARK  status: ('A' for Active; 'I' for Inactive)
REMARK    1  A    between atoms: C_1  and  C_2
REMARK    2  A    between atoms: C_2  and  O_3
REMARK    3  A    between atoms: O_3  and  C_4
REMARK    4  A    between atoms: C_4  and  C_6
REMARK    5  A    between atoms: C_7  and  C_29
REMARK    6  A    between atoms: C_8  and  C_25
REMARK    7  A    between atoms: C_10  and  N_11
REMARK    8  A    between atoms: C_12  and  C_14
REMARK    9  A    between atoms: C_15  and  C_24
REMARK   10  A    between atoms: N_27  and  C_28
REMARK                            x       y       z     vdW  Elec       q    Type
REMARK                         _______ _______ _______ _____ _____    ______ ____
ROOT
ATOM      1  C   UNL     1       1.498  -2.371   2.469  0.00  0.00    +0.091 A 
ATOM      2  C   UNL     1       0.816  -2.667   3.642  0.00  0.00    -0.015 A 
ATOM      3  C   UNL     1       1.563  -3.184   4.665  0.00  0.00    +0.079 A 
ATOM      4  S   UNL     1       3.200  -3.244   3.964  0.00  0.00    -0.068 S 
ATOM      5  C   UNL     1       2.870  -2.630   2.436  0.00  0.00    +0.087 A 
ATOM      6  C   UNL     1      -0.666  -2.432   3.780  0.00  0.00    +0.046 C 
ENDROOT
BRANCH   3   7
ATOM      7  C   UNL     1       1.127  -3.587   6.003  0.00  0.00    +0.251 C 
ATOM      8  O   UNL     1      -0.043  -3.477   6.320  0.00  0.00    -0.270 OA
ATOM      9  N   UNL     1       2.020  -4.080   6.884  0.00  0.00    -0.314 N 
ATOM     10  C   UNL     1       1.583  -4.483   8.223  0.00  0.00    +0.128 C 
ATOM     11  H   UNL     1       2.953  -4.168   6.631  0.00  0.00    +0.149 HD
ENDBRANCH   3   7
BRANCH   5  12
ATOM     12  N   UNL     1       3.749  -2.426   1.393  0.00  0.00    -0.273 N 
ATOM     13  C   UNL     1       5.053  -2.736   1.540  0.00  0.00    +0.284 C 
ATOM     14  O   UNL     1       5.454  -3.195   2.593  0.00  0.00    -0.266 OA
ATOM     15  H   UNL     1       3.429  -2.059   0.554  0.00  0.00    +0.156 HD
BRANCH  13  16
ATOM     16  C   UNL     1       5.989  -2.518   0.429  0.00  0.00    +0.194 A 
ATOM     17  C   UNL     1       7.318  -2.797   0.461  0.00  0.00    +0.008 A 
ATOM     18  C   UNL     1       7.842  -2.424  -0.852  0.00  0.00    +0.025 A 
ATOM     19  C   UNL     1       9.108  -2.464  -1.442  0.00  0.00    +0.032 A 
ATOM     20  C   UNL     1       9.270  -2.027  -2.728  0.00  0.00    +0.042 A 
ATOM     21  C   UNL     1       8.184  -1.546  -3.449  0.00  0.00    +0.023 A 
ATOM     22  C   UNL     1       6.928  -1.499  -2.884  0.00  0.00    +0.048 A 
ATOM     23  C   UNL     1       6.739  -1.937  -1.578  0.00  0.00    +0.136 A 
ATOM     24  O   UNL     1       5.658  -2.017  -0.779  0.00  0.00    -0.450 OA
ATOM     25 CL   UNL     1      10.841  -2.075  -3.464  0.00  0.00    -0.084 Cl
ATOM     26  C   UNL     1       8.096  -3.374   1.616  0.00  0.00    +0.048 C 
ENDBRANCH  13  16
ENDBRANCH   5  12
BRANCH   1  27
ATOM     27  C   UNL     1       0.801  -1.814   1.304  0.00  0.00    +0.342 C 
ATOM     28  O   UNL     1       0.321  -2.557   0.470  0.00  0.00    -0.245 OA
BRANCH  27  29
ATOM     29  O   UNL     1       0.693  -0.477   1.160  0.00  0.00    -0.461 OA
BRANCH  29  31
ATOM     30  C   UNL     1      -0.019   1.526   0.010  0.00  0.00    +0.048 C 
ATOM     31  C   UNL     1       0.002  -0.004   0.002  0.00  0.00    +0.229 C 
ENDBRANCH  29  31
ENDBRANCH  27  29
ENDBRANCH   1  27
TORSDOF 6
