REMARK  Name = ZINC12291669
REMARK  10 active torsions:
REMARK  status: ('A' for Active; 'I' for Inactive)
REMARK    1  A    between atoms: C_1  and  C_2
REMARK    2  A    between atoms: C_2  and  C_3
REMARK    3  A    between atoms: C_3  and  O_4
REMARK    4  A    between atoms: O_4  and  C_5
REMARK    5  A    between atoms: C_9  and  C_11
REMARK    6  A    between atoms: C_13  and  C_25
REMARK    7  A    between atoms: C_15  and  C_20
REMARK    8  A    between atoms: C_15  and  O_24
REMARK    9  A    between atoms: C_25  and  C_27
REMARK   10  A    between atoms: C_30  and  C_33
REMARK                            x       y       z     vdW  Elec       q    Type
REMARK                         _______ _______ _______ _____ _____    ______ ____
ROOT
ATOM      1  C   UNL     1      -2.488   0.994   0.036  0.00  0.00    +0.120 C 
ATOM      2  C   UNL     1      -2.712   0.429   1.442  0.00  0.00    +0.144 C 
ATOM      3  C   UNL     1      -1.633  -0.622   1.724  0.00  0.00    +0.243 C 
ATOM      4  N   UNL     1      -1.664  -1.637   0.669  0.00  0.00    -0.264 N 
ATOM      5  C   UNL     1      -2.066  -1.337  -0.576  0.00  0.00    +0.302 C 
ATOM      6  O   UNL     1      -2.062  -2.214  -1.417  0.00  0.00    -0.253 OA
ATOM      7  N   UNL     1      -2.472  -0.108  -0.928  0.00  0.00    -0.292 N 
ATOM      8  H   UNL     1      -1.388  -2.544   0.873  0.00  0.00    +0.153 HD
ATOM      9  H   UNL     1      -2.762   0.053  -1.839  0.00  0.00    +0.151 HD
ENDROOT
BRANCH   1  14
ATOM     10  C   UNL     1       1.162   1.764  -0.569  0.00  0.00    +0.121 A 
ATOM     11  C   UNL     1       1.252   3.062  -0.087  0.00  0.00    +0.045 A 
ATOM     12  C   UNL     1       0.132   3.685   0.429  0.00  0.00    +0.004 A 
ATOM     13  C   UNL     1      -1.078   3.017   0.464  0.00  0.00    +0.006 A 
ATOM     14  C   UNL     1      -1.169   1.722  -0.011  0.00  0.00    -0.023 A 
ATOM     15  C   UNL     1      -0.053   1.096  -0.532  0.00  0.00    +0.051 A 
BRANCH  10  16
ATOM     16  O   UNL     1       2.262   1.149  -1.077  0.00  0.00    -0.492 OA
BRANCH  16  17
ATOM     17  C   UNL     1       3.479   1.898  -1.083  0.00  0.00    +0.229 C 
BRANCH  17  19
ATOM     18  C   UNL     1       5.901   1.849  -1.693  0.00  0.00    +0.007 C 
ATOM     19  C   UNL     1       4.598   1.047  -1.687  0.00  0.00    +0.038 C 
ENDBRANCH  17  19
ENDBRANCH  16  17
ENDBRANCH  10  16
ENDBRANCH   1  14
BRANCH   3  20
ATOM     20  C   UNL     1      -1.904  -1.284   3.077  0.00  0.00    +0.436 C 
ATOM     21  F   UNL     1      -0.831  -2.116   3.412  0.00  0.00    -0.166 F 
ATOM     22  F   UNL     1      -2.052  -0.296   4.057  0.00  0.00    -0.166 F 
ATOM     23  F   UNL     1      -3.076  -2.043   2.998  0.00  0.00    -0.166 F 
ENDBRANCH   3  20
BRANCH   3  24
ATOM     24  O   UNL     1      -0.349   0.005   1.746  0.00  0.00    -0.364 OA
ATOM     25  H   UNL     1       0.383  -0.603   1.914  0.00  0.00    +0.212 HD
ENDBRANCH   3  24
BRANCH   2  26
ATOM     26  C   UNL     1      -4.074  -0.211   1.520  0.00  0.00    +0.173 C 
ATOM     27  O   UNL     1      -4.328  -1.180   0.837  0.00  0.00    -0.292 OA
BRANCH  26  28
ATOM     28  C   UNL     1      -5.096   0.340   2.424  0.00  0.00    +0.018 A 
ATOM     29  C   UNL     1      -4.771   1.380   3.301  0.00  0.00    +0.011 A 
ATOM     30  C   UNL     1      -5.735   1.895   4.141  0.00  0.00    +0.004 A 
ATOM     31  C   UNL     1      -7.019   1.376   4.128  0.00  0.00    -0.050 A 
ATOM     32  C   UNL     1      -7.346   0.343   3.267  0.00  0.00    +0.004 A 
ATOM     33  C   UNL     1      -6.395  -0.178   2.416  0.00  0.00    +0.011 A 
ATOM     34  C   UNL     1      -8.065   1.940   5.054  0.00  0.00    +0.044 C 
ENDBRANCH  26  28
ENDBRANCH   2  26
TORSDOF 8
