REMARK  Name = ZINC57481685
REMARK  10 active torsions:
REMARK  status: ('A' for Active; 'I' for Inactive)
REMARK    1  A    between atoms: C_1  and  C_2
REMARK    2  A    between atoms: C_4  and  C_31
REMARK    3  A    between atoms: C_8  and  N_30
REMARK    4  A    between atoms: C_9  and  C_11
REMARK    5  A    between atoms: C_11  and  O_13
REMARK    6  A    between atoms: O_13  and  C_14
REMARK    7  A    between atoms: C_14  and  C_16
REMARK    8  A    between atoms: C_14  and  C_17
REMARK    9  A    between atoms: N_19  and  C_20
REMARK   10  A    between atoms: C_24  and  N_26
REMARK                            x       y       z     vdW  Elec       q    Type
REMARK                         _______ _______ _______ _____ _____    ______ ____
ROOT
ATOM      1  O   UNL     1       1.731  -1.788   4.744  0.00  0.00    -0.448 OA
ENDROOT
BRANCH   1   2
ATOM      2  C   UNL     1       1.087  -0.734   4.199  0.00  0.00    +0.348 C 
ATOM      3  O   UNL     1       1.137   0.355   4.739  0.00  0.00    -0.244 OA
BRANCH   2  12
ATOM      4  C   UNL     1      -2.054   1.892   0.477  0.00  0.00    +0.044 C 
ATOM      5  C   UNL     1      -1.830   0.428   0.203  0.00  0.00    -0.037 A 
ATOM      6  C   UNL     1      -2.382  -0.167  -0.908  0.00  0.00    +0.027 A 
ATOM      7  C   UNL     1      -2.174  -1.515  -1.158  0.00  0.00    +0.040 A 
ATOM      8  N   UNL     1      -1.445  -2.243  -0.335  0.00  0.00    -0.245 NA
ATOM      9  C   UNL     1      -0.896  -1.720   0.741  0.00  0.00    +0.111 A 
ATOM     10  C   UNL     1      -1.043  -0.356   1.082  0.00  0.00    +0.032 A 
ATOM     11  C   UNL     1      -0.363   0.052   2.301  0.00  0.00    +0.056 A 
ATOM     12  C   UNL     1       0.352  -0.897   3.000  0.00  0.00    +0.119 A 
ATOM     13  S   UNL     1       0.120  -2.379   2.039  0.00  0.00    -0.060 S 
ATOM     14  C   UNL     1      -2.785  -2.152  -2.379  0.00  0.00    +0.065 C 
BRANCH  11  15
ATOM     15  N   UNL     1      -0.432   1.363   2.749  0.00  0.00    -0.356 N 
ATOM     16  H   UNL     1      -0.667   2.074   2.133  0.00  0.00    +0.142 HD
ATOM     17  H   UNL     1      -0.247   1.569   3.679  0.00  0.00    +0.142 HD
ENDBRANCH  11  15
ENDBRANCH   2  12
ENDBRANCH   1   2
BRANCH   1  18
ATOM     18  C   UNL     1       2.452  -1.552   5.954  0.00  0.00    +0.259 C 
ATOM     19  C   UNL     1       3.889  -1.143   5.620  0.00  0.00    +0.062 C 
BRANCH  18  20
ATOM     20  C   UNL     1       2.468  -2.811   6.783  0.00  0.00    +0.258 C 
ATOM     21  O   UNL     1       1.995  -3.835   6.339  0.00  0.00    -0.271 OA
ATOM     22  N   UNL     1       3.007  -2.797   8.018  0.00  0.00    -0.282 N 
ATOM     23  H   UNL     1       3.383  -1.977   8.375  0.00  0.00    +0.155 HD
BRANCH  22  24
ATOM     24  C   UNL     1       3.026  -3.968   8.787  0.00  0.00    +0.036 A 
ATOM     25  C   UNL     1       2.978  -3.891  10.172  0.00  0.00    +0.026 A 
ATOM     26  C   UNL     1       2.997  -5.046  10.928  0.00  0.00    +0.042 A 
ATOM     27  C   UNL     1       3.063  -6.281  10.306  0.00  0.00    +0.154 A 
ATOM     28  C   UNL     1       3.111  -6.360   8.924  0.00  0.00    +0.163 A 
ATOM     29  C   UNL     1       3.086  -5.207   8.164  0.00  0.00    +0.059 A 
ATOM     30  F   UNL     1       3.082  -7.410  11.047  0.00  0.00    -0.203 F 
BRANCH  28  31
ATOM     31  N   UNL     1       3.182  -7.682   8.261  0.00  0.00    +0.059 N 
ATOM     32  O   UNL     1       3.224  -7.752   7.055  0.00  0.00    -0.126 OA
ATOM     33  O   UNL     1       3.199  -8.692   8.926  0.00  0.00    -0.126 OA
ENDBRANCH  28  31
ENDBRANCH  22  24
ENDBRANCH  18  20
ENDBRANCH   1  18
TORSDOF 7
