REMARK  Name = ZINC21222826
REMARK  11 active torsions:
REMARK  status: ('A' for Active; 'I' for Inactive)
REMARK    1  A    between atoms: C_1  and  C_2
REMARK    2  A    between atoms: C_2  and  C_3
REMARK    3  A    between atoms: C_3  and  O_4
REMARK    4  A    between atoms: O_4  and  C_5
REMARK    5  A    between atoms: C_8  and  C_13
REMARK    6  A    between atoms: C_10  and  O_11
REMARK    7  A    between atoms: O_11  and  C_12
REMARK    8  A    between atoms: C_18  and  C_23
REMARK    9  A    between atoms: C_26  and  N_29
REMARK   10  A    between atoms: N_29  and  C_30
REMARK   11  A    between atoms: N_29  and  C_31
REMARK                            x       y       z     vdW  Elec       q    Type
REMARK                         _______ _______ _______ _____ _____    ______ ____
ROOT
ATOM      1  C   UNL     1       1.855  -2.737   1.171  0.00  0.00    +0.136 C 
ATOM      2  C   UNL     1       3.336  -2.600   1.436  0.00  0.00    +0.036 C 
ATOM      3  C   UNL     1       4.154  -1.691   0.883  0.00  0.00    +0.017 C 
ATOM      4  C   UNL     1       5.626  -1.648   1.263  0.00  0.00    +0.059 C 
ATOM      5  C   UNL     1       6.124  -3.058   1.576  0.00  0.00    +0.032 C 
ATOM      6  C   UNL     1       5.288  -3.600   2.743  0.00  0.00    +0.088 C 
ATOM      7  C   UNL     1       3.841  -3.548   2.357  0.00  0.00    +0.163 C 
ATOM      8  O   UNL     1       3.073  -4.349   2.854  0.00  0.00    -0.292 OA
ATOM      9  N   UNL     1       3.779  -0.756  -0.027  0.00  0.00    -0.316 N 
ATOM     10  C   UNL     1       2.655   0.054   0.086  0.00  0.00    +0.052 A 
ATOM     11  C   UNL     1       2.743   1.431   0.187  0.00  0.00    +0.025 A 
ATOM     12  C   UNL     1       1.581   2.185   0.222  0.00  0.00    +0.002 A 
ATOM     13  C   UNL     1       0.346   1.565   0.163  0.00  0.00    +0.002 A 
ATOM     14  C   UNL     1       0.257   0.186   0.088  0.00  0.00    +0.025 A 
ATOM     15  C   UNL     1       1.417  -0.571   0.058  0.00  0.00    +0.049 A 
ATOM     16  N   UNL     1       1.375  -1.964   0.045  0.00  0.00    -0.331 N 
ATOM     17  H   UNL     1       4.382  -0.598  -0.934  0.00  0.00    +0.152 HD
ATOM     18  H   UNL     1       0.969  -2.476  -0.840  0.00  0.00    +0.147 HD
ENDROOT
BRANCH   1  22
ATOM     19  C   UNL     1      -0.260  -1.484   4.671  0.00  0.00    +0.162 A 
ATOM     20  C   UNL     1       0.494  -0.572   3.950  0.00  0.00    +0.050 A 
ATOM     21  C   UNL     1       1.177  -0.980   2.819  0.00  0.00    +0.009 A 
ATOM     22  C   UNL     1       1.109  -2.297   2.405  0.00  0.00    -0.019 A 
ATOM     23  C   UNL     1       0.354  -3.211   3.116  0.00  0.00    +0.055 A 
ATOM     24  C   UNL     1      -0.329  -2.810   4.253  0.00  0.00    +0.162 A 
BRANCH  24  25
ATOM     25  O   UNL     1      -1.068  -3.708   4.957  0.00  0.00    -0.491 OA
ATOM     26  C   UNL     1      -1.092  -5.052   4.471  0.00  0.00    +0.277 C 
ENDBRANCH  24  25
BRANCH  19  27
ATOM     27  O   UNL     1      -0.932  -1.084   5.783  0.00  0.00    -0.488 OA
BRANCH  27  28
ATOM     28  C   UNL     1      -0.817   0.292   6.152  0.00  0.00    +0.229 C 
BRANCH  28  30
ATOM     29  C   UNL     1      -1.511   2.024   7.813  0.00  0.00    +0.007 C 
ATOM     30  C   UNL     1      -1.635   0.551   7.418  0.00  0.00    +0.038 C 
ENDBRANCH  28  30
ENDBRANCH  27  28
ENDBRANCH  19  27
ENDBRANCH   1  22
BRANCH   5  31
ATOM     31  C   UNL     1       7.578  -3.011   1.967  0.00  0.00    -0.043 A 
ATOM     32  C   UNL     1       7.975  -2.265   3.062  0.00  0.00    +0.006 A 
ATOM     33  C   UNL     1       9.306  -2.224   3.426  0.00  0.00    +0.023 A 
ATOM     34  C   UNL     1      10.249  -2.924   2.684  0.00  0.00    +0.029 A 
ATOM     35  C   UNL     1       9.848  -3.668   1.581  0.00  0.00    +0.023 A 
ATOM     36  C   UNL     1       8.514  -3.709   1.226  0.00  0.00    +0.006 A 
BRANCH  34  37
ATOM     37  N   UNL     1      11.598  -2.881   3.046  0.00  0.00    -0.336 N 
ATOM     38  C   UNL     1      12.591  -3.620   2.263  0.00  0.00    +0.129 C 
ATOM     39  C   UNL     1      12.019  -2.096   4.209  0.00  0.00    +0.129 C 
ENDBRANCH  34  37
ENDBRANCH   5  31
TORSDOF 7
