REMARK  Name = ZINC63696045
REMARK  8 active torsions:
REMARK  status: ('A' for Active; 'I' for Inactive)
REMARK    1  A    between atoms: C_1  and  C_2
REMARK    2  A    between atoms: C_6  and  N_9
REMARK    3  A    between atoms: C_7  and  C_8
REMARK    4  A    between atoms: N_12  and  C_15
REMARK    5  A    between atoms: C_15  and  C_16
REMARK    6  A    between atoms: C_16  and  N_17
REMARK    7  A    between atoms: C_18  and  C_20
REMARK    8  A    between atoms: N_25  and  C_27
REMARK                            x       y       z     vdW  Elec       q    Type
REMARK                         _______ _______ _______ _____ _____    ______ ____
ROOT
ATOM      1  N   UNL     1       1.218  -3.483   8.683  0.00  0.00    -0.314 N 
ATOM      2  C   UNL     1       2.151  -4.048   9.474  0.00  0.00    +0.217 C 
ATOM      3  O   UNL     1       2.992  -4.778   8.992  0.00  0.00    -0.275 OA
ATOM      4  H   UNL     1       0.545  -2.900   9.068  0.00  0.00    +0.149 HD
ENDROOT
BRANCH   2   5
ATOM      5  C   UNL     1       2.150  -3.774  10.955  0.00  0.00    +0.089 C 
ATOM      6  C   UNL     1       2.324  -2.272  11.198  0.00  0.00    +0.015 C 
ATOM      7  C   UNL     1       2.382  -2.010  12.705  0.00  0.00    +0.016 C 
ATOM      8  C   UNL     1       3.531  -2.816  13.315  0.00  0.00    +0.088 C 
ATOM      9  N   UNL     1       3.318  -4.246  13.056  0.00  0.00    -0.265 NA
ATOM     10  C   UNL     1       3.305  -4.530  11.616  0.00  0.00    +0.100 C 
BRANCH   9  11
ATOM     11  C   UNL     1       4.328  -5.061  13.745  0.00  0.00    +0.252 C 
ATOM     12  N   UNL     1       4.273  -4.815  15.191  0.00  0.00    -0.351 N 
ATOM     13  C   UNL     1       5.431  -4.344  15.552  0.00  0.00    +0.061 A 
ATOM     14  C   UNL     1       5.975  -3.916  16.849  0.00  0.00    +0.029 A 
ATOM     15  C   UNL     1       7.241  -3.459  16.921  0.00  0.00    +0.022 A 
ATOM     16  C   UNL     1       8.081  -3.371  15.794  0.00  0.00    +0.043 A 
ATOM     17  C   UNL     1       7.680  -3.737  14.558  0.00  0.00    +0.047 A 
ATOM     18  C   UNL     1       6.319  -4.251  14.361  0.00  0.00    +0.063 A 
ATOM     19  N   UNL     1       5.674  -4.670  13.308  0.00  0.00    -0.351 N 
ATOM     20 CL   UNL     1       9.695  -2.767  16.002  0.00  0.00    -0.083 Cl
ATOM     21  H   UNL     1       3.512  -4.975  15.772  0.00  0.00    +0.163 HD
ATOM     22  H   UNL     1       6.020  -4.716  12.403  0.00  0.00    +0.163 HD
ENDBRANCH   9  11
ENDBRANCH   2   5
BRANCH   1  23
ATOM     23  C   UNL     1       1.219  -3.749   7.242  0.00  0.00    +0.119 C 
BRANCH  23  24
ATOM     24  C   UNL     1       0.065  -2.992   6.583  0.00  0.00    +0.103 C 
BRANCH  24  28
ATOM     25  N   UNL     1       0.051  -2.796   2.390  0.00  0.00    -0.327 N 
ATOM     26  C   UNL     1      -1.203  -3.201   3.044  0.00  0.00    +0.120 C 
ATOM     27  C   UNL     1      -1.157  -2.746   4.507  0.00  0.00    +0.103 C 
ATOM     28  N   UNL     1       0.066  -3.259   5.138  0.00  0.00    -0.298 NA
ATOM     29  C   UNL     1       1.268  -2.704   4.501  0.00  0.00    +0.103 C 
ATOM     30  C   UNL     1       1.322  -3.162   3.035  0.00  0.00    +0.120 C 
BRANCH  25  36
ATOM     31  C   UNL     1      -0.018   1.503   0.010  0.00  0.00    +0.044 C 
ATOM     32  C   UNL     1       0.002  -0.004   0.002  0.00  0.00    -0.046 A 
ATOM     33  C   UNL     1       0.006  -0.688  -1.200  0.00  0.00    +0.004 A 
ATOM     34  C   UNL     1       0.024  -2.071  -1.212  0.00  0.00    +0.002 A 
ATOM     35  C   UNL     1       0.039  -2.773  -0.023  0.00  0.00    +0.023 A 
ATOM     36  C   UNL     1       0.036  -2.089   1.186  0.00  0.00    +0.033 A 
ATOM     37  C   UNL     1       0.023  -0.700   1.194  0.00  0.00    -0.027 A 
ATOM     38  C   UNL     1       0.025   0.046   2.504  0.00  0.00    +0.046 C 
ENDBRANCH  25  36
ENDBRANCH  24  28
ENDBRANCH  23  24
ENDBRANCH   1  23
TORSDOF 6
