REMARK  Name = ZINC06172793
REMARK  10 active torsions:
REMARK  status: ('A' for Active; 'I' for Inactive)
REMARK    1  A    between atoms: C_1  and  O_2
REMARK    2  A    between atoms: O_2  and  C_3
REMARK    3  A    between atoms: C_3  and  C_5
REMARK    4  A    between atoms: C_8  and  N_11
REMARK    5  A    between atoms: C_15  and  N_50
REMARK    6  A    between atoms: C_19  and  C_20
REMARK    7  A    between atoms: C_19  and  N_50
REMARK    8  A    between atoms: C_20  and  C_21
REMARK    9  A    between atoms: C_24  and  S_27
REMARK   10  A    between atoms: S_27  and  N_30
REMARK                            x       y       z     vdW  Elec       q    Type
REMARK                         _______ _______ _______ _____ _____    ______ ____
ROOT
ATOM      1  N   UNL     1       3.581   2.135  -0.021  0.00  0.00    -0.212 N 
ATOM      2  C   UNL     1       4.779   1.543   0.069  0.00  0.00    +0.225 C 
ATOM      3  O   UNL     1       4.967   0.350   0.164  0.00  0.00    -0.275 OA
ATOM      4  C   UNL     1       5.860   2.601   0.027  0.00  0.00    +0.090 C 
ATOM      5  C   UNL     1       5.071   3.921  -0.092  0.00  0.00    +0.026 C 
ATOM      6  C   UNL     1       3.626   3.469  -0.112  0.00  0.00    +0.213 C 
ATOM      7  O   UNL     1       2.663   4.201  -0.197  0.00  0.00    -0.277 OA
ENDROOT
BRANCH   1  11
ATOM      8  C   UNL     1       0.002  -0.004   0.002  0.00  0.00    +0.059 A 
ATOM      9  C   UNL     1       0.325   0.832   1.074  0.00  0.00    +0.017 A 
ATOM     10  C   UNL     1       1.508   1.537   1.063  0.00  0.00    +0.025 A 
ATOM     11  C   UNL     1       2.381   1.417  -0.013  0.00  0.00    +0.044 A 
ATOM     12  C   UNL     1       2.063   0.586  -1.082  0.00  0.00    +0.025 A 
ATOM     13  C   UNL     1       0.882  -0.121  -1.078  0.00  0.00    +0.017 A 
BRANCH   8  14
ATOM     14  C   UNL     1      -1.264  -0.761   0.010  0.00  0.00    +0.339 C 
ATOM     15  O   UNL     1      -2.027  -0.658   0.950  0.00  0.00    -0.245 OA
BRANCH  14  17
ATOM     16  C   UNL     1      -2.836  -2.281  -0.949  0.00  0.00    +0.280 C 
ATOM     17  O   UNL     1      -1.574  -1.567  -1.024  0.00  0.00    -0.464 OA
ENDBRANCH  14  17
ENDBRANCH   8  14
ENDBRANCH   1  11
BRANCH   5  18
ATOM     18  N   UNL     1       5.331   4.780   1.078  0.00  0.00    +0.387 N 
ATOM     19  H   UNL     1       6.322   4.712   1.334  0.00  0.00    -0.085 HD
ATOM     20  H   UNL     1       4.751   4.465   1.865  0.00  0.00    -0.085 HD
BRANCH  18  21
ATOM     21  C   UNL     1       5.004   6.184   0.764  0.00  0.00    -0.077 C 
BRANCH  21  22
ATOM     22  C   UNL     1       5.284   7.050   1.994  0.00  0.00    +0.016 C 
BRANCH  22  23
ATOM     23  C   UNL     1       4.953   8.487   1.683  0.00  0.00    -0.049 A 
ATOM     24  C   UNL     1       5.925   9.324   1.166  0.00  0.00    +0.005 A 
ATOM     25  C   UNL     1       5.620  10.640   0.876  0.00  0.00    +0.029 A 
ATOM     26  C   UNL     1       4.346  11.123   1.111  0.00  0.00    +0.105 A 
ATOM     27  C   UNL     1       3.376  10.288   1.633  0.00  0.00    +0.029 A 
ATOM     28  C   UNL     1       3.679   8.970   1.919  0.00  0.00    +0.005 A 
BRANCH  26  29
ATOM     29  S   UNL     1       3.959  12.803   0.746  0.00  0.00    +0.056 S 
ATOM     30  O   UNL     1       4.888  13.228  -0.242  0.00  0.00    -0.153 OA
ATOM     31  O   UNL     1       2.553  12.861   0.544  0.00  0.00    -0.153 OA
BRANCH  29  32
ATOM     32  N   UNL     1       4.279  13.687   2.109  0.00  0.00    -0.204 NA
ATOM     33  H   UNL     1       4.556  14.613   2.032  0.00  0.00    +0.144 HD
ATOM     34  H   UNL     1       4.190  13.278   2.984  0.00  0.00    +0.144 HD
ENDBRANCH  29  32
ENDBRANCH  26  29
ENDBRANCH  22  23
ENDBRANCH  21  22
ENDBRANCH  18  21
ENDBRANCH   5  18
TORSDOF 9
