REMARK  Name = ZINC10013561
REMARK  11 active torsions:
REMARK  status: ('A' for Active; 'I' for Inactive)
REMARK    1  A    between atoms: C_1  and  C_2
REMARK    2  A    between atoms: C_2  and  N_3
REMARK    3  A    between atoms: N_3  and  C_4
REMARK    4  A    between atoms: N_3  and  C_6
REMARK    5  A    between atoms: C_4  and  C_5
REMARK    6  A    between atoms: C_9  and  C_12
REMARK    7  A    between atoms: C_17  and  C_21
REMARK    8  A    between atoms: C_17  and  C_22
REMARK    9  A    between atoms: C_24  and  C_37
REMARK   10  A    between atoms: C_25  and  C_26
REMARK   11  A    between atoms: N_28  and  C_29
REMARK                            x       y       z     vdW  Elec       q    Type
REMARK                         _______ _______ _______ _____ _____    ______ ____
ROOT
ATOM      1  C   UNL     1      -3.967  -1.518   4.928  0.00  0.00    +0.090 C 
ATOM      2  C   UNL     1      -4.032  -0.233   5.714  0.00  0.00    +0.024 C 
ATOM      3  C   UNL     1      -3.184  -0.009   6.740  0.00  0.00    +0.016 C 
ATOM      4  C   UNL     1      -3.235   1.279   7.523  0.00  0.00    +0.058 C 
ATOM      5  C   UNL     1      -4.669   1.813   7.543  0.00  0.00    -0.023 C 
ATOM      6  C   UNL     1      -5.130   2.020   6.097  0.00  0.00    +0.086 C 
ATOM      7  C   UNL     1      -4.998   0.721   5.350  0.00  0.00    +0.162 C 
ATOM      8  O   UNL     1      -5.739   0.492   4.415  0.00  0.00    -0.292 OA
ATOM      9  C   UNL     1      -5.584   0.801   8.235  0.00  0.00    +0.011 C 
ATOM     10  C   UNL     1      -4.712   3.144   8.296  0.00  0.00    +0.011 C 
ATOM     11  N   UNL     1      -2.259  -0.954   7.095  0.00  0.00    -0.321 N 
ATOM     12  C   UNL     1      -2.410  -2.257   6.710  0.00  0.00    +0.014 C 
ATOM     13  C   UNL     1      -3.217  -2.575   5.684  0.00  0.00    +0.043 C 
ATOM     14  C   UNL     1      -1.665  -3.345   7.440  0.00  0.00    +0.061 C 
ATOM     15  H   UNL     1      -1.383  -0.667   7.697  0.00  0.00    +0.152 HD
ENDROOT
BRANCH   1  19
ATOM     16  C   UNL     1      -1.996  -0.790   1.206  0.00  0.00    +0.030 A 
ATOM     17  C   UNL     1      -1.330  -0.559   2.404  0.00  0.00    +0.023 A 
ATOM     18  C   UNL     1      -1.972  -0.791   3.604  0.00  0.00    +0.006 A 
ATOM     19  C   UNL     1      -3.272  -1.261   3.616  0.00  0.00    -0.035 A 
ATOM     20  C   UNL     1      -3.936  -1.497   2.426  0.00  0.00    +0.006 A 
ATOM     21  C   UNL     1      -3.302  -1.262   1.221  0.00  0.00    +0.023 A 
BRANCH  16  22
ATOM     22  N   UNL     1      -1.351  -0.552  -0.010  0.00  0.00    -0.330 N 
BRANCH  22  24
ATOM     23  C   UNL     1       0.015   1.476  -0.024  0.00  0.00    +0.024 C 
ATOM     24  C   UNL     1       0.026  -0.054  -0.024  0.00  0.00    +0.102 C 
ENDBRANCH  22  24
BRANCH  22  25
ATOM     25  C   UNL     1      -2.053  -0.802  -1.272  0.00  0.00    +0.102 C 
ATOM     26  C   UNL     1      -1.806  -2.245  -1.716  0.00  0.00    +0.024 C 
ENDBRANCH  22  25
ENDBRANCH  16  22
ENDBRANCH   1  19
BRANCH  13  27
ATOM     27  C   UNL     1      -3.362  -3.933   5.309  0.00  0.00    +0.247 C 
ATOM     28  O   UNL     1      -2.758  -4.800   5.915  0.00  0.00    -0.270 OA
ATOM     29  N   UNL     1      -4.168  -4.266   4.282  0.00  0.00    -0.279 N 
ATOM     30  H   UNL     1      -4.783  -3.496   3.793  0.00  0.00    +0.155 HD
BRANCH  29  31
ATOM     31  C   UNL     1      -4.223  -5.593   3.836  0.00  0.00    +0.069 A 
ATOM     32  C   UNL     1      -3.147  -6.443   4.050  0.00  0.00    +0.029 A 
ATOM     33  C   UNL     1      -3.204  -7.753   3.614  0.00  0.00    +0.040 A 
ATOM     34  C   UNL     1      -4.330  -8.216   2.954  0.00  0.00    +0.126 A 
ATOM     35  C   UNL     1      -5.404  -7.370   2.735  0.00  0.00    +0.078 A 
ATOM     36  C   UNL     1      -5.353  -6.059   3.174  0.00  0.00    +0.147 A 
ATOM     37  F   UNL     1      -6.400  -5.233   2.959  0.00  0.00    -0.203 F 
ATOM     38  F   UNL     1      -4.381  -9.495   2.524  0.00  0.00    -0.205 F 
ENDBRANCH  29  31
ENDBRANCH  13  27
TORSDOF 6
