REMARK  Name = ZINC39850113
REMARK  8 active torsions:
REMARK  status: ('A' for Active; 'I' for Inactive)
REMARK    1  A    between atoms: C_1  and  C_2
REMARK    2  A    between atoms: C_2  and  O_3
REMARK    3  A    between atoms: O_3  and  C_4
REMARK    4  A    between atoms: C_7  and  C_11
REMARK    5  A    between atoms: C_11  and  C_13
REMARK    6  A    between atoms: C_14  and  N_22
REMARK    7  A    between atoms: C_23  and  C_25
REMARK    8  A    between atoms: C_28  and  N_31
REMARK                            x       y       z     vdW  Elec       q    Type
REMARK                         _______ _______ _______ _____ _____    ______ ____
ROOT
ATOM      1  C   UNL     1       2.192  -6.570   2.661  0.00  0.00    +0.197 A 
ATOM      2  C   UNL     1       2.187  -7.907   3.007  0.00  0.00    +0.091 A 
ATOM      3  C   UNL     1       2.730  -7.967   4.369  0.00  0.00    +0.042 A 
ATOM      4  C   UNL     1       2.980  -9.005   5.268  0.00  0.00    +0.013 A 
ATOM      5  C   UNL     1       3.506  -8.725   6.498  0.00  0.00    +0.001 A 
ATOM      6  C   UNL     1       3.792  -7.415   6.858  0.00  0.00    +0.004 A 
ATOM      7  C   UNL     1       3.552  -6.377   5.984  0.00  0.00    +0.047 A 
ATOM      8  C   UNL     1       3.017  -6.638   4.727  0.00  0.00    +0.138 A 
ATOM      9  O   UNL     1       2.690  -5.845   3.687  0.00  0.00    -0.450 OA
ENDROOT
BRANCH   2  10
ATOM     10  N   UNL     1       1.758  -8.973   2.228  0.00  0.00    -0.278 N 
ATOM     11  C   UNL     1       2.266 -10.204   2.433  0.00  0.00    +0.248 C 
ATOM     12  O   UNL     1       3.148 -10.369   3.253  0.00  0.00    -0.270 OA
ATOM     13  H   UNL     1       1.093  -8.831   1.537  0.00  0.00    +0.155 HD
BRANCH  11  14
ATOM     14  C   UNL     1       1.750 -11.354   1.661  0.00  0.00    +0.037 A 
ATOM     15  C   UNL     1       0.741 -11.167   0.715  0.00  0.00    +0.015 A 
ATOM     16  C   UNL     1       0.264 -12.244  -0.003  0.00  0.00    +0.033 A 
ATOM     17  C   UNL     1       0.783 -13.508   0.213  0.00  0.00    +0.126 A 
ATOM     18  C   UNL     1       1.783 -13.700   1.150  0.00  0.00    +0.033 A 
ATOM     19  C   UNL     1       2.273 -12.631   1.870  0.00  0.00    +0.015 A 
BRANCH  17  20
ATOM     20  N   UNL     1       0.267 -14.659  -0.560  0.00  0.00    +0.056 N 
ATOM     21  O   UNL     1      -0.607 -14.494  -1.379  0.00  0.00    -0.126 OA
ATOM     22  O   UNL     1       0.719 -15.765  -0.373  0.00  0.00    -0.126 OA
ENDBRANCH  17  20
ENDBRANCH  11  14
ENDBRANCH   2  10
BRANCH   1  23
ATOM     23  C   UNL     1       1.749  -6.042   1.423  0.00  0.00    +0.230 C 
ATOM     24  O   UNL     1       1.235  -6.775   0.597  0.00  0.00    -0.283 OA
BRANCH  23  28
ATOM     25  C   UNL     1       2.215  -1.902   0.590  0.00  0.00    +0.139 A 
ATOM     26  C   UNL     1       1.750  -2.760  -0.400  0.00  0.00    +0.048 A 
ATOM     27  C   UNL     1       1.598  -4.103  -0.133  0.00  0.00    +0.015 A 
ATOM     28  C   UNL     1       1.911  -4.602   1.134  0.00  0.00    +0.027 A 
ATOM     29  C   UNL     1       2.378  -3.737   2.126  0.00  0.00    +0.035 A 
ATOM     30  C   UNL     1       2.534  -2.395   1.850  0.00  0.00    +0.083 A 
ATOM     31 CL   UNL     1       3.120  -1.320   3.080  0.00  0.00    -0.080 Cl
BRANCH  25  32
ATOM     32  O   UNL     1       2.364  -0.579   0.323  0.00  0.00    -0.491 OA
BRANCH  32  34
ATOM     33  C   UNL     1       2.250   1.369  -1.103  0.00  0.00    +0.048 C 
ATOM     34  C   UNL     1       2.018  -0.139  -0.992  0.00  0.00    +0.226 C 
ENDBRANCH  32  34
ENDBRANCH  25  32
ENDBRANCH  23  28
ENDBRANCH   1  23
TORSDOF 7
