REMARK  Name = ZINC35119856
REMARK  4 active torsions:
REMARK  status: ('A' for Active; 'I' for Inactive)
REMARK    1  A    between atoms: C_9  and  C_11
REMARK    2  A    between atoms: N_13  and  C_14
REMARK    3  A    between atoms: C_14  and  C_15
REMARK    4  A    between atoms: C_15  and  O_16
REMARK                            x       y       z     vdW  Elec       q    Type
REMARK                         _______ _______ _______ _____ _____    ______ ____
ROOT
ATOM      1  C   UNL     1       2.888  -1.160  -1.683  0.00  0.00    +0.216 C 
ATOM      2  O   UNL     1       3.643  -1.542  -0.813  0.00  0.00    -0.276 OA
ATOM      3  N   UNL     1       2.835  -1.811  -2.862  0.00  0.00    -0.313 N 
ATOM      4  H   UNL     1       2.232  -1.506  -3.558  0.00  0.00    +0.149 HD
ENDROOT
BRANCH   1  11
ATOM      5  C   UNL     1      -0.019   1.555   0.011  0.00  0.00    +0.004 C 
ATOM      6  C   UNL     1       1.471   1.966  -0.001  0.00  0.00    +0.004 C 
ATOM      7  C   UNL     1       2.252   0.617  -0.016  0.00  0.00    +0.001 C 
ATOM      8  C   UNL     1       1.296  -0.281   0.846  0.00  0.00    +0.008 C 
ATOM      9  C   UNL     1       0.002  -0.004   0.002  0.00  0.00    -0.010 C 
ATOM     10  C   UNL     1       0.503  -0.380  -1.426  0.00  0.00    +0.016 C 
ATOM     11  C   UNL     1       2.011   0.041  -1.445  0.00  0.00    +0.078 C 
ENDBRANCH   1  11
BRANCH   3  12
ATOM     12  C   UNL     1       3.688  -2.979  -3.093  0.00  0.00    +0.132 C 
BRANCH  12  13
ATOM     13  C   UNL     1       3.435  -3.526  -4.500  0.00  0.00    +0.174 C 
BRANCH  13  14
ATOM     14  O   UNL     1       3.846  -2.559  -5.468  0.00  0.00    -0.393 OA
ATOM     15  H   UNL     1       3.714  -2.839  -6.384  0.00  0.00    +0.209 HD
ENDBRANCH  13  14
ENDBRANCH  12  13
ENDBRANCH   3  12
TORSDOF 4
