REMARK  Name = ZINC13692508
REMARK  7 active torsions:
REMARK  status: ('A' for Active; 'I' for Inactive)
REMARK    1  A    between atoms: C_1  and  C_2
REMARK    2  A    between atoms: C_11  and  C_12
REMARK    3  A    between atoms: C_20  and  C_22
REMARK    4  A    between atoms: C_22  and  C_23
REMARK    5  A    between atoms: C_23  and  C_24
REMARK    6  A    between atoms: C_24  and  C_25
REMARK    7  A    between atoms: C_24  and  C_26
REMARK                            x       y       z     vdW  Elec       q    Type
REMARK                         _______ _______ _______ _____ _____    ______ ____
ROOT
ATOM      1  C   UNL     1       2.521   3.882  -0.001  0.00  0.00    +0.046 C 
ATOM      2  C   UNL     1       1.208   3.141   0.007  0.00  0.00    -0.024 A 
ATOM      3  C   UNL     1       1.190   1.779   0.000  0.00  0.00    +0.005 A 
ATOM      4  C   UNL     1      -0.013   1.076   0.008  0.00  0.00    +0.001 A 
ATOM      5  C   UNL     1      -1.208   1.731   0.017  0.00  0.00    +0.012 A 
ATOM      6  C   UNL     1      -1.226   3.133   0.030  0.00  0.00    +0.022 A 
ATOM      7  C   UNL     1      -0.001   3.850   0.022  0.00  0.00    +0.079 A 
ATOM      8  N   UNL     1      -0.039   5.188   0.029  0.00  0.00    -0.214 NA
ATOM      9  C   UNL     1      -1.196   5.819   0.044  0.00  0.00    +0.222 A 
ATOM     10  N   UNL     1      -2.364   5.179   0.051  0.00  0.00    -0.219 NA
ATOM     11  C   UNL     1      -2.429   3.864   0.045  0.00  0.00    +0.051 A 
ATOM     12  C   UNL     1      -3.760   3.158   0.054  0.00  0.00    +0.066 C 
ATOM     13  N   UNL     1      -1.198   7.206   0.052  0.00  0.00    -0.254 N 
ATOM     14  C   UNL     1      -2.387   7.891   0.067  0.00  0.00    +0.202 A 
ATOM     15  N   UNL     1      -2.375   9.251   0.080  0.00  0.00    -0.295 N 
ATOM     16  H   UNL     1      -1.532   9.730   0.078  0.00  0.00    +0.172 HD
ATOM     17  C   UNL     1      -3.541   9.932   0.090  0.00  0.00    +0.253 A 
ATOM     18  O   UNL     1      -3.549  11.152   0.098  0.00  0.00    -0.268 OA
ATOM     19  C   UNL     1      -4.747   9.207   0.098  0.00  0.00    +0.093 A 
ATOM     20  C   UNL     1      -4.696   7.844   0.088  0.00  0.00    +0.050 A 
ATOM     21  N   UNL     1      -3.521   7.219   0.073  0.00  0.00    -0.221 NA
ATOM     22  H   UNL     1      -0.358   7.692   0.046  0.00  0.00    +0.158 HD
ENDROOT
BRANCH  20  23
ATOM     23  C   UNL     1      -5.973   7.044   0.096  0.00  0.00    +0.056 C 
BRANCH  23  24
ATOM     24  C   UNL     1      -6.353   6.675  -1.340  0.00  0.00    +0.009 C 
BRANCH  24  25
ATOM     25  C   UNL     1      -7.649   5.863  -1.332  0.00  0.00    -0.017 C 
ATOM     26  C   UNL     1      -8.095   5.601  -2.772  0.00  0.00    +0.007 C 
ATOM     27  C   UNL     1      -7.411   4.529  -0.621  0.00  0.00    +0.007 C 
ENDBRANCH  24  25
ENDBRANCH  23  24
ENDBRANCH  20  23
TORSDOF 3
