REMARK  Name = ZINC08614094
REMARK  8 active torsions:
REMARK  status: ('A' for Active; 'I' for Inactive)
REMARK    1  A    between atoms: C_1  and  C_2
REMARK    2  A    between atoms: C_2  and  O_3
REMARK    3  A    between atoms: O_3  and  C_4
REMARK    4  A    between atoms: C_6  and  C_11
REMARK    5  A    between atoms: C_9  and  O_10
REMARK    6  A    between atoms: C_23  and  S_25
REMARK    7  A    between atoms: S_25  and  C_26
REMARK    8  A    between atoms: C_26  and  C_27
REMARK                            x       y       z     vdW  Elec       q    Type
REMARK                         _______ _______ _______ _____ _____    ______ ____
ROOT
ATOM      1  C   UNL     1      -0.229  -4.969   0.477  0.00  0.00    +0.066 C 
ATOM      2  C   UNL     1      -1.285  -5.861  -0.177  0.00  0.00    +0.109 C 
ATOM      3  C   UNL     1      -0.616  -6.876  -1.064  0.00  0.00    +0.219 C 
ATOM      4  O   UNL     1      -1.159  -7.224  -2.091  0.00  0.00    -0.275 OA
ATOM      5  N   UNL     1       0.577  -7.403  -0.733  0.00  0.00    -0.270 N 
ATOM      6  C   UNL     1       1.225  -7.008   0.426  0.00  0.00    +0.137 A 
ATOM      7  C   UNL     1       0.866  -5.826   1.051  0.00  0.00    +0.065 A 
ATOM      8  C   UNL     1       1.533  -5.444   2.219  0.00  0.00    +0.258 A 
ATOM      9  O   UNL     1       1.239  -4.408   2.793  0.00  0.00    -0.267 OA
ATOM     10  N   UNL     1       2.509  -6.244   2.698  0.00  0.00    -0.302 N 
ATOM     11  H   UNL     1       2.985  -5.998   3.506  0.00  0.00    +0.171 HD
ATOM     12  C   UNL     1       2.826  -7.398   2.047  0.00  0.00    +0.171 A 
ATOM     13  N   UNL     1       2.200  -7.761   0.946  0.00  0.00    -0.208 NA
ATOM     14  H   UNL     1       0.986  -8.066  -1.310  0.00  0.00    +0.156 HD
ENDROOT
BRANCH   1  17
ATOM     15  C   UNL     1       0.777  -1.811  -1.336  0.00  0.00    +0.162 A 
ATOM     16  C   UNL     1       0.243  -2.669  -0.388  0.00  0.00    +0.053 A 
ATOM     17  C   UNL     1       0.352  -4.037  -0.555  0.00  0.00    -0.036 A 
ATOM     18  C   UNL     1       0.992  -4.552  -1.667  0.00  0.00    +0.008 A 
ATOM     19  C   UNL     1       1.526  -3.702  -2.616  0.00  0.00    +0.049 A 
ATOM     20  C   UNL     1       1.416  -2.330  -2.458  0.00  0.00    +0.158 A 
BRANCH  20  21
ATOM     21  O   UNL     1       1.936  -1.492  -3.394  0.00  0.00    -0.503 OA
ATOM     22  H   UNL     1       2.856  -1.241  -3.231  0.00  0.00    +0.292 HD
ENDBRANCH  20  21
BRANCH  15  23
ATOM     23  O   UNL     1       0.671  -0.465  -1.174  0.00  0.00    -0.489 OA
BRANCH  23  25
ATOM     24  C   UNL     1      -0.019   1.526   0.010  0.00  0.00    +0.048 C 
ATOM     25  C   UNL     1       0.002  -0.004   0.002  0.00  0.00    +0.226 C 
ENDBRANCH  23  25
ENDBRANCH  15  23
ENDBRANCH   1  17
BRANCH  12  26
ATOM     26  S   UNL     1       4.104  -8.427   2.691  0.00  0.00    -0.083 S 
BRANCH  26  27
ATOM     27  C   UNL     1       4.177  -9.816   1.526  0.00  0.00    +0.112 C 
BRANCH  27  28
ATOM     28  C   UNL     1       5.244 -10.785   1.966  0.00  0.00    -0.037 A 
ATOM     29  C   UNL     1       6.543 -10.633   1.516  0.00  0.00    +0.004 A 
ATOM     30  C   UNL     1       7.522 -11.522   1.920  0.00  0.00    +0.000 A 
ATOM     31  C   UNL     1       7.203 -12.561   2.774  0.00  0.00    +0.000 A 
ATOM     32  C   UNL     1       5.905 -12.712   3.224  0.00  0.00    +0.000 A 
ATOM     33  C   UNL     1       4.926 -11.821   2.824  0.00  0.00    +0.004 A 
ENDBRANCH  27  28
ENDBRANCH  26  27
ENDBRANCH  12  26
TORSDOF 7
