REMARK  Name = ZINC24727950
REMARK  8 active torsions:
REMARK  status: ('A' for Active; 'I' for Inactive)
REMARK    1  A    between atoms: C_1  and  C_2
REMARK    2  A    between atoms: C_2  and  C_3
REMARK    3  A    between atoms: C_2  and  C_4
REMARK    4  A    between atoms: C_2  and  N_5
REMARK    5  A    between atoms: N_5  and  S_6
REMARK    6  A    between atoms: S_6  and  C_9
REMARK    7  A    between atoms: C_11  and  C_16
REMARK    8  A    between atoms: N_18  and  C_19
REMARK                            x       y       z     vdW  Elec       q    Type
REMARK                         _______ _______ _______ _____ _____    ______ ____
ROOT
ATOM      1  C   UNL     1      -3.511  -3.402   0.174  0.00  0.00    +0.124 A 
ATOM      2  C   UNL     1      -2.470  -2.564  -0.166  0.00  0.00    +0.043 A 
ATOM      3  C   UNL     1      -2.692  -1.191  -0.281  0.00  0.00    +0.039 A 
ATOM      4  C   UNL     1      -3.968  -0.673  -0.045  0.00  0.00    +0.014 A 
ATOM      5  C   UNL     1      -5.002  -1.522   0.287  0.00  0.00    +0.023 A 
ATOM      6  C   UNL     1      -4.776  -2.884   0.401  0.00  0.00    +0.067 A 
ATOM      7 CL   UNL     1      -6.081  -3.945   0.828  0.00  0.00    -0.082 Cl
ENDROOT
BRANCH   3   8
ATOM      8  C   UNL     1      -1.581  -0.287  -0.644  0.00  0.00    +0.248 C 
ATOM      9  O   UNL     1      -0.470  -0.740  -0.844  0.00  0.00    -0.270 OA
ATOM     10  N   UNL     1      -1.798   1.038  -0.755  0.00  0.00    -0.281 N 
ATOM     11  H   UNL     1      -2.817   1.439  -0.649  0.00  0.00    +0.155 HD
BRANCH  10  12
ATOM     12  C   UNL     1      -0.727   1.904  -1.003  0.00  0.00    +0.035 A 
ATOM     13  C   UNL     1      -0.709   3.169  -0.429  0.00  0.00    +0.026 A 
ATOM     14  C   UNL     1       0.351   4.021  -0.671  0.00  0.00    +0.041 A 
ATOM     15  C   UNL     1       1.390   3.620  -1.494  0.00  0.00    +0.142 A 
ATOM     16  C   UNL     1       1.371   2.361  -2.072  0.00  0.00    +0.078 A 
ATOM     17  C   UNL     1       0.315   1.503  -1.828  0.00  0.00    +0.046 A 
ATOM     18 CL   UNL     1       2.675   1.860  -3.103  0.00  0.00    -0.081 Cl
ATOM     19  F   UNL     1       2.423   4.457  -1.733  0.00  0.00    -0.204 F 
ENDBRANCH  10  12
ENDBRANCH   3   8
BRANCH   1  20
ATOM     20  S   UNL     1      -3.233  -5.136   0.319  0.00  0.00    +0.060 S 
ATOM     21  O   UNL     1      -4.249  -5.775  -0.442  0.00  0.00    -0.153 OA
ATOM     22  O   UNL     1      -1.850  -5.347   0.072  0.00  0.00    -0.153 OA
BRANCH  20  23
ATOM     23  N   UNL     1      -3.500  -5.544   1.901  0.00  0.00    -0.185 NA
ATOM     24  H   UNL     1      -4.240  -6.323   2.139  0.00  0.00    +0.149 HD
BRANCH  23  26
ATOM     25  C   UNL     1      -2.764  -3.516   3.054  0.00  0.00    +0.029 C 
ATOM     26  C   UNL     1      -2.611  -5.035   2.949  0.00  0.00    +0.032 C 
ATOM     27  C   UNL     1      -2.979  -5.678   4.287  0.00  0.00    +0.029 C 
ATOM     28  C   UNL     1      -1.162  -5.378   2.599  0.00  0.00    +0.029 C 
ENDBRANCH  23  26
ENDBRANCH  20  23
ENDBRANCH   1  20
TORSDOF 5
