REMARK  Name = ZINC45026746
REMARK  10 active torsions:
REMARK  status: ('A' for Active; 'I' for Inactive)
REMARK    1  A    between atoms: C_1  and  C_2
REMARK    2  A    between atoms: C_2  and  C_4
REMARK    3  A    between atoms: C_2  and  N_16
REMARK    4  A    between atoms: C_7  and  N_10
REMARK    5  A    between atoms: C_11  and  C_13
REMARK    6  A    between atoms: N_16  and  C_17
REMARK    7  A    between atoms: C_20  and  S_26
REMARK    8  A    between atoms: C_22  and  N_23
REMARK    9  A    between atoms: S_26  and  N_29
REMARK   10  A    between atoms: N_29  and  C_30
REMARK                            x       y       z     vdW  Elec       q    Type
REMARK                         _______ _______ _______ _____ _____    ______ ____
ROOT
ATOM      1  N   UNL     1       0.413  -0.895  -0.429  0.00  0.00    -0.336 N 
ATOM      2  H   UNL     1       1.333  -1.193  -0.347  0.00  0.00    +0.147 HD
ENDROOT
BRANCH   1   3
ATOM      3  C   UNL     1      -0.266  -1.052  -1.640  0.00  0.00    +0.058 A 
ATOM      4  C   UNL     1      -1.550  -0.541  -1.789  0.00  0.00    +0.027 A 
ATOM      5  C   UNL     1      -2.218  -0.697  -2.987  0.00  0.00    +0.030 A 
ATOM      6  C   UNL     1      -1.611  -1.360  -4.038  0.00  0.00    +0.108 A 
ATOM      7  C   UNL     1      -0.334  -1.869  -3.893  0.00  0.00    +0.063 A 
ATOM      8  C   UNL     1       0.343  -1.712  -2.699  0.00  0.00    +0.149 A 
BRANCH   8   9
ATOM      9  N   UNL     1       1.712  -2.253  -2.547  0.00  0.00    +0.058 N 
ATOM     10  O   UNL     1       2.539  -1.635  -1.918  0.00  0.00    -0.126 OA
ATOM     11  O   UNL     1       2.003  -3.312  -3.051  0.00  0.00    -0.126 OA
ENDBRANCH   8   9
BRANCH   6  12
ATOM     12  S   UNL     1      -2.467  -1.556  -5.565  0.00  0.00    +0.058 S 
ATOM     13  O   UNL     1      -1.896  -2.687  -6.209  0.00  0.00    -0.153 OA
ATOM     14  O   UNL     1      -3.854  -1.469  -5.267  0.00  0.00    -0.153 OA
BRANCH  12  15
ATOM     15  N   UNL     1      -2.102  -0.242  -6.504  0.00  0.00    -0.193 NA
ATOM     16  C   UNL     1      -0.726  -0.029  -6.962  0.00  0.00    +0.127 C 
ATOM     17  H   UNL     1      -2.798   0.387  -6.751  0.00  0.00    +0.148 HD
ENDBRANCH  12  15
ENDBRANCH   6  12
ENDBRANCH   1   3
BRANCH   1  19
ATOM     18  C   UNL     1      -0.146   1.240   0.623  0.00  0.00    +0.033 C 
ATOM     19  C   UNL     1      -0.263  -0.283   0.717  0.00  0.00    +0.098 C 
BRANCH  19  20
ATOM     20  C   UNL     1       0.380  -0.758   1.994  0.00  0.00    -0.027 A 
ATOM     21  C   UNL     1       1.755  -0.888   2.067  0.00  0.00    +0.007 A 
ATOM     22  C   UNL     1       2.348  -1.324   3.235  0.00  0.00    +0.023 A 
ATOM     23  C   UNL     1       1.562  -1.632   4.338  0.00  0.00    +0.033 A 
ATOM     24  C   UNL     1       0.181  -1.500   4.261  0.00  0.00    +0.023 A 
ATOM     25  C   UNL     1      -0.405  -1.059   3.091  0.00  0.00    +0.007 A 
BRANCH  23  26
ATOM     26  N   UNL     1       2.159  -2.074   5.523  0.00  0.00    -0.285 N 
ATOM     27  C   UNL     1       3.373  -1.609   5.881  0.00  0.00    +0.220 C 
ATOM     28  O   UNL     1       3.905  -0.738   5.226  0.00  0.00    -0.275 OA
ATOM     29  H   UNL     1       1.700  -2.716   6.088  0.00  0.00    +0.155 HD
BRANCH  27  30
ATOM     30  C   UNL     1       4.068  -2.171   7.094  0.00  0.00    +0.075 C 
ATOM     31  C   UNL     1       4.227  -1.252   8.306  0.00  0.00    +0.013 C 
ATOM     32  C   UNL     1       5.443  -1.602   7.447  0.00  0.00    +0.013 C 
ENDBRANCH  27  30
ENDBRANCH  23  26
ENDBRANCH  19  20
ENDBRANCH   1  19
TORSDOF 8
