REMARK  Name = ZINC05544310
REMARK  5 active torsions:
REMARK  status: ('A' for Active; 'I' for Inactive)
REMARK    1  A    between atoms: C_1  and  C_2
REMARK    2  A    between atoms: C_5  and  N_8
REMARK    3  A    between atoms: C_12  and  C_13
REMARK    4  A    between atoms: C_16  and  O_20
REMARK    5  A    between atoms: C_18  and  O_19
REMARK                            x       y       z     vdW  Elec       q    Type
REMARK                         _______ _______ _______ _____ _____    ______ ____
ROOT
ATOM      1  N   UNL     1      -0.228   0.495  -0.884  0.00  0.00    -0.190 N 
ATOM      2  C   UNL     1      -0.218   1.737  -0.359  0.00  0.00    +0.263 C 
ATOM      3  O   UNL     1      -1.256   2.341  -0.165  0.00  0.00    -0.269 OA
ATOM      4  C   UNL     1       1.085   2.346  -0.032  0.00  0.00    +0.100 C 
ATOM      5  C   UNL     1       1.173   3.617   0.509  0.00  0.00    +0.029 C 
ATOM      6  C   UNL     1       2.289   1.540  -0.307  0.00  0.00    +0.257 C 
ATOM      7  O   UNL     1       3.400   1.973  -0.063  0.00  0.00    -0.270 OA
ATOM      8  N   UNL     1       2.126   0.310  -0.836  0.00  0.00    -0.235 N 
ATOM      9  C   UNL     1       0.909  -0.180  -1.108  0.00  0.00    +0.320 C 
ATOM     10  O   UNL     1       0.831  -1.296  -1.584  0.00  0.00    -0.251 OA
ATOM     11  H   UNL     1       2.908  -0.233  -1.023  0.00  0.00    +0.159 HD
ENDROOT
BRANCH   1  16
ATOM     12  C   UNL     1      -5.193  -1.931  -2.177  0.00  0.00    +0.044 C 
ATOM     13  C   UNL     1      -3.874  -1.287  -1.834  0.00  0.00    -0.050 A 
ATOM     14  C   UNL     1      -3.120  -1.776  -0.783  0.00  0.00    +0.005 A 
ATOM     15  C   UNL     1      -1.911  -1.188  -0.466  0.00  0.00    +0.024 A 
ATOM     16  C   UNL     1      -1.454  -0.104  -1.204  0.00  0.00    +0.046 A 
ATOM     17  C   UNL     1      -2.216   0.388  -2.254  0.00  0.00    +0.024 A 
ATOM     18  C   UNL     1      -3.421  -0.208  -2.570  0.00  0.00    +0.005 A 
ENDBRANCH   1  16
BRANCH   5  19
ATOM     19  C   UNL     1       0.003   4.284   0.945  0.00  0.00    +0.018 A 
ATOM     20  C   UNL     1      -0.921   3.623   1.771  0.00  0.00    +0.015 A 
ATOM     21  C   UNL     1      -2.044   4.270   2.194  0.00  0.00    +0.046 A 
ATOM     22  C   UNL     1      -2.290   5.585   1.802  0.00  0.00    +0.120 A 
ATOM     23  C   UNL     1      -1.392   6.253   0.982  0.00  0.00    +0.091 A 
ATOM     24  C   UNL     1      -0.245   5.614   0.548  0.00  0.00    +0.127 A 
BRANCH  24  25
ATOM     25  O   UNL     1       0.636   6.262  -0.253  0.00  0.00    -0.506 OA
ATOM     26  H   UNL     1       0.460   6.157  -1.198  0.00  0.00    +0.292 HD
ENDBRANCH  24  25
BRANCH  22  27
ATOM     27  O   UNL     1      -3.415   6.214   2.225  0.00  0.00    -0.507 OA
ATOM     28  H   UNL     1      -4.173   6.104   1.635  0.00  0.00    +0.292 HD
ENDBRANCH  22  27
ENDBRANCH   5  19
TORSDOF 4
