REMARK  Name = ZINC00806695
REMARK  8 active torsions:
REMARK  status: ('A' for Active; 'I' for Inactive)
REMARK    1  A    between atoms: C_1  and  C_2
REMARK    2  A    between atoms: N_4  and  C_5
REMARK    3  A    between atoms: C_8  and  O_24
REMARK    4  A    between atoms: C_13  and  C_14
REMARK    5  A    between atoms: C_14  and  C_16
REMARK    6  A    between atoms: C_19  and  O_22
REMARK    7  A    between atoms: O_22  and  C_23
REMARK    8  A    between atoms: O_24  and  C_25
REMARK                            x       y       z     vdW  Elec       q    Type
REMARK                         _______ _______ _______ _____ _____    ______ ____
ROOT
ATOM      1  C   UNL     1      -0.050  -2.056  -1.161  0.00  0.00    +0.091 A 
ATOM      2  C   UNL     1       0.266  -2.958  -2.275  0.00  0.00    +0.046 A 
ATOM      3  C   UNL     1       0.708  -2.760  -3.585  0.00  0.00    +0.059 A 
ATOM      4  C   UNL     1       0.918  -3.851  -4.405  0.00  0.00    +0.121 A 
ATOM      5  C   UNL     1       0.690  -5.139  -3.927  0.00  0.00    +0.049 A 
ATOM      6  C   UNL     1       0.254  -5.343  -2.637  0.00  0.00    +0.050 A 
ATOM      7  C   UNL     1       0.037  -4.258  -1.794  0.00  0.00    +0.138 A 
ATOM      8  O   UNL     1      -0.378  -4.163  -0.514  0.00  0.00    -0.450 OA
ATOM      9  C   UNL     1      -0.432  -2.872  -0.116  0.00  0.00    +0.197 A 
ENDROOT
BRANCH   1  13
ATOM     10  C   UNL     1      -0.307   1.530  -2.240  0.00  0.00    +0.109 C 
ATOM     11  C   UNL     1      -0.271   0.024  -2.276  0.00  0.00    +0.214 C 
ATOM     12  O   UNL     1      -0.507  -0.564  -3.310  0.00  0.00    -0.276 OA
ATOM     13  N   UNL     1       0.024  -0.669  -1.158  0.00  0.00    -0.282 N 
ATOM     14  H   UNL     1       0.289  -0.199  -0.352  0.00  0.00    +0.155 HD
ENDBRANCH   1  13
BRANCH   9  15
ATOM     15  C   UNL     1      -0.823  -2.427   1.172  0.00  0.00    +0.230 C 
ATOM     16  O   UNL     1      -0.935  -1.235   1.396  0.00  0.00    -0.283 OA
BRANCH  15  17
ATOM     17  C   UNL     1      -1.094  -3.409   2.242  0.00  0.00    +0.026 A 
ATOM     18  C   UNL     1      -1.087  -4.777   1.956  0.00  0.00    +0.015 A 
ATOM     19  C   UNL     1      -1.340  -5.689   2.956  0.00  0.00    +0.046 A 
ATOM     20  C   UNL     1      -1.602  -5.251   4.249  0.00  0.00    +0.120 A 
ATOM     21  C   UNL     1      -1.610  -3.891   4.538  0.00  0.00    +0.046 A 
ATOM     22  C   UNL     1      -1.353  -2.973   3.544  0.00  0.00    +0.015 A 
BRANCH  20  23
ATOM     23  O   UNL     1      -1.851  -6.153   5.232  0.00  0.00    -0.495 OA
ATOM     24  C   UNL     1      -2.112  -5.634   6.538  0.00  0.00    +0.277 C 
ENDBRANCH  20  23
ENDBRANCH  15  17
ENDBRANCH   9  15
BRANCH   4  25
ATOM     25  O   UNL     1       1.348  -3.667  -5.682  0.00  0.00    -0.495 OA
ATOM     26  C   UNL     1       1.544  -4.839  -6.475  0.00  0.00    +0.277 C 
ENDBRANCH   4  25
TORSDOF 5
