REMARK  Name = ZINC01916260
REMARK  8 active torsions:
REMARK  status: ('A' for Active; 'I' for Inactive)
REMARK    1  A    between atoms: C_1  and  C_2
REMARK    2  A    between atoms: C_3  and  N_9
REMARK    3  A    between atoms: C_10  and  C_12
REMARK    4  A    between atoms: C_15  and  O_18
REMARK    5  A    between atoms: O_18  and  C_19
REMARK    6  A    between atoms: C_19  and  C_20
REMARK    7  A    between atoms: N_22  and  N_23
REMARK    8  A    between atoms: C_24  and  C_25
REMARK                            x       y       z     vdW  Elec       q    Type
REMARK                         _______ _______ _______ _____ _____    ______ ____
ROOT
ATOM      1  C   UNL     1      -0.017   1.394  -0.005  0.00  0.00    +0.037 A 
ATOM      2  C   UNL     1       1.186   2.105  -0.021  0.00  0.00    +0.016 A 
ATOM      3  C   UNL     1       2.385   1.428  -0.046  0.00  0.00    +0.046 A 
ATOM      4  C   UNL     1       2.399   0.038  -0.058  0.00  0.00    +0.121 A 
ATOM      5  C   UNL     1       1.205  -0.674  -0.042  0.00  0.00    +0.046 A 
ATOM      6  C   UNL     1       0.003  -0.004  -0.016  0.00  0.00    +0.016 A 
ENDROOT
BRANCH   1   8
ATOM      7  N   UNL     1      -1.320   3.463   0.027  0.00  0.00    -0.281 N 
ATOM      8  C   UNL     1      -1.303   2.116   0.017  0.00  0.00    +0.248 C 
ATOM      9  O   UNL     1      -2.349   1.495   0.025  0.00  0.00    -0.270 OA
ATOM     10  H   UNL     1      -0.489   3.958   0.101  0.00  0.00    +0.155 HD
BRANCH   7  13
ATOM     11  C   UNL     1      -1.469   6.092   1.106  0.00  0.00    +0.047 C 
ATOM     12  C   UNL     1      -2.652   5.434   0.445  0.00  0.00    -0.011 A 
ATOM     13  C   UNL     1      -2.535   4.149  -0.069  0.00  0.00    +0.038 A 
ATOM     14  C   UNL     1      -3.629   3.543  -0.673  0.00  0.00    +0.023 A 
ATOM     15  C   UNL     1      -4.829   4.222  -0.766  0.00  0.00    +0.003 A 
ATOM     16  C   UNL     1      -4.941   5.503  -0.260  0.00  0.00    +0.020 A 
ATOM     17  C   UNL     1      -3.853   6.110   0.343  0.00  0.00    +0.046 A 
ATOM     18 CL   UNL     1      -3.998   7.719   0.978  0.00  0.00    -0.083 Cl
ENDBRANCH   7  13
ENDBRANCH   1   8
BRANCH   4  19
ATOM     19  O   UNL     1       3.583  -0.626  -0.083  0.00  0.00    -0.483 OA
BRANCH  19  20
ATOM     20  C   UNL     1       4.771   0.167  -0.098  0.00  0.00    +0.326 C 
BRANCH  20  21
ATOM     21  C   UNL     1       5.977  -0.736  -0.126  0.00  0.00    +0.270 C 
ATOM     22  O   UNL     1       5.833  -1.941  -0.132  0.00  0.00    -0.270 OA
ATOM     23  N   UNL     1       7.216  -0.206  -0.144  0.00  0.00    -0.204 N 
ATOM     24  H   UNL     1       7.332   0.757  -0.139  0.00  0.00    +0.177 HD
BRANCH  23  25
ATOM     25  N   UNL     1       8.337  -1.045  -0.170  0.00  0.00    -0.188 NA
ATOM     26  C   UNL     1       9.530  -0.535  -0.187  0.00  0.00    +0.138 C 
BRANCH  26  27
ATOM     27  C   UNL     1      10.710  -1.419  -0.214  0.00  0.00    -0.004 A 
ATOM     28  C   UNL     1      11.996  -0.872  -0.232  0.00  0.00    +0.009 A 
ATOM     29  C   UNL     1      13.096  -1.704  -0.257  0.00  0.00    +0.002 A 
ATOM     30  C   UNL     1      12.928  -3.078  -0.264  0.00  0.00    +0.015 A 
ATOM     31  C   UNL     1      11.658  -3.627  -0.246  0.00  0.00    +0.018 A 
ATOM     32  C   UNL     1      10.548  -2.806  -0.216  0.00  0.00    +0.024 A 
ATOM     33 BR   UNL     1      11.441  -5.505  -0.254  0.00  0.00    -0.050 Br
ENDBRANCH  26  27
ENDBRANCH  23  25
ENDBRANCH  20  21
ENDBRANCH  19  20
ENDBRANCH   4  19
TORSDOF 7
