REMARK  Name = ZINC39694753
REMARK  7 active torsions:
REMARK  status: ('A' for Active; 'I' for Inactive)
REMARK    1  A    between atoms: C_1  and  C_2
REMARK    2  A    between atoms: C_4  and  C_36
REMARK    3  A    between atoms: C_6  and  C_8
REMARK    4  A    between atoms: C_8  and  N_9
REMARK    5  A    between atoms: C_10  and  C_12
REMARK    6  A    between atoms: C_23  and  C_25
REMARK    7  A    between atoms: C_27  and  C_32
REMARK                            x       y       z     vdW  Elec       q    Type
REMARK                         _______ _______ _______ _____ _____    ______ ____
ROOT
ATOM      1  C   UNL     1       3.805  -3.965   4.433  0.00  0.00    +0.100 C 
ATOM      2  C   UNL     1       4.224  -2.487   4.599  0.00  0.00    +0.121 C 
ATOM      3  N   UNL     1       4.035  -2.204   6.042  0.00  0.00    -0.296 N 
ATOM      4  C   UNL     1       4.495  -3.439   6.723  0.00  0.00    +0.115 C 
ATOM      5  C   UNL     1       3.988  -4.587   5.827  0.00  0.00    -0.004 C 
ATOM      6  C   UNL     1       2.654  -5.112   6.351  0.00  0.00    -0.010 C 
ATOM      7  C   UNL     1       2.872  -5.776   7.713  0.00  0.00    -0.082 C 
ATOM      8  N   UNL     1       3.834  -6.876   7.575  0.00  0.00    +0.379 N 
ATOM      9  C   UNL     1       5.140  -6.350   7.161  0.00  0.00    -0.082 C 
ATOM     10  C   UNL     1       5.019  -5.710   5.775  0.00  0.00    -0.010 C 
ATOM     11  C   UNL     1       3.554  -1.080   6.607  0.00  0.00    +0.247 C 
ATOM     12  O   UNL     1       3.097  -0.196   5.909  0.00  0.00    -0.270 OA
ATOM     13  H   UNL     1       3.929  -7.350   8.461  0.00  0.00    -0.086 HD
ATOM     14  H   UNL     1       3.500  -7.528   6.882  0.00  0.00    -0.086 HD
ENDROOT
BRANCH  11  15
ATOM     15  C   UNL     1       3.581  -0.921   8.077  0.00  0.00    +0.040 A 
ATOM     16  C   UNL     1       2.723  -0.013   8.700  0.00  0.00    +0.025 A 
ATOM     17  C   UNL     1       2.752   0.131  10.071  0.00  0.00    +0.058 A 
ATOM     18  C   UNL     1       3.629  -0.622  10.831  0.00  0.00    +0.050 A 
ATOM     19  C   UNL     1       4.484  -1.525  10.220  0.00  0.00    +0.125 A 
ATOM     20  C   UNL     1       4.460  -1.683   8.848  0.00  0.00    +0.051 A 
ATOM     21  F   UNL     1       5.338  -2.257  10.969  0.00  0.00    -0.205 F 
BRANCH  17  22
ATOM     22  C   UNL     1       1.826   1.112  10.743  0.00  0.00    +0.418 C 
ATOM     23  F   UNL     1       0.626   0.471  11.070  0.00  0.00    -0.166 F 
ATOM     24  F   UNL     1       2.428   1.597  11.909  0.00  0.00    -0.166 F 
ATOM     25  F   UNL     1       1.565   2.177   9.875  0.00  0.00    -0.166 F 
ENDBRANCH  17  22
ENDBRANCH  11  15
BRANCH   1  27
ATOM     26  N   UNL     1       1.924  -5.151   3.349  0.00  0.00    -0.311 N 
ATOM     27  C   UNL     1       2.364  -4.056   4.002  0.00  0.00    +0.218 C 
ATOM     28  O   UNL     1       1.600  -3.146   4.242  0.00  0.00    -0.275 OA
ATOM     29  H   UNL     1       2.535  -5.879   3.157  0.00  0.00    +0.149 HD
BRANCH  26  30
ATOM     30  C   UNL     1       0.523  -5.240   2.931  0.00  0.00    +0.139 C 
BRANCH  30  36
ATOM     31  C   UNL     1       0.439  -7.946  -1.278  0.00  0.00    +0.044 C 
ATOM     32  C   UNL     1       0.251  -7.847   0.213  0.00  0.00    -0.050 A 
ATOM     33  C   UNL     1      -0.135  -8.960   0.937  0.00  0.00    +0.006 A 
ATOM     34  C   UNL     1      -0.308  -8.869   2.305  0.00  0.00    -0.050 A 
ATOM     35  C   UNL     1      -0.095  -7.665   2.950  0.00  0.00    +0.008 A 
ATOM     36  C   UNL     1       0.291  -6.552   2.227  0.00  0.00    -0.030 A 
ATOM     37  C   UNL     1       0.469  -6.644   0.860  0.00  0.00    +0.008 A 
ATOM     38  C   UNL     1      -0.729 -10.082   3.094  0.00  0.00    +0.044 C 
ENDBRANCH  30  36
ENDBRANCH  26  30
ENDBRANCH   1  27
TORSDOF 5
