REMARK  Name = ZINC27386952
REMARK  9 active torsions:
REMARK  status: ('A' for Active; 'I' for Inactive)
REMARK    1  A    between atoms: C_1  and  C_2
REMARK    2  A    between atoms: C_2  and  C_4
REMARK    3  A    between atoms: C_2  and  N_14
REMARK    4  A    between atoms: C_7  and  S_10
REMARK    5  A    between atoms: S_10  and  N_13
REMARK    6  A    between atoms: N_14  and  C_15
REMARK    7  A    between atoms: C_16  and  C_18
REMARK    8  A    between atoms: C_19  and  C_20
REMARK    9  A    between atoms: C_25  and  N_26
REMARK                            x       y       z     vdW  Elec       q    Type
REMARK                         _______ _______ _______ _____ _____    ______ ____
ROOT
ATOM      1  N   UNL     1      -1.502   3.084   5.632  0.00  0.00    -0.294 N 
ATOM      2  C   UNL     1      -1.055   4.449   5.343  0.00  0.00    +0.133 C 
ATOM      3  C   UNL     1      -1.315   2.559   6.859  0.00  0.00    +0.240 C 
ATOM      4  O   UNL     1      -1.686   1.425   7.098  0.00  0.00    -0.271 OA
ENDROOT
BRANCH   1   6
ATOM      5  C   UNL     1      -3.342   3.066   4.022  0.00  0.00    +0.033 C 
ATOM      6  C   UNL     1      -2.151   2.289   4.586  0.00  0.00    +0.103 C 
BRANCH   6   7
ATOM      7  C   UNL     1      -1.164   2.010   3.482  0.00  0.00    -0.027 A 
ATOM      8  C   UNL     1       0.177   1.855   3.776  0.00  0.00    +0.007 A 
ATOM      9  C   UNL     1       1.082   1.599   2.763  0.00  0.00    +0.029 A 
ATOM     10  C   UNL     1       0.646   1.499   1.455  0.00  0.00    +0.105 A 
ATOM     11  C   UNL     1      -0.695   1.660   1.160  0.00  0.00    +0.029 A 
ATOM     12  C   UNL     1      -1.601   1.910   2.174  0.00  0.00    +0.007 A 
BRANCH  10  13
ATOM     13  S   UNL     1       1.799   1.173   0.164  0.00  0.00    +0.056 S 
ATOM     14  O   UNL     1       3.067   1.611   0.632  0.00  0.00    -0.153 OA
ATOM     15  O   UNL     1       1.218   1.668  -1.035  0.00  0.00    -0.153 OA
BRANCH  13  16
ATOM     16  N   UNL     1       1.897  -0.472  -0.002  0.00  0.00    -0.204 NA
ATOM     17  H   UNL     1       2.611  -0.718  -0.802  0.00  0.00    +0.144 HD
ATOM     18  H   UNL     1       0.906  -0.874  -0.258  0.00  0.00    +0.144 HD
ENDBRANCH  13  16
ENDBRANCH  10  13
ENDBRANCH   6   7
ENDBRANCH   1   6
BRANCH   3  19
ATOM     19  C   UNL     1      -0.666   3.353   7.904  0.00  0.00    +0.068 C 
ATOM     20  C   UNL     1      -0.480   2.828   9.132  0.00  0.00    +0.015 C 
BRANCH  20  21
ATOM     21  C   UNL     1       0.172   3.627  10.182  0.00  0.00    +0.005 A 
ATOM     22  C   UNL     1       0.891   4.778   9.846  0.00  0.00    +0.010 A 
ATOM     23  C   UNL     1       1.499   5.521  10.836  0.00  0.00    +0.001 A 
ATOM     24  C   UNL     1       1.399   5.129  12.159  0.00  0.00    +0.002 A 
ATOM     25  C   UNL     1       0.691   3.991  12.500  0.00  0.00    +0.033 A 
ATOM     26  C   UNL     1       0.072   3.240  11.522  0.00  0.00    +0.133 A 
BRANCH  26  27
ATOM     27  N   UNL     1      -0.690   2.026  11.890  0.00  0.00    +0.057 N 
ATOM     28  O   UNL     1      -1.728   1.761  11.311  0.00  0.00    -0.126 OA
ATOM     29  O   UNL     1      -0.280   1.292  12.771  0.00  0.00    -0.126 OA
ENDBRANCH  26  27
ENDBRANCH  20  21
ENDBRANCH   3  19
TORSDOF 7
