REMARK  Name = ZINC38792998
REMARK  8 active torsions:
REMARK  status: ('A' for Active; 'I' for Inactive)
REMARK    1  A    between atoms: C_4  and  N_7
REMARK    2  A    between atoms: C_8  and  N_15
REMARK    3  A    between atoms: C_10  and  C_12
REMARK    4  A    between atoms: C_16  and  C_18
REMARK    5  A    between atoms: C_18  and  S_19
REMARK    6  A    between atoms: S_19  and  C_20
REMARK    7  A    between atoms: C_24  and  C_29
REMARK    8  A    between atoms: N_25  and  C_26
REMARK                            x       y       z     vdW  Elec       q    Type
REMARK                         _______ _______ _______ _____ _____    ______ ____
ROOT
ATOM      1  S   UNL     1       3.381  -6.090   3.611  0.00  0.00    -0.109 S 
ENDROOT
BRANCH   1   2
ATOM      2  C   UNL     1       1.961  -6.979   4.307  0.00  0.00    +0.237 C 
ATOM      3  N   UNL     1       1.411  -6.247   5.460  0.00  0.00    -0.237 N 
ATOM      4  N   UNL     1       0.092  -5.916   5.129  0.00  0.00    -0.169 NA
ATOM      5  C   UNL     1      -0.221  -6.348   3.936  0.00  0.00    +0.147 C 
ATOM      6  N   UNL     1       0.853  -7.019   3.338  0.00  0.00    -0.282 N 
ATOM      7  H   UNL     1       1.872  -6.037   6.288  0.00  0.00    +0.171 HD
BRANCH   5   8
ATOM      8  C   UNL     1      -1.474  -6.167   3.333  0.00  0.00    +0.022 C 
ATOM      9  C   UNL     1      -2.550  -5.429   3.828  0.00  0.00    +0.006 A 
ATOM     10  C   UNL     1      -2.727  -4.676   5.008  0.00  0.00    +0.010 A 
ATOM     11  C   UNL     1      -3.909  -4.047   5.235  0.00  0.00    +0.001 A 
ATOM     12  C   UNL     1      -4.965  -4.124   4.325  0.00  0.00    +0.002 A 
ATOM     13  C   UNL     1      -4.865  -4.830   3.171  0.00  0.00    +0.026 A 
ATOM     14  C   UNL     1      -3.660  -5.514   2.865  0.00  0.00    +0.043 A 
ATOM     15  N   UNL     1      -3.317  -6.254   1.829  0.00  0.00    -0.380 N 
ATOM     16  C   UNL     1      -1.940  -6.725   2.006  0.00  0.00    +0.152 C 
ATOM     17  H   UNL     1      -3.884  -6.452   1.067  0.00  0.00    +0.160 HD
ENDBRANCH   5   8
BRANCH   6  18
ATOM     18  C   UNL     1       0.873  -7.638   2.011  0.00  0.00    +0.078 C 
ATOM     19  C   UNL     1       2.137  -8.399   1.605  0.00  0.00    +0.024 C 
ATOM     20  C   UNL     1       1.822  -7.044   0.968  0.00  0.00    +0.024 C 
ENDBRANCH   6  18
ENDBRANCH   1   2
BRANCH   1  21
ATOM     21  C   UNL     1       2.719  -4.449   3.212  0.00  0.00    +0.168 C 
BRANCH  21  23
ATOM     22  N   UNL     1       3.548  -2.330   2.241  0.00  0.00    -0.270 N 
ATOM     23  C   UNL     1       3.811  -3.598   2.617  0.00  0.00    +0.228 C 
ATOM     24  O   UNL     1       4.926  -4.053   2.476  0.00  0.00    -0.275 OA
ATOM     25  H   UNL     1       2.656  -1.966   2.354  0.00  0.00    +0.156 HD
BRANCH  22  27
ATOM     26  N   UNL     1       4.437  -0.254   1.270  0.00  0.00    -0.218 N 
ATOM     27  C   UNL     1       4.559  -1.543   1.691  0.00  0.00    +0.129 A 
ATOM     28  C   UNL     1       5.849  -1.921   1.476  0.00  0.00    +0.069 A 
ATOM     29  C   UNL     1       6.526  -0.837   0.912  0.00  0.00    +0.068 A 
ATOM     30  N   UNL     1       5.684   0.157   0.782  0.00  0.00    -0.169 NA
BRANCH  26  34
ATOM     31  C   UNL     1       0.967   2.052   1.393  0.00  0.00    +0.000 A 
ATOM     32  C   UNL     1       2.198   2.647   1.599  0.00  0.00    +0.002 A 
ATOM     33  C   UNL     1       3.350   1.885   1.559  0.00  0.00    +0.028 A 
ATOM     34  C   UNL     1       3.270   0.521   1.312  0.00  0.00    +0.067 A 
ATOM     35  C   UNL     1       2.032  -0.073   1.106  0.00  0.00    +0.028 A 
ATOM     36  C   UNL     1       0.884   0.694   1.147  0.00  0.00    +0.002 A 
ENDBRANCH  26  34
BRANCH  29  37
ATOM     37  C   UNL     1       7.979  -0.817   0.513  0.00  0.00    +0.040 C 
ATOM     38  C   UNL     1       8.881  -1.917   1.077  0.00  0.00    +0.010 C 
ATOM     39  C   UNL     1       9.005  -0.484   1.599  0.00  0.00    +0.010 C 
ENDBRANCH  29  37
ENDBRANCH  22  27
ENDBRANCH  21  23
ENDBRANCH   1  21
TORSDOF 8
