REMARK  Name = ZINC20328892
REMARK  7 active torsions:
REMARK  status: ('A' for Active; 'I' for Inactive)
REMARK    1  A    between atoms: C_1  and  C_2
REMARK    2  A    between atoms: C_5  and  C_8
REMARK    3  A    between atoms: C_9  and  S_20
REMARK    4  A    between atoms: C_11  and  C_14
REMARK    5  A    between atoms: S_20  and  C_23
REMARK    6  A    between atoms: C_23  and  C_24
REMARK    7  A    between atoms: N_26  and  C_27
REMARK                            x       y       z     vdW  Elec       q    Type
REMARK                         _______ _______ _______ _____ _____    ______ ____
ROOT
ATOM      1  C   UNL     1      -1.242  -0.751   0.010  0.00  0.00    +0.092 A 
ATOM      2  C   UNL     1      -1.597  -1.769  -0.823  0.00  0.00    +0.203 A 
ATOM      3  N   UNL     1      -2.819  -2.183  -0.481  0.00  0.00    -0.209 NA
ATOM      4  C   UNL     1      -3.256  -1.471   0.535  0.00  0.00    +0.141 A 
ATOM      5  N   UNL     1      -2.295  -0.565   0.878  0.00  0.00    -0.336 N 
ATOM      6  H   UNL     1      -2.235   0.209   1.657  0.00  0.00    +0.167 HD
ENDROOT
BRANCH   1  11
ATOM      7  C   UNL     1       3.708   2.182  -0.065  0.00  0.00    +0.044 C 
ATOM      8  C   UNL     1       2.412   1.414  -0.046  0.00  0.00    -0.050 A 
ATOM      9  C   UNL     1       2.431   0.030  -0.056  0.00  0.00    +0.004 A 
ATOM     10  C   UNL     1       1.248  -0.679  -0.038  0.00  0.00    +0.010 A 
ATOM     11  C   UNL     1       0.029   0.002  -0.009  0.00  0.00    +0.002 A 
ATOM     12  C   UNL     1       0.018   1.398   0.001  0.00  0.00    +0.010 A 
ATOM     13  C   UNL     1       1.208   2.095  -0.018  0.00  0.00    +0.004 A 
ENDBRANCH   1  11
BRANCH   4  14
ATOM     14  C   UNL     1      -4.568  -1.630   1.198  0.00  0.00    +0.017 A 
ATOM     15  C   UNL     1      -4.912  -0.812   2.276  0.00  0.00    +0.011 A 
ATOM     16  C   UNL     1      -6.139  -0.962   2.887  0.00  0.00    +0.001 A 
ATOM     17  C   UNL     1      -7.024  -1.928   2.442  0.00  0.00    +0.000 A 
ATOM     18  C   UNL     1      -6.687  -2.745   1.377  0.00  0.00    +0.001 A 
ATOM     19  C   UNL     1      -5.465  -2.602   0.754  0.00  0.00    +0.011 A 
ENDBRANCH   4  14
BRANCH   2  20
ATOM     20  S   UNL     1      -0.613  -2.426  -2.129  0.00  0.00    +0.024 S 
ATOM     21  O   UNL     1      -1.550  -2.868  -3.102  0.00  0.00    -0.167 OA
ATOM     22  O   UNL     1       0.317  -1.396  -2.435  0.00  0.00    -0.167 OA
BRANCH  20  23
ATOM     23  C   UNL     1       0.245  -3.846  -1.397  0.00  0.00    +0.269 C 
BRANCH  23  24
ATOM     24  C   UNL     1       1.216  -4.417  -2.398  0.00  0.00    +0.239 C 
ATOM     25  O   UNL     1       1.319  -3.915  -3.497  0.00  0.00    -0.274 OA
ATOM     26  N   UNL     1       1.970  -5.485  -2.072  0.00  0.00    -0.284 N 
ATOM     27  H   UNL     1       1.931  -5.896  -1.052  0.00  0.00    +0.155 HD
BRANCH  26  28
ATOM     28  C   UNL     1       2.804  -6.073  -3.031  0.00  0.00    +0.035 A 
ATOM     29  C   UNL     1       3.005  -7.447  -3.030  0.00  0.00    +0.026 A 
ATOM     30  C   UNL     1       3.823  -8.026  -3.980  0.00  0.00    +0.041 A 
ATOM     31  C   UNL     1       4.453  -7.236  -4.927  0.00  0.00    +0.142 A 
ATOM     32  C   UNL     1       4.259  -5.864  -4.927  0.00  0.00    +0.078 A 
ATOM     33  C   UNL     1       3.436  -5.282  -3.981  0.00  0.00    +0.046 A 
ATOM     34 CL   UNL     1       5.049  -4.876  -6.115  0.00  0.00    -0.081 Cl
ATOM     35  F   UNL     1       5.257  -7.804  -5.852  0.00  0.00    -0.204 F 
ENDBRANCH  26  28
ENDBRANCH  23  24
ENDBRANCH  20  23
ENDBRANCH   2  20
TORSDOF 6
