REMARK  Name = ZINC39695166
REMARK  5 active torsions:
REMARK  status: ('A' for Active; 'I' for Inactive)
REMARK    1  A    between atoms: C_1  and  C_2
REMARK    2  A    between atoms: C_3  and  C_9
REMARK    3  A    between atoms: C_9  and  N_10
REMARK    4  A    between atoms: C_11  and  C_13
REMARK    5  A    between atoms: C_24  and  C_26
REMARK                            x       y       z     vdW  Elec       q    Type
REMARK                         _______ _______ _______ _____ _____    ______ ____
ROOT
ATOM      1  C   UNL     1       2.959   1.739  -4.246  0.00  0.00    +0.100 C 
ATOM      2  C   UNL     1       3.394   2.822  -3.233  0.00  0.00    +0.121 C 
ATOM      3  N   UNL     1       4.170   3.796  -4.036  0.00  0.00    -0.296 N 
ATOM      4  C   UNL     1       3.429   3.890  -5.317  0.00  0.00    +0.115 C 
ATOM      5  C   UNL     1       2.983   2.445  -5.612  0.00  0.00    -0.004 C 
ATOM      6  C   UNL     1       1.589   2.440  -6.234  0.00  0.00    -0.010 C 
ATOM      7  C   UNL     1       1.650   3.094  -7.617  0.00  0.00    -0.082 C 
ATOM      8  N   UNL     1       2.590   2.357  -8.469  0.00  0.00    +0.379 N 
ATOM      9  C   UNL     1       3.945   2.445  -7.912  0.00  0.00    -0.082 C 
ATOM     10  C   UNL     1       3.982   1.763  -6.542  0.00  0.00    -0.010 C 
ATOM     11  C   UNL     1       5.294   4.449  -3.682  0.00  0.00    +0.252 C 
ATOM     12  O   UNL     1       5.817   5.225  -4.459  0.00  0.00    -0.270 OA
ATOM     13  H   UNL     1       2.310   1.388  -8.517  0.00  0.00    -0.086 HD
ATOM     14  H   UNL     1       2.582   2.752  -9.397  0.00  0.00    -0.086 HD
ENDROOT
BRANCH  11  15
ATOM     15  C   UNL     1       5.891   4.223  -2.352  0.00  0.00    +0.108 A 
ATOM     16  C   UNL     1       6.846   3.216  -2.171  0.00  0.00    +0.138 A 
ATOM     17  C   UNL     1       7.401   3.011  -0.922  0.00  0.00    +0.041 A 
ATOM     18  C   UNL     1       7.014   3.797   0.148  0.00  0.00    +0.026 A 
ATOM     19  C   UNL     1       6.070   4.795  -0.021  0.00  0.00    +0.077 A 
ATOM     20  C   UNL     1       5.509   5.017  -1.266  0.00  0.00    +0.156 A 
ATOM     21  F   UNL     1       4.592   5.995  -1.431  0.00  0.00    -0.203 F 
ATOM     22 CL   UNL     1       5.593   5.773   1.331  0.00  0.00    -0.081 Cl
ATOM     23  F   UNL     1       7.225   2.447  -3.215  0.00  0.00    -0.205 F 
ENDBRANCH  11  15
BRANCH   1  25
ATOM     24  N   UNL     1       1.203  -0.003  -4.256  0.00  0.00    -0.311 N 
ATOM     25  C   UNL     1       1.568   1.253  -3.930  0.00  0.00    +0.218 C 
ATOM     26  O   UNL     1       0.778   1.992  -3.383  0.00  0.00    -0.275 OA
ATOM     27  H   UNL     1       1.836  -0.594  -4.693  0.00  0.00    +0.149 HD
BRANCH  24  28
ATOM     28  C   UNL     1      -0.149  -0.475  -3.949  0.00  0.00    +0.139 C 
BRANCH  28  31
ATOM     29  C   UNL     1       0.894  -2.635  -2.338  0.00  0.00    +0.045 C 
ATOM     30  C   UNL     1       0.199  -2.935  -3.641  0.00  0.00    -0.027 A 
ATOM     31  C   UNL     1      -0.300  -1.901  -4.412  0.00  0.00    -0.026 A 
ATOM     32  C   UNL     1      -0.938  -2.176  -5.607  0.00  0.00    +0.005 A 
ATOM     33  C   UNL     1      -1.077  -3.484  -6.032  0.00  0.00    +0.002 A 
ATOM     34  C   UNL     1      -0.579  -4.518  -5.262  0.00  0.00    +0.020 A 
ATOM     35  C   UNL     1       0.065  -4.243  -4.068  0.00  0.00    +0.044 A 
ATOM     36 CL   UNL     1       0.697  -5.541  -3.104  0.00  0.00    -0.083 Cl
ENDBRANCH  28  31
ENDBRANCH  24  28
ENDBRANCH   1  25
TORSDOF 4
