REMARK  Name = ZINC34857287
REMARK  6 active torsions:
REMARK  status: ('A' for Active; 'I' for Inactive)
REMARK    1  A    between atoms: C_3  and  N_33
REMARK    2  A    between atoms: C_6  and  C_7
REMARK    3  A    between atoms: C_16  and  C_20
REMARK    4  A    between atoms: N_22  and  C_23
REMARK    5  A    between atoms: C_23  and  C_24
REMARK    6  A    between atoms: C_24  and  C_25
REMARK                            x       y       z     vdW  Elec       q    Type
REMARK                         _______ _______ _______ _____ _____    ______ ____
ROOT
ATOM      1  C   UNL     1      -1.266  -0.764   0.011  0.00  0.00    +0.247 C 
ATOM      2  O   UNL     1      -2.325  -0.178   0.132  0.00  0.00    -0.270 OA
ATOM      3  N   UNL     1      -1.248  -2.107  -0.099  0.00  0.00    -0.298 N 
ATOM      4  C   UNL     1       0.026  -2.839  -0.111  0.00  0.00    +0.107 C 
ATOM      5  C   UNL     1      -0.012  -3.910   0.986  0.00  0.00    +0.017 C 
ATOM      6  C   UNL     1      -1.255  -4.771   0.812  0.00  0.00    -0.016 C 
ATOM      7  C   UNL     1      -2.525  -3.937   0.889  0.00  0.00    +0.017 C 
ATOM      8  C   UNL     1      -2.502  -2.866  -0.202  0.00  0.00    +0.107 C 
ATOM      9  N   UNL     1      -1.198  -5.538  -0.443  0.00  0.00    +0.397 N 
ATOM     10  C   UNL     1      -1.322  -6.993  -0.305  0.00  0.00    +0.028 C 
ATOM     11  C   UNL     1      -0.724  -7.474   1.050  0.00  0.00    +0.061 C 
ATOM     12  S   UNL     1      -1.291  -6.069   2.113  0.00  0.00    -0.174 S 
ATOM     13  H   UNL     1      -1.940  -5.214  -1.044  0.00  0.00    -0.083 HD
ATOM     14  H   UNL     1      -0.318  -5.338  -0.895  0.00  0.00    -0.083 HD
ENDROOT
BRANCH   1  20
ATOM     15  C   UNL     1       0.196   1.066   0.860  0.00  0.00    +0.015 A 
ATOM     16  C   UNL     1       1.381   1.772   0.829  0.00  0.00    +0.033 A 
ATOM     17  C   UNL     1       2.374   1.423  -0.068  0.00  0.00    +0.126 A 
ATOM     18  C   UNL     1       2.188   0.365  -0.940  0.00  0.00    +0.033 A 
ATOM     19  C   UNL     1       1.007  -0.349  -0.920  0.00  0.00    +0.015 A 
ATOM     20  C   UNL     1       0.001  -0.003  -0.017  0.00  0.00    +0.037 A 
BRANCH  17  21
ATOM     21  N   UNL     1       3.643   2.185  -0.095  0.00  0.00    +0.056 N 
ATOM     22  O   UNL     1       3.809   3.110   0.665  0.00  0.00    -0.126 OA
ATOM     23  O   UNL     1       4.513   1.882  -0.878  0.00  0.00    -0.126 OA
ENDBRANCH  17  21
ENDBRANCH   1  20
BRANCH  10  24
ATOM     24  C   UNL     1      -0.585  -7.663  -1.436  0.00  0.00    +0.200 C 
ATOM     25  O   UNL     1      -0.015  -6.992  -2.270  0.00  0.00    -0.278 OA
ATOM     26  N   UNL     1      -0.560  -9.008  -1.520  0.00  0.00    -0.316 N 
ATOM     27  H   UNL     1      -1.016  -9.544  -0.853  0.00  0.00    +0.149 HD
BRANCH  26  28
ATOM     28  C   UNL     1       0.157  -9.659  -2.620  0.00  0.00    +0.109 C 
BRANCH  28  29
ATOM     29  C   UNL     1       0.031 -11.178  -2.482  0.00  0.00    +0.055 C 
BRANCH  29  30
ATOM     30  C   UNL     1       0.767 -11.848  -3.613  0.00  0.00    -0.027 A 
ATOM     31  C   UNL     1       0.086 -12.221  -4.756  0.00  0.00    +0.006 A 
ATOM     32  C   UNL     1       0.762 -12.835  -5.794  0.00  0.00    +0.020 A 
ATOM     33  C   UNL     1       2.120 -13.077  -5.689  0.00  0.00    +0.042 A 
ATOM     34  C   UNL     1       2.802 -12.704  -4.545  0.00  0.00    +0.040 A 
ATOM     35  C   UNL     1       2.127 -12.084  -3.509  0.00  0.00    +0.046 A 
ATOM     36 CL   UNL     1       2.983 -11.610  -2.075  0.00  0.00    -0.083 Cl
ATOM     37 CL   UNL     1       2.968 -13.850  -6.992  0.00  0.00    -0.083 Cl
ENDBRANCH  29  30
ENDBRANCH  28  29
ENDBRANCH  26  28
ENDBRANCH  10  24
TORSDOF 6
