REMARK  Name = ZINC35523535
REMARK  6 active torsions:
REMARK  status: ('A' for Active; 'I' for Inactive)
REMARK    1  A    between atoms: C_1  and  C_2
REMARK    2  A    between atoms: C_7  and  N_8
REMARK    3  A    between atoms: C_14  and  C_16
REMARK    4  A    between atoms: C_19  and  C_21
REMARK    5  A    between atoms: C_21  and  N_22
REMARK    6  A    between atoms: C_30  and  C_32
REMARK                            x       y       z     vdW  Elec       q    Type
REMARK                         _______ _______ _______ _____ _____    ______ ____
ROOT
ATOM      1  C   UNL     1       1.325   1.112   6.992  0.00  0.00    +0.190 A 
ATOM      2  C   UNL     1       1.464   1.683   8.225  0.00  0.00    +0.055 A 
ATOM      3  C   UNL     1       2.843   1.769   8.476  0.00  0.00    +0.043 A 
ATOM      4  C   UNL     1       3.476   1.252   7.400  0.00  0.00    +0.090 A 
ATOM      5  O   UNL     1       2.558   0.853   6.510  0.00  0.00    -0.457 OA
ENDROOT
BRANCH   1  12
ATOM      6  N   UNL     1       0.072  -2.128   3.632  0.00  0.00    -0.327 N 
ATOM      7  C   UNL     1       1.339  -1.729   4.261  0.00  0.00    +0.124 C 
ATOM      8  C   UNL     1       1.316  -0.213   4.490  0.00  0.00    +0.127 C 
ATOM      9  N   UNL     1       0.053   0.143   5.151  0.00  0.00    -0.292 N 
ATOM     10  C   UNL     1      -1.214  -0.255   4.522  0.00  0.00    +0.127 C 
ATOM     11  C   UNL     1      -1.191  -1.767   4.290  0.00  0.00    +0.124 C 
ATOM     12  C   UNL     1       0.056   0.824   6.315  0.00  0.00    +0.282 C 
ATOM     13  O   UNL     1      -0.993   1.199   6.803  0.00  0.00    -0.267 OA
BRANCH   6  20
ATOM     14  C   UNL     1       0.109  -4.971   3.739  0.00  0.00    +0.045 C 
ATOM     15  C   UNL     1       0.086  -4.222   2.431  0.00  0.00    -0.029 A 
ATOM     16  C   UNL     1       0.077  -4.916   1.237  0.00  0.00    +0.005 A 
ATOM     17  C   UNL     1       0.057  -4.230   0.037  0.00  0.00    +0.000 A 
ATOM     18  C   UNL     1       0.045  -2.847   0.028  0.00  0.00    +0.002 A 
ATOM     19  C   UNL     1       0.053  -2.147   1.218  0.00  0.00    +0.023 A 
ATOM     20  C   UNL     1       0.069  -2.833   2.426  0.00  0.00    +0.033 A 
ENDBRANCH   6  20
ENDBRANCH   1  12
BRANCH   4  21
ATOM     21  C   UNL     1       4.969   1.140   7.230  0.00  0.00    -0.002 C 
BRANCH  21  22
ATOM     22  N   UNL     1       5.426  -0.151   7.761  0.00  0.00    +0.394 N 
ATOM     23  C   UNL     1       5.184  -0.197   9.209  0.00  0.00    -0.055 C 
ATOM     24  C   UNL     1       5.358  -1.632   9.721  0.00  0.00    +0.103 C 
ATOM     25  N   UNL     1       6.650  -2.135   9.236  0.00  0.00    -0.353 N 
ATOM     26  C   UNL     1       7.350  -3.211   9.674  0.00  0.00    +0.086 A 
ATOM     27  C   UNL     1       8.486  -3.297   8.948  0.00  0.00    +0.019 A 
ATOM     28  C   UNL     1       8.482  -2.229   8.025  0.00  0.00    +0.021 A 
ATOM     29  C   UNL     1       7.350  -1.537   8.220  0.00  0.00    +0.009 A 
ATOM     30  C   UNL     1       6.864  -0.311   7.487  0.00  0.00    +0.014 C 
ATOM     31  H   UNL     1       4.915  -0.897   7.313  0.00  0.00    -0.080 HD
BRANCH  30  32
ATOM     32  C   UNL     1       7.084  -0.485   6.006  0.00  0.00    -0.020 A 
ATOM     33  C   UNL     1       6.038  -0.881   5.194  0.00  0.00    +0.008 A 
ATOM     34  C   UNL     1       6.237  -1.040   3.836  0.00  0.00    +0.039 A 
ATOM     35  C   UNL     1       7.486  -0.803   3.287  0.00  0.00    +0.126 A 
ATOM     36  C   UNL     1       8.535  -0.406   4.098  0.00  0.00    +0.077 A 
ATOM     37  C   UNL     1       8.332  -0.241   5.458  0.00  0.00    +0.128 A 
ATOM     38  F   UNL     1       9.353   0.151   6.251  0.00  0.00    -0.205 F 
ATOM     39  F   UNL     1       7.681  -0.959   1.959  0.00  0.00    -0.205 F 
ENDBRANCH  30  32
ENDBRANCH  21  22
ENDBRANCH   4  21
TORSDOF 5
