REMARK  Name = ZINC32106218
REMARK  6 active torsions:
REMARK  status: ('A' for Active; 'I' for Inactive)
REMARK    1  A    between atoms: C_6  and  N_7
REMARK    2  A    between atoms: C_9  and  C_14
REMARK    3  A    between atoms: N_16  and  C_17
REMARK    4  A    between atoms: C_17  and  C_18
REMARK    5  A    between atoms: C_18  and  C_19
REMARK    6  A    between atoms: N_21  and  C_22
REMARK                            x       y       z     vdW  Elec       q    Type
REMARK                         _______ _______ _______ _____ _____    ______ ____
ROOT
ATOM      1  C   UNL     1       4.424   6.878  -0.406  0.00  0.00    +0.218 C 
ATOM      2  O   UNL     1       3.717   7.460  -1.201  0.00  0.00    -0.275 OA
ATOM      3  N   UNL     1       5.708   7.256  -0.243  0.00  0.00    -0.315 N 
ATOM      4  H   UNL     1       6.349   6.728   0.478  0.00  0.00    +0.149 HD
ENDROOT
BRANCH   1   7
ATOM      5  N   UNL     1       2.340   3.918   0.047  0.00  0.00    -0.271 N 
ATOM      6  C   UNL     1       2.436   5.378  -0.065  0.00  0.00    +0.127 C 
ATOM      7  C   UNL     1       3.867   5.733   0.400  0.00  0.00    +0.101 C 
ATOM      8  C   UNL     1       4.629   4.421   0.096  0.00  0.00    +0.110 C 
ATOM      9  C   UNL     1       3.557   3.354   0.130  0.00  0.00    +0.221 C 
ATOM     10  O   UNL     1       3.766   2.163   0.220  0.00  0.00    -0.275 OA
BRANCH   5  16
ATOM     11  C   UNL     1       1.150   1.816   0.052  0.00  0.00    +0.026 A 
ATOM     12  C   UNL     1      -0.039   1.113   0.066  0.00  0.00    +0.040 A 
ATOM     13  C   UNL     1      -1.245   1.793   0.081  0.00  0.00    +0.124 A 
ATOM     14  C   UNL     1      -1.262   3.177   0.095  0.00  0.00    +0.040 A 
ATOM     15  C   UNL     1      -0.075   3.883   0.082  0.00  0.00    +0.026 A 
ATOM     16  C   UNL     1       1.135   3.204   0.060  0.00  0.00    +0.036 A 
ATOM     17  F   UNL     1      -2.407   1.104   0.089  0.00  0.00    -0.205 F 
ENDBRANCH   5  16
ENDBRANCH   1   7
BRANCH   3  18
ATOM     18  C   UNL     1       6.249   8.369  -1.026  0.00  0.00    +0.113 C 
BRANCH  18  19
ATOM     19  C   UNL     1       7.716   8.591  -0.652  0.00  0.00    +0.115 C 
BRANCH  19  20
ATOM     20  C   UNL     1       8.273   9.736  -1.457  0.00  0.00    +0.219 C 
ATOM     21  O   UNL     1       7.566  10.318  -2.252  0.00  0.00    -0.275 OA
ATOM     22  N   UNL     1       9.556  10.114  -1.294  0.00  0.00    -0.285 N 
ATOM     23  H   UNL     1      10.222   9.531  -0.640  0.00  0.00    +0.155 HD
BRANCH  22  24
ATOM     24  C   UNL     1      10.042  11.248  -1.957  0.00  0.00    +0.037 A 
ATOM     25  C   UNL     1      11.356  11.280  -2.405  0.00  0.00    +0.027 A 
ATOM     26  C   UNL     1      11.835  12.396  -3.065  0.00  0.00    +0.051 A 
ATOM     27  C   UNL     1      11.010  13.490  -3.270  0.00  0.00    +0.166 A 
ATOM     28  C   UNL     1       9.694  13.463  -2.816  0.00  0.00    +0.168 A 
ATOM     29  C   UNL     1       9.213  12.342  -2.161  0.00  0.00    +0.072 A 
ATOM     30  O   UNL     1       9.097  14.648  -3.137  0.00  0.00    -0.453 OA
ATOM     31  C   UNL     1       9.934  15.238  -4.149  0.00  0.00    +0.466 C 
ATOM     32  O   UNL     1      11.238  14.693  -3.875  0.00  0.00    -0.453 OA
ENDBRANCH  22  24
ENDBRANCH  19  20
ENDBRANCH  18  19
ENDBRANCH   3  18
TORSDOF 6
