REMARK  Name = ZINC63165332
REMARK  8 active torsions:
REMARK  status: ('A' for Active; 'I' for Inactive)
REMARK    1  A    between atoms: C_1  and  C_2
REMARK    2  A    between atoms: C_2  and  O_3
REMARK    3  A    between atoms: O_3  and  C_4
REMARK    4  A    between atoms: C_7  and  N_10
REMARK    5  A    between atoms: C_11  and  C_28
REMARK    6  A    between atoms: C_15  and  S_17
REMARK    7  A    between atoms: S_17  and  C_18
REMARK    8  A    between atoms: C_18  and  C_19
REMARK                            x       y       z     vdW  Elec       q    Type
REMARK                         _______ _______ _______ _____ _____    ______ ____
ROOT
ATOM      1  N   UNL     1       1.296  -6.129  -1.668  0.00  0.00    -0.284 N 
ATOM      2  C   UNL     1       1.664  -6.645  -3.002  0.00  0.00    +0.188 C 
ATOM      3  N   UNL     1       1.999  -8.073  -2.763  0.00  0.00    -0.230 NA
ATOM      4  N   UNL     1       1.013  -8.479  -1.750  0.00  0.00    -0.226 NA
ATOM      5  C   UNL     1       0.888  -7.296  -0.867  0.00  0.00    +0.217 C 
ATOM      6  H   UNL     1       2.940  -8.169  -2.411  0.00  0.00    +0.143 HD
ATOM      7  H   UNL     1       0.129  -8.710  -2.178  0.00  0.00    +0.143 HD
ENDROOT
BRANCH   2   8
ATOM      8  C   UNL     1       2.859  -5.903  -3.543  0.00  0.00    -0.010 A 
ATOM      9  C   UNL     1       4.004  -5.784  -2.777  0.00  0.00    +0.007 A 
ATOM     10  C   UNL     1       5.100  -5.104  -3.272  0.00  0.00    +0.002 A 
ATOM     11  C   UNL     1       5.053  -4.542  -4.535  0.00  0.00    +0.020 A 
ATOM     12  C   UNL     1       3.908  -4.661  -5.302  0.00  0.00    +0.041 A 
ATOM     13  C   UNL     1       2.813  -5.347  -4.808  0.00  0.00    +0.026 A 
ATOM     14 CL   UNL     1       3.848  -3.955  -6.887  0.00  0.00    -0.084 Cl
ENDBRANCH   2   8
BRANCH   1  18
ATOM     15  C   UNL     1       1.411  -2.157  -0.410  0.00  0.00    +0.121 A 
ATOM     16  C   UNL     1       1.131  -3.164   0.501  0.00  0.00    +0.047 A 
ATOM     17  C   UNL     1       1.093  -4.481   0.085  0.00  0.00    +0.027 A 
ATOM     18  C   UNL     1       1.335  -4.795  -1.246  0.00  0.00    +0.033 A 
ATOM     19  C   UNL     1       1.615  -3.786  -2.157  0.00  0.00    +0.027 A 
ATOM     20  C   UNL     1       1.647  -2.470  -1.740  0.00  0.00    +0.047 A 
BRANCH  15  21
ATOM     21  O   UNL     1       1.448  -0.861   0.001  0.00  0.00    -0.492 OA
BRANCH  21  23
ATOM     22  C   UNL     1       1.280   0.892   1.656  0.00  0.00    +0.048 C 
ATOM     23  C   UNL     1       1.196  -0.611   1.385  0.00  0.00    +0.225 C 
ENDBRANCH  21  23
ENDBRANCH  15  21
ENDBRANCH   1  18
BRANCH   5  24
ATOM     24  S   UNL     1      -0.833  -7.108  -0.327  0.00  0.00    -0.118 S 
BRANCH  24  25
ATOM     25  C   UNL     1      -1.769  -6.989  -1.876  0.00  0.00    +0.119 C 
BRANCH  25  26
ATOM     26  C   UNL     1      -3.258  -6.825  -1.561  0.00  0.00    +0.184 C 
ATOM     27  N   UNL     1      -3.466  -5.646  -0.712  0.00  0.00    -0.363 N 
ATOM     28  C   UNL     1      -3.999  -6.056   0.402  0.00  0.00    +0.060 A 
ATOM     29  C   UNL     1      -4.430  -5.357   1.621  0.00  0.00    +0.027 A 
ATOM     30  C   UNL     1      -4.961  -6.062   2.640  0.00  0.00    +0.002 A 
ATOM     31  C   UNL     1      -5.125  -7.458   2.591  0.00  0.00    +0.002 A 
ATOM     32  C   UNL     1      -4.763  -8.196   1.522  0.00  0.00    +0.027 A 
ATOM     33  C   UNL     1      -4.173  -7.534   0.351  0.00  0.00    +0.060 A 
ATOM     34  N   UNL     1      -3.741  -7.979  -0.793  0.00  0.00    -0.363 N 
ATOM     35  H   UNL     1      -3.246  -4.729  -0.939  0.00  0.00    +0.162 HD
ATOM     36  H   UNL     1      -3.739  -8.904  -1.085  0.00  0.00    +0.162 HD
ENDBRANCH  25  26
ENDBRANCH  24  25
ENDBRANCH   5  24
TORSDOF 7
