REMARK  Name = ZINC04151395
REMARK  6 active torsions:
REMARK  status: ('A' for Active; 'I' for Inactive)
REMARK    1  A    between atoms: C_1  and  O_2
REMARK    2  A    between atoms: O_2  and  C_3
REMARK    3  A    between atoms: C_7  and  O_9
REMARK    4  A    between atoms: O_9  and  C_10
REMARK    5  A    between atoms: C_12  and  C_21
REMARK    6  A    between atoms: C_25  and  N_27
REMARK                            x       y       z     vdW  Elec       q    Type
REMARK                         _______ _______ _______ _____ _____    ______ ____
ROOT
ATOM      1  C   UNL     1      -2.774   2.402  -2.818  0.00  0.00    +0.124 A 
ATOM      2  C   UNL     1      -1.505   2.959  -2.778  0.00  0.00    +0.052 A 
ATOM      3  C   UNL     1      -0.572   2.513  -1.865  0.00  0.00    -0.012 A 
ATOM      4  C   UNL     1      -0.892   1.500  -0.960  0.00  0.00    +0.074 A 
ATOM      5  C   UNL     1      -2.175   0.941  -1.013  0.00  0.00    +0.145 A 
ATOM      6  C   UNL     1      -3.104   1.388  -1.932  0.00  0.00    +0.093 A 
ATOM      7  N   UNL     1      -0.012   1.005   0.008  0.00  0.00    -0.334 N 
ATOM      8  C   UNL     1       1.355   1.551  -0.003  0.00  0.00    +0.105 C 
ATOM      9  C   UNL     1       1.240   3.028  -0.315  0.00  0.00    +0.029 C 
ATOM     10  C   UNL     1       0.794   3.080  -1.810  0.00  0.00    +0.049 C 
ATOM     11  C   UNL     1       1.090   4.481  -2.199  0.00  0.00    -0.023 C 
ATOM     12  C   UNL     1       2.099   4.922  -1.456  0.00  0.00    -0.030 C 
ATOM     13  C   UNL     1       2.534   3.835  -0.469  0.00  0.00    +0.033 C 
ATOM     14  H   UNL     1       0.002  -0.004   0.002  0.00  0.00    +0.147 HD
ENDROOT
BRANCH   8  15
ATOM     15  C   UNL     1       1.995   1.360   1.348  0.00  0.00    -0.025 A 
ATOM     16  C   UNL     1       1.254   1.557   2.499  0.00  0.00    +0.005 A 
ATOM     17  C   UNL     1       1.839   1.376   3.737  0.00  0.00    +0.003 A 
ATOM     18  C   UNL     1       3.169   1.010   3.827  0.00  0.00    +0.033 A 
ATOM     19  C   UNL     1       3.912   0.817   2.677  0.00  0.00    +0.127 A 
ATOM     20  C   UNL     1       3.325   0.992   1.437  0.00  0.00    +0.038 A 
BRANCH  19  21
ATOM     21  N   UNL     1       5.336   0.424   2.772  0.00  0.00    +0.056 N 
ATOM     22  O   UNL     1       5.990   0.255   1.759  0.00  0.00    -0.126 OA
ATOM     23  O   UNL     1       5.853   0.270   3.864  0.00  0.00    -0.126 OA
ENDBRANCH  19  21
ENDBRANCH   8  15
BRANCH   1  25
ATOM     24  C   UNL     1      -4.975   2.226  -3.701  0.00  0.00    +0.277 C 
ATOM     25  O   UNL     1      -3.689   2.848  -3.720  0.00  0.00    -0.495 OA
ENDBRANCH   1  25
BRANCH   5  26
ATOM     26  O   UNL     1      -2.510  -0.054  -0.149  0.00  0.00    -0.493 OA
ATOM     27  C   UNL     1      -3.833  -0.584  -0.251  0.00  0.00    +0.277 C 
ENDBRANCH   5  26
TORSDOF 4
