REMARK  Name = ZINC37385353
REMARK  11 active torsions:
REMARK  status: ('A' for Active; 'I' for Inactive)
REMARK    1  A    between atoms: C_1  and  C_2
REMARK    2  A    between atoms: C_2  and  O_3
REMARK    3  A    between atoms: O_3  and  C_4
REMARK    4  A    between atoms: C_4  and  C_5
REMARK    5  A    between atoms: C_5  and  O_6
REMARK    6  A    between atoms: O_6  and  C_7
REMARK    7  A    between atoms: C_9  and  C_29
REMARK    8  A    between atoms: N_10  and  C_12
REMARK    9  A    between atoms: C_15  and  N_18
REMARK   10  A    between atoms: N_18  and  S_19
REMARK   11  A    between atoms: S_19  and  C_22
REMARK                            x       y       z     vdW  Elec       q    Type
REMARK                         _______ _______ _______ _____ _____    ______ ____
ROOT
ATOM      1  C   UNL     1      -8.050  -2.046  -2.853  0.00  0.00    +0.068 A 
ATOM      2  C   UNL     1      -9.231  -1.646  -2.240  0.00  0.00    +0.030 A 
ATOM      3  C   UNL     1     -10.361  -1.420  -3.000  0.00  0.00    +0.029 A 
ATOM      4  C   UNL     1     -10.317  -1.591  -4.378  0.00  0.00    +0.074 A 
ATOM      5  C   UNL     1      -9.136  -1.991  -4.991  0.00  0.00    +0.029 A 
ATOM      6  C   UNL     1      -8.005  -2.212  -4.232  0.00  0.00    +0.030 A 
ENDROOT
BRANCH   1  10
ATOM      7  C   UNL     1      -4.829  -2.281  -1.395  0.00  0.00    +0.338 A 
ATOM      8  N   UNL     1      -5.573  -2.936  -0.505  0.00  0.00    -0.171 NA
ATOM      9  C   UNL     1      -6.835  -2.947  -0.899  0.00  0.00    +0.202 A 
ATOM     10  N   UNL     1      -6.904  -2.275  -2.082  0.00  0.00    -0.207 N 
ATOM     11  N   UNL     1      -5.595  -1.855  -2.371  0.00  0.00    -0.108 NA
BRANCH   9  12
ATOM     12  C   UNL     1      -7.961  -3.571  -0.188  0.00  0.00    +0.172 A 
ATOM     13  C   UNL     1      -7.967  -3.957   1.119  0.00  0.00    +0.053 A 
ATOM     14  C   UNL     1      -9.240  -4.500   1.375  0.00  0.00    +0.042 A 
ATOM     15  C   UNL     1      -9.942  -4.422   0.226  0.00  0.00    +0.196 A 
ATOM     16  O   UNL     1      -9.169  -3.856  -0.714  0.00  0.00    -0.460 OA
ENDBRANCH   9  12
BRANCH   7  17
ATOM     17  O   UNL     1      -3.489  -2.081  -1.303  0.00  0.00    -0.459 OA
BRANCH  17  18
ATOM     18  C   UNL     1      -2.828  -2.626  -0.159  0.00  0.00    +0.260 C 
BRANCH  18  19
ATOM     19  C   UNL     1      -1.334  -2.301  -0.231  0.00  0.00    +0.201 C 
BRANCH  19  20
ATOM     20  O   UNL     1      -1.149  -0.887  -0.137  0.00  0.00    -0.377 OA
BRANCH  20  22
ATOM     21  C   UNL     1       0.297   1.048  -0.084  0.00  0.00    +0.034 C 
ATOM     22  C   UNL     1       0.218  -0.476  -0.193  0.00  0.00    +0.156 C 
ENDBRANCH  20  22
ENDBRANCH  19  20
ENDBRANCH  18  19
ENDBRANCH  17  18
ENDBRANCH   7  17
ENDBRANCH   1  10
BRANCH   4  23
ATOM     23  N   UNL     1     -11.462  -1.362  -5.148  0.00  0.00    -0.098 NA
BRANCH  23  24
ATOM     24  S   UNL     1     -11.409  -1.567  -6.790  0.00  0.00    +0.092 S 
ATOM     25  O   UNL     1     -10.534  -0.568  -7.296  0.00  0.00    -0.148 OA
ATOM     26  O   UNL     1     -11.197  -2.953  -7.021  0.00  0.00    -0.148 OA
BRANCH  24  27
ATOM     27  C   UNL     1     -13.015  -1.192  -7.413  0.00  0.00    +0.110 A 
ATOM     28  C   UNL     1     -13.964  -2.191  -7.520  0.00  0.00    +0.030 A 
ATOM     29  C   UNL     1     -15.224  -1.899  -8.008  0.00  0.00    +0.022 A 
ATOM     30  C   UNL     1     -15.534  -0.606  -8.391  0.00  0.00    +0.041 A 
ATOM     31  C   UNL     1     -14.583   0.394  -8.284  0.00  0.00    +0.022 A 
ATOM     32  C   UNL     1     -13.325   0.101  -7.790  0.00  0.00    +0.030 A 
ATOM     33 CL   UNL     1     -17.115  -0.237  -9.005  0.00  0.00    -0.084 Cl
ENDBRANCH  24  27
ENDBRANCH  23  24
ENDBRANCH   4  23
TORSDOF 10
