REMARK  Name = ZINC27749804
REMARK  7 active torsions:
REMARK  status: ('A' for Active; 'I' for Inactive)
REMARK    1  A    between atoms: C_1  and  C_2
REMARK    2  A    between atoms: C_5  and  C_8
REMARK    3  A    between atoms: C_8  and  C_10
REMARK    4  A    between atoms: C_12  and  C_24
REMARK    5  A    between atoms: C_18  and  C_19
REMARK    6  A    between atoms: C_18  and  O_23
REMARK    7  A    between atoms: C_27  and  C_29
REMARK                            x       y       z     vdW  Elec       q    Type
REMARK                         _______ _______ _______ _____ _____    ______ ____
ROOT
ATOM      1  C   UNL     1      -3.095   1.450   1.444  0.00  0.00    +0.147 C 
ATOM      2  C   UNL     1      -2.534   1.381   0.019  0.00  0.00    +0.156 C 
ATOM      3  N   UNL     1      -3.340   2.233  -0.857  0.00  0.00    -0.289 N 
ATOM      4  C   UNL     1      -4.638   2.460  -0.608  0.00  0.00    +0.302 C 
ATOM      5  O   UNL     1      -5.264   3.168  -1.374  0.00  0.00    -0.253 OA
ATOM      6  N   UNL     1      -5.274   1.938   0.451  0.00  0.00    -0.264 N 
ATOM      7  C   UNL     1      -4.579   1.068   1.403  0.00  0.00    +0.243 C 
ATOM      8  H   UNL     1      -2.882   2.702  -1.740  0.00  0.00    +0.151 HD
ATOM      9  H   UNL     1      -6.338   2.174   0.598  0.00  0.00    +0.153 HD
ENDROOT
BRANCH   2  10
ATOM     10  C   UNL     1      -1.107   1.862   0.017  0.00  0.00    +0.127 A 
ATOM     11  C   UNL     1      -0.013   1.076   0.008  0.00  0.00    +0.047 A 
ATOM     12  C   UNL     1       1.109   1.929   0.002  0.00  0.00    +0.050 A 
ATOM     13  C   UNL     1       0.633   3.202   0.013  0.00  0.00    +0.135 A 
ATOM     14  O   UNL     1      -0.713   3.146   0.026  0.00  0.00    -0.458 OA
BRANCH  13  15
ATOM     15  C   UNL     1       1.449   4.434   0.012  0.00  0.00    +0.017 A 
ATOM     16  C   UNL     1       2.843   4.351   0.003  0.00  0.00    +0.014 A 
ATOM     17  C   UNL     1       3.600   5.503  -0.005  0.00  0.00    +0.039 A 
ATOM     18  C   UNL     1       2.980   6.743   0.008  0.00  0.00    +0.123 A 
ATOM     19  C   UNL     1       1.597   6.832   0.023  0.00  0.00    +0.039 A 
ATOM     20  C   UNL     1       0.830   5.685   0.024  0.00  0.00    +0.014 A 
ATOM     21  F   UNL     1       3.727   7.869   0.006  0.00  0.00    -0.205 F 
ENDBRANCH  13  15
ENDBRANCH   2  10
BRANCH   7  22
ATOM     22  C   UNL     1      -4.719  -0.390   0.959  0.00  0.00    +0.436 C 
ATOM     23  F   UNL     1      -4.156  -0.546  -0.312  0.00  0.00    -0.166 F 
ATOM     24  F   UNL     1      -4.056  -1.220   1.869  0.00  0.00    -0.166 F 
ATOM     25  F   UNL     1      -6.074  -0.736   0.915  0.00  0.00    -0.166 F 
ENDBRANCH   7  22
BRANCH   1  26
ATOM     26  C   UNL     1      -2.949   2.851   1.978  0.00  0.00    +0.173 C 
ATOM     27  O   UNL     1      -3.871   3.633   1.889  0.00  0.00    -0.292 OA
BRANCH  26  32
ATOM     28  C   UNL     1       1.982   4.488   4.439  0.00  0.00    +0.044 C 
ATOM     29  C   UNL     1       0.689   4.059   3.794  0.00  0.00    -0.050 A 
ATOM     30  C   UNL     1      -0.361   4.955   3.694  0.00  0.00    +0.004 A 
ATOM     31  C   UNL     1      -1.547   4.570   3.105  0.00  0.00    +0.011 A 
ATOM     32  C   UNL     1      -1.687   3.270   2.608  0.00  0.00    +0.018 A 
ATOM     33  C   UNL     1      -0.623   2.369   2.718  0.00  0.00    +0.011 A 
ATOM     34  C   UNL     1       0.559   2.771   3.304  0.00  0.00    +0.004 A 
ENDBRANCH  26  32
ENDBRANCH   1  26
BRANCH   7  35
ATOM     35  O   UNL     1      -5.152   1.229   2.702  0.00  0.00    -0.364 OA
ATOM     36  H   UNL     1      -6.215   1.001   2.867  0.00  0.00    +0.212 HD
ENDBRANCH   7  35
TORSDOF 6
