REMARK  Name = ZINC42041223
REMARK  2 active torsions:
REMARK  status: ('A' for Active; 'I' for Inactive)
REMARK    1  A    between atoms: C_1  and  C_2
REMARK    2  A    between atoms: C_11  and  O_13
REMARK                            x       y       z     vdW  Elec       q    Type
REMARK                         _______ _______ _______ _____ _____    ______ ____
ROOT
ATOM      1  C   UNL     1      -0.018   1.503   0.010  0.00  0.00    +0.046 C 
ATOM      2  C   UNL     1       0.002  -0.004   0.002  0.00  0.00    -0.028 A 
ATOM      3  C   UNL     1       0.006  -0.686  -1.198  0.00  0.00    +0.020 A 
ATOM      4  C   UNL     1       0.024  -2.069  -1.216  0.00  0.00    +0.019 A 
ATOM      5  C   UNL     1       0.039  -2.773  -0.023  0.00  0.00    +0.023 A 
ATOM      6  C   UNL     1       0.036  -2.095   1.175  0.00  0.00    +0.012 A 
ATOM      7  C   UNL     1       0.023  -0.706   1.206  0.00  0.00    +0.043 A 
ATOM      8  N   UNL     1       0.029  -0.253   2.526  0.00  0.00    -0.283 N 
ATOM      9  C   UNL     1       0.051  -1.264   3.410  0.00  0.00    +0.250 C 
ATOM     10  O   UNL     1       0.061  -1.163   4.619  0.00  0.00    -0.272 OA
ATOM     11  C   UNL     1       0.049  -2.552   2.615  0.00  0.00    +0.232 C 
ATOM     12 BR   UNL     1       0.028  -2.996  -2.864  0.00  0.00    -0.050 Br
ATOM     13  H   UNL     1       0.019   0.685   2.776  0.00  0.00    +0.155 HD
ENDROOT
BRANCH  11  14
ATOM     14  O   UNL     1      -1.114  -3.330   2.904  0.00  0.00    -0.378 OA
ATOM     15  H   UNL     1      -1.157  -3.650   3.815  0.00  0.00    +0.211 HD
ENDBRANCH  11  14
TORSDOF 1
