REMARK  Name = ZINC01631527
REMARK  12 active torsions:
REMARK  status: ('A' for Active; 'I' for Inactive)
REMARK    1  A    between atoms: C_1  and  O_2
REMARK    2  A    between atoms: O_2  and  C_3
REMARK    3  A    between atoms: C_7  and  O_11
REMARK    4  A    between atoms: C_8  and  O_9
REMARK    5  A    between atoms: O_9  and  C_10
REMARK    6  A    between atoms: O_11  and  C_12
REMARK    7  A    between atoms: C_16  and  S_35
REMARK    8  A    between atoms: C_21  and  N_63
REMARK    9  A    between atoms: C_25  and  C_26
REMARK   10  A    between atoms: C_25  and  N_63
REMARK   11  A    between atoms: C_30  and  N_32
REMARK   12  A    between atoms: S_35  and  C_36
REMARK                            x       y       z     vdW  Elec       q    Type
REMARK                         _______ _______ _______ _____ _____    ______ ____
ROOT
ATOM      1  C   UNL     1       7.042  -3.492  -0.313  0.00  0.00    +0.165 A 
ATOM      2  C   UNL     1       6.425  -3.062  -1.482  0.00  0.00    +0.054 A 
ATOM      3  C   UNL     1       6.283  -1.712  -1.730  0.00  0.00    -0.033 A 
ATOM      4  C   UNL     1       6.750  -0.782  -0.807  0.00  0.00    +0.031 A 
ATOM      5  C   UNL     1       7.377  -1.208   0.368  0.00  0.00    +0.173 A 
ATOM      6  C   UNL     1       7.521  -2.569   0.610  0.00  0.00    +0.204 A 
ATOM      7  C   UNL     1       6.569   0.678  -1.061  0.00  0.00    -0.012 A 
ATOM      8  C   UNL     1       7.674   1.475  -0.894  0.00  0.00    +0.010 A 
ATOM      9  C   UNL     1       7.884   2.792  -1.066  0.00  0.00    +0.019 A 
ATOM     10  C   UNL     1       7.014   3.744  -1.509  0.00  0.00    +0.054 A 
ATOM     11  C   UNL     1       5.688   3.519  -1.872  0.00  0.00    +0.192 A 
ATOM     12  O   UNL     1       5.087   4.487  -2.318  0.00  0.00    -0.287 OA
ATOM     13  C   UNL     1       4.971   2.361  -1.794  0.00  0.00    +0.054 A 
ATOM     14  C   UNL     1       5.295   1.105  -1.437  0.00  0.00    -0.050 A 
ATOM     15  C   UNL     1       4.170   0.090  -1.452  0.00  0.00    -0.039 C 
ATOM     16  C   UNL     1       4.205  -0.768  -2.700  0.00  0.00    -0.007 C 
ATOM     17  C   UNL     1       5.625  -1.242  -3.002  0.00  0.00    +0.035 C 
ENDROOT
BRANCH  15  18
ATOM     18  N   UNL     1       2.884   0.810  -1.397  0.00  0.00    +0.386 N 
ATOM     19  H   UNL     1       2.646   1.151  -2.336  0.00  0.00    -0.085 HD
ATOM     20  H   UNL     1       2.968   1.606  -0.755  0.00  0.00    -0.085 HD
BRANCH  18  21
ATOM     21  C   UNL     1       1.815  -0.088  -0.921  0.00  0.00    -0.046 C 
BRANCH  21  22
ATOM     22  C   UNL     1       0.515   0.672  -0.875  0.00  0.00    -0.062 A 
ATOM     23  C   UNL     1       0.148   1.346   0.275  0.00  0.00    +0.002 A 
ATOM     24  C   UNL     1      -1.044   2.044   0.316  0.00  0.00    +0.002 A 
ATOM     25  C   UNL     1      -1.870   2.068  -0.792  0.00  0.00    +0.033 A 
ATOM     26  C   UNL     1      -1.502   1.398  -1.943  0.00  0.00    +0.126 A 
ATOM     27  C   UNL     1      -0.311   0.696  -1.983  0.00  0.00    +0.034 A 
BRANCH  26  28
ATOM     28  N   UNL     1      -2.383   1.428  -3.132  0.00  0.00    +0.056 N 
ATOM     29  O   UNL     1      -2.060   0.835  -4.145  0.00  0.00    -0.126 OA
ATOM     30  O   UNL     1      -3.432   2.047  -3.097  0.00  0.00    -0.126 OA
ENDBRANCH  26  28
ENDBRANCH  21  22
ENDBRANCH  18  21
ENDBRANCH  15  18
BRANCH   1  32
ATOM     31  C   UNL     1       6.666  -5.718  -1.061  0.00  0.00    +0.277 C 
ATOM     32  O   UNL     1       7.179  -4.822  -0.072  0.00  0.00    -0.491 OA
ENDBRANCH   1  32
BRANCH   6  33
ATOM     33  O   UNL     1       8.128  -2.997   1.750  0.00  0.00    -0.488 OA
ATOM     34  C   UNL     1       9.554  -3.092   1.728  0.00  0.00    +0.277 C 
ENDBRANCH   6  33
BRANCH   5  35
ATOM     35  O   UNL     1       7.841  -0.299   1.265  0.00  0.00    -0.491 OA
ATOM     36  C   UNL     1       6.977   0.039   2.352  0.00  0.00    +0.277 C 
ENDBRANCH   5  35
BRANCH  10  37
ATOM     37  S   UNL     1       7.617   5.395  -1.633  0.00  0.00    -0.125 S 
ATOM     38  C   UNL     1       9.320   5.151  -1.068  0.00  0.00    +0.090 C 
ENDBRANCH  10  37
TORSDOF 8
