REMARK  Name = ZINC10689299
REMARK  9 active torsions:
REMARK  status: ('A' for Active; 'I' for Inactive)
REMARK    1  A    between atoms: C_1  and  C_2
REMARK    2  A    between atoms: C_5  and  C_8
REMARK    3  A    between atoms: C_8  and  O_9
REMARK    4  A    between atoms: O_9  and  C_10
REMARK    5  A    between atoms: C_10  and  C_12
REMARK    6  A    between atoms: C_12  and  N_13
REMARK    7  A    between atoms: N_13  and  S_14
REMARK    8  A    between atoms: S_14  and  C_17
REMARK    9  A    between atoms: C_20  and  N_23
REMARK                            x       y       z     vdW  Elec       q    Type
REMARK                         _______ _______ _______ _____ _____    ______ ____
ROOT
ATOM      1  S   UNL     1      -1.673  -2.095  -0.364  0.00  0.00    +0.059 S 
ATOM      2  O   UNL     1      -3.075  -2.297  -0.253  0.00  0.00    -0.153 OA
ATOM      3  O   UNL     1      -0.960  -2.352  -1.566  0.00  0.00    -0.153 OA
ENDROOT
BRANCH   1   4
ATOM      4  C   UNL     1      -0.921  -3.081   0.888  0.00  0.00    +0.105 A 
ATOM      5  C   UNL     1       0.389  -3.498   0.744  0.00  0.00    +0.030 A 
ATOM      6  C   UNL     1       0.983  -4.266   1.726  0.00  0.00    +0.025 A 
ATOM      7  C   UNL     1       0.260  -4.628   2.854  0.00  0.00    +0.036 A 
ATOM      8  C   UNL     1      -1.058  -4.212   2.994  0.00  0.00    +0.025 A 
ATOM      9  C   UNL     1      -1.645  -3.440   2.010  0.00  0.00    +0.030 A 
BRANCH   7  10
ATOM     10  N   UNL     1       0.857  -5.410   3.849  0.00  0.00    -0.271 N 
ATOM     11  C   UNL     1       0.225  -5.745   5.130  0.00  0.00    +0.114 C 
ATOM     12  C   UNL     1       1.375  -6.222   6.045  0.00  0.00    +0.029 C 
ATOM     13  C   UNL     1       2.411  -6.724   5.013  0.00  0.00    +0.098 C 
ATOM     14  C   UNL     1       2.081  -5.957   3.751  0.00  0.00    +0.220 C 
ATOM     15  O   UNL     1       2.816  -5.848   2.792  0.00  0.00    -0.275 OA
ENDBRANCH   7  10
ENDBRANCH   1   4
BRANCH   1  16
ATOM     16  N   UNL     1      -1.391  -0.510   0.024  0.00  0.00    -0.179 NA
ATOM     17  H   UNL     1      -2.132   0.073   0.249  0.00  0.00    +0.149 HD
BRANCH  16  18
ATOM     18  C   UNL     1      -0.021   0.010   0.027  0.00  0.00    +0.226 C 
BRANCH  18  19
ATOM     19  C   UNL     1      -0.057   1.516   0.044  0.00  0.00    +0.323 C 
ATOM     20  O   UNL     1      -1.117   2.096   0.048  0.00  0.00    -0.249 OA
BRANCH  19  21
ATOM     21  O   UNL     1       1.090   2.215   0.050  0.00  0.00    -0.459 OA
BRANCH  21  22
ATOM     22  C   UNL     1       0.980   3.662   0.066  0.00  0.00    +0.267 C 
BRANCH  22  27
ATOM     23  C   UNL     1       6.266   5.996   0.082  0.00  0.00    +0.044 C 
ATOM     24  C   UNL     1       4.887   5.388   0.078  0.00  0.00    -0.050 A 
ATOM     25  C   UNL     1       4.253   5.121  -1.121  0.00  0.00    +0.004 A 
ATOM     26  C   UNL     1       2.989   4.563  -1.125  0.00  0.00    +0.007 A 
ATOM     27  C   UNL     1       2.358   4.271   0.070  0.00  0.00    -0.010 A 
ATOM     28  C   UNL     1       2.991   4.542   1.269  0.00  0.00    +0.007 A 
ATOM     29  C   UNL     1       4.257   5.096   1.273  0.00  0.00    +0.004 A 
ENDBRANCH  22  27
ENDBRANCH  21  22
ENDBRANCH  19  21
ENDBRANCH  18  19
ENDBRANCH  16  18
ENDBRANCH   1  16
TORSDOF 8
