REMARK  Name = ZINC03771784
REMARK  15 active torsions:
REMARK  status: ('A' for Active; 'I' for Inactive)
REMARK    1  A    between atoms: C_1  and  C_2
REMARK    2  A    between atoms: C_5  and  C_8
REMARK    3  A    between atoms: C_8  and  N_9
REMARK    4  A    between atoms: N_9  and  C_10
REMARK    5  A    between atoms: C_10  and  C_12
REMARK    6  A    between atoms: C_10  and  C_19
REMARK    7  A    between atoms: N_21  and  C_22
REMARK    8  A    between atoms: C_25  and  N_28
REMARK    9  A    between atoms: N_28  and  C_29
REMARK   10  A    between atoms: N_28  and  C_30
REMARK   11  A    between atoms: C_31  and  C_33
REMARK   12  A    between atoms: C_33  and  S_34
REMARK   13  A    between atoms: S_34  and  C_35
REMARK   14  A    between atoms: C_37  and  C_42
REMARK   15  A    between atoms: C_39  and  C_41
REMARK                            x       y       z     vdW  Elec       q    Type
REMARK                         _______ _______ _______ _____ _____    ______ ____
ROOT
ATOM      1  N   UNL     1       4.029   5.638  -0.652  0.00  0.00    -0.281 N 
ATOM      2  C   UNL     1       3.468   4.417  -0.752  0.00  0.00    +0.227 C 
ATOM      3  O   UNL     1       2.262   4.298  -0.715  0.00  0.00    -0.275 OA
ENDROOT
BRANCH   1   4
ATOM      4  C   UNL     1       5.439   5.828  -1.002  0.00  0.00    +0.144 C 
BRANCH   4   9
ATOM      5  C   UNL     1       5.881   7.029  -6.637  0.00  0.00    +0.044 C 
ATOM      6  C   UNL     1       5.766   6.715  -5.168  0.00  0.00    -0.050 A 
ATOM      7  C   UNL     1       6.482   7.455  -4.245  0.00  0.00    +0.003 A 
ATOM      8  C   UNL     1       6.376   7.168  -2.897  0.00  0.00    +0.005 A 
ATOM      9  C   UNL     1       5.554   6.141  -2.472  0.00  0.00    -0.030 A 
ATOM     10  C   UNL     1       4.841   5.399  -3.394  0.00  0.00    +0.005 A 
ATOM     11  C   UNL     1       4.943   5.689  -4.742  0.00  0.00    +0.003 A 
ENDBRANCH   4   9
ENDBRANCH   1   4
BRANCH   1  12
ATOM     12  C   UNL     1       3.228   6.776  -0.194  0.00  0.00    +0.193 C 
BRANCH  12  13
ATOM     13  C   UNL     1       2.819   6.557   1.240  0.00  0.00    -0.018 A 
ATOM     14  C   UNL     1       3.751   6.129   2.167  0.00  0.00    +0.007 A 
ATOM     15  C   UNL     1       3.377   5.934   3.483  0.00  0.00    +0.020 A 
ATOM     16  C   UNL     1       2.068   6.155   3.871  0.00  0.00    +0.041 A 
ATOM     17  C   UNL     1       1.134   6.578   2.941  0.00  0.00    +0.020 A 
ATOM     18  C   UNL     1       1.510   6.778   1.627  0.00  0.00    +0.007 A 
ATOM     19 CL   UNL     1       1.596   5.902   5.522  0.00  0.00    -0.084 Cl
ENDBRANCH  12  13
BRANCH  12  20
ATOM     20  C   UNL     1       4.045   8.039  -0.296  0.00  0.00    +0.242 C 
ATOM     21  O   UNL     1       5.056   8.054  -0.965  0.00  0.00    -0.273 OA
ATOM     22  N   UNL     1       3.651   9.150   0.356  0.00  0.00    -0.284 N 
ATOM     23  H   UNL     1       2.831   9.144   0.875  0.00  0.00    +0.155 HD
BRANCH  22  24
ATOM     24  C   UNL     1       4.426  10.316   0.286  0.00  0.00    +0.034 A 
ATOM     25  C   UNL     1       5.780  10.269   0.590  0.00  0.00    +0.025 A 
ATOM     26  C   UNL     1       6.545  11.416   0.515  0.00  0.00    +0.025 A 
ATOM     27  C   UNL     1       5.957  12.619   0.145  0.00  0.00    +0.029 A 
ATOM     28  C   UNL     1       4.602  12.667  -0.154  0.00  0.00    +0.025 A 
ATOM     29  C   UNL     1       3.839  11.519  -0.084  0.00  0.00    +0.025 A 
BRANCH  27  30
ATOM     30  N   UNL     1       6.731  13.782   0.074  0.00  0.00    -0.336 N 
ATOM     31  C   UNL     1       6.112  15.051  -0.317  0.00  0.00    +0.129 C 
ATOM     32  C   UNL     1       8.161  13.731   0.389  0.00  0.00    +0.129 C 
ENDBRANCH  27  30
ENDBRANCH  22  24
ENDBRANCH  12  20
ENDBRANCH   1  12
BRANCH   2  33
ATOM     33  C   UNL     1       4.341   3.198  -0.910  0.00  0.00    +0.173 C 
BRANCH  33  34
ATOM     34  S   UNL     1       3.322   1.707  -0.785  0.00  0.00    -0.077 S 
BRANCH  34  35
ATOM     35  C   UNL     1       4.561   0.472  -0.999  0.00  0.00    +0.189 A 
ATOM     36  N   UNL     1       4.212  -0.807  -0.972  0.00  0.00    -0.227 NA
ATOM     37  C   UNL     1       5.117  -1.758  -1.129  0.00  0.00    +0.043 A 
ATOM     38  C   UNL     1       6.443  -1.405  -1.323  0.00  0.00    +0.046 A 
ATOM     39  C   UNL     1       6.774  -0.059  -1.346  0.00  0.00    +0.043 A 
ATOM     40  N   UNL     1       5.820   0.843  -1.183  0.00  0.00    -0.227 NA
ATOM     41  C   UNL     1       8.203   0.372  -1.554  0.00  0.00    +0.066 C 
ATOM     42  C   UNL     1       4.711  -3.209  -1.096  0.00  0.00    +0.066 C 
ENDBRANCH  34  35
ENDBRANCH  33  34
ENDBRANCH   2  33
TORSDOF 10
