REMARK  Name = ZINC14544217
REMARK  7 active torsions:
REMARK  status: ('A' for Active; 'I' for Inactive)
REMARK    1  A    between atoms: C_1  and  O_2
REMARK    2  A    between atoms: O_2  and  C_3
REMARK    3  A    between atoms: C_12  and  C_13
REMARK    4  A    between atoms: C_24  and  S_29
REMARK    5  A    between atoms: S_29  and  N_32
REMARK    6  A    between atoms: N_32  and  C_33
REMARK    7  A    between atoms: C_33  and  C_34
REMARK                            x       y       z     vdW  Elec       q    Type
REMARK                         _______ _______ _______ _____ _____    ______ ____
ROOT
ATOM      1  C   UNL     1       2.335   5.446   0.008  0.00  0.00    +0.109 C 
ATOM      2  C   UNL     1       2.588   5.967   1.411  0.00  0.00    +0.029 C 
ATOM      3  C   UNL     1       1.691   5.425   2.532  0.00  0.00    +0.033 C 
ATOM      4  C   UNL     1       2.622   5.515   3.743  0.00  0.00    -0.030 C 
ATOM      5  C   UNL     1       3.888   5.458   3.347  0.00  0.00    -0.023 C 
ATOM      6  C   UNL     1       3.917   5.294   1.871  0.00  0.00    +0.049 C 
ATOM      7  C   UNL     1       5.013   5.843   1.044  0.00  0.00    -0.018 A 
ATOM      8  C   UNL     1       6.280   6.058   1.542  0.00  0.00    +0.034 A 
ATOM      9  C   UNL     1       7.275   6.560   0.725  0.00  0.00    +0.106 A 
ATOM     10  C   UNL     1       7.002   6.849  -0.600  0.00  0.00    +0.030 A 
ATOM     11  C   UNL     1       5.735   6.643  -1.107  0.00  0.00    +0.025 A 
ATOM     12  C   UNL     1       4.726   6.144  -0.292  0.00  0.00    +0.031 A 
ATOM     13  N   UNL     1       3.440   5.977  -0.820  0.00  0.00    -0.336 N 
ATOM     14  H   UNL     1       3.270   6.214  -1.745  0.00  0.00    +0.147 HD
ENDROOT
BRANCH   1  24
ATOM     15  C   UNL     1       3.527   3.270  -0.221  0.00  0.00    +0.126 A 
ATOM     16  C   UNL     1       3.563   1.872  -0.231  0.00  0.00    +0.046 A 
ATOM     17  C   UNL     1       2.435   1.142  -0.022  0.00  0.00    +0.012 A 
ATOM     18  C   UNL     1       1.213   1.798   0.208  0.00  0.00    -0.017 A 
ATOM     19  C   UNL     1       0.028   1.074   0.427  0.00  0.00    +0.008 A 
ATOM     20  C   UNL     1      -1.139   1.741   0.641  0.00  0.00    +0.001 A 
ATOM     21  C   UNL     1      -1.177   3.134   0.658  0.00  0.00    +0.001 A 
ATOM     22  C   UNL     1      -0.050   3.868   0.450  0.00  0.00    +0.009 A 
ATOM     23  C   UNL     1       1.174   3.214   0.220  0.00  0.00    -0.009 A 
ATOM     24  C   UNL     1       2.357   3.939   0.000  0.00  0.00    +0.022 A 
BRANCH  15  26
ATOM     25  C   UNL     1       5.863   3.217  -0.658  0.00  0.00    +0.277 C 
ATOM     26  O   UNL     1       4.671   3.972  -0.432  0.00  0.00    -0.495 OA
ENDBRANCH  15  26
ENDBRANCH   1  24
BRANCH   9  27
ATOM     27  S   UNL     1       8.892   6.832   1.371  0.00  0.00    +0.059 S 
ATOM     28  O   UNL     1       9.032   5.971   2.492  0.00  0.00    -0.153 OA
ATOM     29  O   UNL     1       9.783   6.793   0.264  0.00  0.00    -0.153 OA
BRANCH  27  30
ATOM     30  N   UNL     1       8.931   8.381   1.956  0.00  0.00    -0.186 NA
ATOM     31  H   UNL     1       9.511   9.040   1.544  0.00  0.00    +0.148 HD
BRANCH  30  32
ATOM     32  C   UNL     1       8.091   8.755   3.096  0.00  0.00    +0.141 C 
BRANCH  32  33
ATOM     33  C   UNL     1       8.566  10.069   3.660  0.00  0.00    -0.032 A 
ATOM     34  C   UNL     1       9.520  10.087   4.661  0.00  0.00    +0.005 A 
ATOM     35  C   UNL     1       9.959  11.292   5.175  0.00  0.00    +0.000 A 
ATOM     36  C   UNL     1       9.437  12.479   4.697  0.00  0.00    +0.000 A 
ATOM     37  C   UNL     1       8.479  12.461   3.700  0.00  0.00    +0.000 A 
ATOM     38  C   UNL     1       8.044  11.256   3.182  0.00  0.00    +0.005 A 
ENDBRANCH  32  33
ENDBRANCH  30  32
ENDBRANCH  27  30
ENDBRANCH   9  27
TORSDOF 6
