REMARK  Name = ZINC52619205
REMARK  7 active torsions:
REMARK  status: ('A' for Active; 'I' for Inactive)
REMARK    1  A    between atoms: C_8  and  C_10
REMARK    2  A    between atoms: C_12  and  C_20
REMARK    3  A    between atoms: C_20  and  C_21
REMARK    4  A    between atoms: C_21  and  N_22
REMARK    5  A    between atoms: N_22  and  S_23
REMARK    6  A    between atoms: S_23  and  C_26
REMARK    7  A    between atoms: C_29  and  C_32
REMARK                            x       y       z     vdW  Elec       q    Type
REMARK                         _______ _______ _______ _____ _____    ______ ____
ROOT
ATOM      1  C   UNL     1       3.799  -3.358  -0.053  0.00  0.00    +0.173 C 
ATOM      2  C   UNL     1       4.302  -3.629  -1.453  0.00  0.00    -0.030 C 
ATOM      3  C   UNL     1       5.652  -3.587  -1.381  0.00  0.00    -0.000 A 
ATOM      4  C   UNL     1       6.708  -3.768  -2.384  0.00  0.00    +0.010 A 
ATOM      5  C   UNL     1       8.001  -3.666  -2.002  0.00  0.00    +0.001 A 
ATOM      6  C   UNL     1       8.357  -3.391  -0.674  0.00  0.00    +0.002 A 
ATOM      7  C   UNL     1       7.444  -3.213   0.304  0.00  0.00    +0.026 A 
ATOM      8  C   UNL     1       6.055  -3.299   0.014  0.00  0.00    +0.043 A 
ATOM      9  N   UNL     1       4.994  -3.168   0.776  0.00  0.00    -0.371 N 
ATOM     10  H   UNL     1       4.999  -2.977   1.727  0.00  0.00    +0.161 HD
ENDROOT
BRANCH   1  18
ATOM     11  C   UNL     1      -0.017   1.363   0.009  0.00  0.00    +0.001 A 
ATOM     12  C   UNL     1       1.170   2.082   0.002  0.00  0.00    +0.004 A 
ATOM     13  C   UNL     1       2.386   1.432  -0.013  0.00  0.00    +0.047 A 
ATOM     14  C   UNL     1       2.427   0.043  -0.021  0.00  0.00    +0.135 A 
ATOM     15  C   UNL     1       1.222  -0.679  -0.013  0.00  0.00    +0.020 A 
ATOM     16  C   UNL     1       0.002  -0.004   0.002  0.00  0.00    +0.011 A 
ATOM     17  C   UNL     1       1.613  -2.093  -0.025  0.00  0.00    +0.055 A 
ATOM     18  C   UNL     1       2.952  -2.111  -0.038  0.00  0.00    +0.133 A 
ATOM     19  O   UNL     1       3.432  -0.855  -0.036  0.00  0.00    -0.457 OA
ENDBRANCH   1  18
BRANCH   2  20
ATOM     20  C   UNL     1       3.468  -3.893  -2.680  0.00  0.00    +0.051 C 
BRANCH  20  21
ATOM     21  C   UNL     1       4.388  -4.117  -3.883  0.00  0.00    +0.110 C 
BRANCH  21  22
ATOM     22  N   UNL     1       3.577  -4.373  -5.076  0.00  0.00    -0.190 NA
ATOM     23  H   UNL     1       2.637  -4.596  -4.985  0.00  0.00    +0.148 HD
BRANCH  22  24
ATOM     24  S   UNL     1       4.265  -4.283  -6.580  0.00  0.00    +0.058 S 
ATOM     25  O   UNL     1       3.244  -4.605  -7.514  0.00  0.00    -0.153 OA
ATOM     26  O   UNL     1       4.981  -3.056  -6.626  0.00  0.00    -0.153 OA
BRANCH  24  27
ATOM     27  C   UNL     1       5.465  -5.569  -6.681  0.00  0.00    +0.105 A 
ATOM     28  C   UNL     1       6.769  -5.328  -6.288  0.00  0.00    +0.029 A 
ATOM     29  C   UNL     1       7.713  -6.332  -6.366  0.00  0.00    +0.010 A 
ATOM     30  C   UNL     1       7.350  -7.591  -6.841  0.00  0.00    -0.018 A 
ATOM     31  C   UNL     1       6.035  -7.828  -7.236  0.00  0.00    +0.010 A 
ATOM     32  C   UNL     1       5.098  -6.818  -7.149  0.00  0.00    +0.029 A 
BRANCH  30  33
ATOM     33  C   UNL     1       8.360  -8.674  -6.928  0.00  0.00    -0.015 A 
ATOM     34  C   UNL     1       9.683  -8.455  -6.531  0.00  0.00    +0.028 A 
ATOM     35  C   UNL     1      10.590  -9.490  -6.628  0.00  0.00    +0.111 A 
ATOM     36  N   UNL     1      10.224 -10.671  -7.087  0.00  0.00    -0.263 NA
ATOM     37  C   UNL     1       8.986 -10.919  -7.471  0.00  0.00    +0.111 A 
ATOM     38  C   UNL     1       8.014  -9.942  -7.402  0.00  0.00    +0.028 A 
ENDBRANCH  30  33
ENDBRANCH  24  27
ENDBRANCH  22  24
ENDBRANCH  21  22
ENDBRANCH  20  21
ENDBRANCH   2  20
TORSDOF 7
