REMARK  Name = ZINC27604173
REMARK  7 active torsions:
REMARK  status: ('A' for Active; 'I' for Inactive)
REMARK    1  A    between atoms: C_7  and  C_11
REMARK    2  A    between atoms: C_11  and  C_12
REMARK    3  A    between atoms: C_12  and  C_13
REMARK    4  A    between atoms: N_15  and  C_16
REMARK    5  A    between atoms: C_16  and  C_17
REMARK    6  A    between atoms: C_17  and  C_19
REMARK    7  A    between atoms: C_17  and  N_24
REMARK                            x       y       z     vdW  Elec       q    Type
REMARK                         _______ _______ _______ _____ _____    ______ ____
ROOT
ATOM      1  C   UNL     1      -0.456  -4.979  -1.509  0.00  0.00    +0.213 C 
ATOM      2  O   UNL     1      -0.666  -5.588  -0.481  0.00  0.00    -0.276 OA
ATOM      3  N   UNL     1      -1.134  -5.294  -2.630  0.00  0.00    -0.317 N 
ATOM      4  H   UNL     1      -0.966  -4.806  -3.452  0.00  0.00    +0.149 HD
ENDROOT
BRANCH   1   5
ATOM      5  C   UNL     1       0.564  -3.869  -1.532  0.00  0.00    +0.100 C 
BRANCH   5   6
ATOM      6  C   UNL     1       1.183  -3.717  -0.141  0.00  0.00    +0.046 C 
BRANCH   6  13
ATOM      7  C   UNL     1       0.873   0.934   0.355  0.00  0.00    +0.001 A 
ATOM      8  C   UNL     1       2.103   1.571   0.260  0.00  0.00    +0.002 A 
ATOM      9  C   UNL     1       3.254   0.847   0.041  0.00  0.00    +0.026 A 
ATOM     10  C   UNL     1       3.187  -0.537  -0.087  0.00  0.00    +0.047 A 
ATOM     11  C   UNL     1       1.938  -1.177   0.011  0.00  0.00    +0.003 A 
ATOM     12  C   UNL     1       0.784  -0.424   0.233  0.00  0.00    +0.010 A 
ATOM     13  C   UNL     1       2.203  -2.608  -0.164  0.00  0.00    -0.022 A 
ATOM     14  C   UNL     1       3.526  -2.743  -0.347  0.00  0.00    +0.087 A 
ATOM     15  N   UNL     1       4.130  -1.516  -0.304  0.00  0.00    -0.360 N 
ATOM     16  H   UNL     1       5.081  -1.359  -0.411  0.00  0.00    +0.165 HD
ENDBRANCH   6  13
ENDBRANCH   5   6
ENDBRANCH   1   5
BRANCH   3  17
ATOM     17  C   UNL     1      -2.125  -6.372  -2.608  0.00  0.00    +0.094 C 
BRANCH  17  18
ATOM     18  C   UNL     1      -2.651  -6.611  -4.025  0.00  0.00    -0.013 C 
BRANCH  18  19
ATOM     19  N   UNL     1      -3.738  -7.598  -3.984  0.00  0.00    +0.386 N 
ATOM     20  C   UNL     1      -4.184  -7.904  -5.360  0.00  0.00    -0.078 C 
ATOM     21  C   UNL     1      -5.716  -8.106  -5.243  0.00  0.00    -0.020 C 
ATOM     22  C   UNL     1      -6.093  -7.037  -4.185  0.00  0.00    -0.020 C 
ATOM     23  C   UNL     1      -4.880  -7.047  -3.232  0.00  0.00    -0.078 C 
ATOM     24  H   UNL     1      -3.414  -8.443  -3.539  0.00  0.00    -0.081 HD
ENDBRANCH  18  19
BRANCH  18  25
ATOM     25  C   UNL     1      -1.534  -7.130  -4.894  0.00  0.00    -0.022 A 
ATOM     26  C   UNL     1      -0.761  -6.457  -5.782  0.00  0.00    +0.009 A 
ATOM     27  C   UNL     1       0.216  -7.146  -6.476  0.00  0.00    +0.008 A 
ATOM     28  C   UNL     1       0.372  -8.473  -6.248  0.00  0.00    +0.045 A 
ATOM     29  S   UNL     1      -0.881  -8.787  -5.016  0.00  0.00    -0.103 S 
ENDBRANCH  18  25
ENDBRANCH  17  18
ENDBRANCH   3  17
TORSDOF 7
