REMARK  Name = ZINC39768275
REMARK  6 active torsions:
REMARK  status: ('A' for Active; 'I' for Inactive)
REMARK    1  A    between atoms: C_8  and  C_10
REMARK    2  A    between atoms: C_13  and  S_16
REMARK    3  A    between atoms: S_16  and  C_17
REMARK    4  A    between atoms: C_17  and  C_18
REMARK    5  A    between atoms: N_20  and  C_21
REMARK    6  A    between atoms: C_21  and  C_22
REMARK                            x       y       z     vdW  Elec       q    Type
REMARK                         _______ _______ _______ _____ _____    ______ ____
ROOT
ATOM      1  C   UNL     1       3.796  -3.333  -0.052  0.00  0.00    +0.217 A 
ATOM      2  H   UNL     1       4.458  -6.384  -0.072  0.00  0.00    +0.191 HD
ATOM      3  N   UNL     1       5.138  -3.363  -0.065  0.00  0.00    -0.198 NA
ATOM      4  C   UNL     1       5.551  -4.611  -0.074  0.00  0.00    +0.185 A 
ATOM      5  N   UNL     1       4.463  -5.414  -0.068  0.00  0.00    -0.253 N 
ATOM      6  N   UNL     1       3.343  -4.568  -0.048  0.00  0.00    -0.148 NA
ENDROOT
BRANCH   1  14
ATOM      7  C   UNL     1      -0.017   1.363   0.009  0.00  0.00    +0.001 A 
ATOM      8  C   UNL     1       1.170   2.082   0.002  0.00  0.00    +0.004 A 
ATOM      9  C   UNL     1       2.387   1.432  -0.013  0.00  0.00    +0.047 A 
ATOM     10  C   UNL     1       2.429   0.044  -0.021  0.00  0.00    +0.136 A 
ATOM     11  C   UNL     1       1.224  -0.679  -0.013  0.00  0.00    +0.021 A 
ATOM     12  C   UNL     1       0.002  -0.004   0.002  0.00  0.00    +0.011 A 
ATOM     13  C   UNL     1       1.610  -2.092  -0.025  0.00  0.00    +0.061 A 
ATOM     14  C   UNL     1       2.964  -2.111  -0.038  0.00  0.00    +0.175 A 
ATOM     15  O   UNL     1       3.439  -0.850  -0.035  0.00  0.00    -0.452 OA
ENDBRANCH   1  14
BRANCH   4  16
ATOM     16  S   UNL     1       7.231  -5.145  -0.093  0.00  0.00    -0.077 S 
BRANCH  16  17
ATOM     17  C   UNL     1       8.182  -3.600  -0.095  0.00  0.00    +0.173 C 
BRANCH  17  18
ATOM     18  C   UNL     1       9.655  -3.917  -0.111  0.00  0.00    +0.224 C 
ATOM     19  O   UNL     1      10.027  -5.072  -0.121  0.00  0.00    -0.275 OA
ATOM     20  N   UNL     1      10.560  -2.918  -0.115  0.00  0.00    -0.308 N 
ATOM     21  H   UNL     1      10.262  -1.995  -0.108  0.00  0.00    +0.149 HD
BRANCH  20  22
ATOM     22  C   UNL     1      11.992  -3.227  -0.131  0.00  0.00    +0.178 C 
BRANCH  22  23
ATOM     23  C   UNL     1      12.782  -1.944  -0.132  0.00  0.00    +0.122 A 
ATOM     24  C   UNL     1      13.210  -1.282   0.958  0.00  0.00    +0.046 A 
ATOM     25  C   UNL     1      13.905  -0.140   0.498  0.00  0.00    +0.041 A 
ATOM     26  C   UNL     1      13.860  -0.172  -0.846  0.00  0.00    +0.195 A 
ATOM     27  O   UNL     1      13.184  -1.270  -1.222  0.00  0.00    -0.466 OA
ENDBRANCH  22  23
ENDBRANCH  20  22
ENDBRANCH  17  18
ENDBRANCH  16  17
ENDBRANCH   4  16
TORSDOF 6
