REMARK  Name = ZINC66536736
REMARK  7 active torsions:
REMARK  status: ('A' for Active; 'I' for Inactive)
REMARK    1  A    between atoms: C_1  and  C_2
REMARK    2  A    between atoms: C_2  and  N_3
REMARK    3  A    between atoms: N_6  and  C_7
REMARK    4  A    between atoms: C_10  and  O_13
REMARK    5  A    between atoms: O_13  and  C_14
REMARK    6  A    between atoms: C_14  and  C_16
REMARK    7  A    between atoms: C_19  and  N_22
REMARK                            x       y       z     vdW  Elec       q    Type
REMARK                         _______ _______ _______ _____ _____    ______ ____
ROOT
ATOM      1  C   UNL     1       1.661  -3.700   2.708  0.00  0.00    +0.075 C 
ATOM      2  C   UNL     1       0.415  -4.245   3.409  0.00  0.00    +0.026 C 
ATOM      3  C   UNL     1       0.236  -3.538   4.754  0.00  0.00    +0.046 C 
ATOM      4  C   UNL     1       1.465  -3.788   5.630  0.00  0.00    +0.177 C 
ATOM      5  C   UNL     1       2.711  -3.243   4.929  0.00  0.00    +0.046 C 
ATOM      6  C   UNL     1       2.890  -3.950   3.584  0.00  0.00    +0.026 C 
ENDROOT
BRANCH   1  10
ATOM      7  N   UNL     1       0.711  -0.489   1.189  0.00  0.00    -0.300 N 
ATOM      8  C   UNL     1       0.854  -1.814   1.394  0.00  0.00    +0.300 C 
ATOM      9  O   UNL     1       0.395  -2.606   0.593  0.00  0.00    -0.253 OA
ATOM     10  N   UNL     1       1.506  -2.260   2.486  0.00  0.00    -0.297 N 
ATOM     11  H   UNL     1       1.077   0.142   1.827  0.00  0.00    +0.150 HD
ATOM     12  H   UNL     1       1.872  -1.628   3.124  0.00  0.00    +0.151 HD
BRANCH   7  14
ATOM     13  C   UNL     1      -0.019   1.526   0.010  0.00  0.00    +0.024 C 
ATOM     14  C   UNL     1       0.002  -0.004   0.002  0.00  0.00    +0.102 C 
ENDBRANCH   7  14
ENDBRANCH   1  10
BRANCH   4  15
ATOM     15  O   UNL     1       1.298  -3.127   6.886  0.00  0.00    -0.458 OA
BRANCH  15  16
ATOM     16  C   UNL     1       1.895  -3.687   7.956  0.00  0.00    +0.339 C 
ATOM     17  O   UNL     1       2.540  -4.709   7.827  0.00  0.00    -0.245 OA
BRANCH  16  18
ATOM     18  C   UNL     1       1.765  -3.060   9.285  0.00  0.00    +0.059 A 
ATOM     19  C   UNL     1       1.019  -1.888   9.437  0.00  0.00    +0.017 A 
ATOM     20  C   UNL     1       0.900  -1.306  10.679  0.00  0.00    +0.028 A 
ATOM     21  C   UNL     1       1.522  -1.882  11.782  0.00  0.00    +0.065 A 
ATOM     22  C   UNL     1       2.266  -3.048  11.634  0.00  0.00    +0.028 A 
ATOM     23  C   UNL     1       2.384  -3.639  10.397  0.00  0.00    +0.017 A 
BRANCH  21  24
ATOM     24  N   UNL     1       1.399  -1.288  13.041  0.00  0.00    -0.240 N 
ATOM     25  C   UNL     1       1.955  -1.738  14.196  0.00  0.00    +0.114 A 
ATOM     26  C   UNL     1       1.598  -0.883  15.182  0.00  0.00    +0.041 A 
ATOM     27  C   UNL     1       0.801   0.119  14.618  0.00  0.00    +0.135 A 
ATOM     28  N   UNL     1       0.686  -0.118  13.336  0.00  0.00    -0.175 NA
ENDBRANCH  21  24
ENDBRANCH  16  18
ENDBRANCH  15  16
ENDBRANCH   4  15
TORSDOF 6
