REMARK  Name = ZINC32894176
REMARK  9 active torsions:
REMARK  status: ('A' for Active; 'I' for Inactive)
REMARK    1  A    between atoms: C_1  and  C_2
REMARK    2  A    between atoms: C_10  and  C_31
REMARK    3  A    between atoms: C_11  and  C_12
REMARK    4  A    between atoms: C_12  and  C_13
REMARK    5  A    between atoms: N_15  and  C_16
REMARK    6  A    between atoms: C_21  and  C_22
REMARK    7  A    between atoms: C_22  and  N_23
REMARK    8  A    between atoms: N_23  and  C_24
REMARK    9  A    between atoms: N_23  and  C_25
REMARK                            x       y       z     vdW  Elec       q    Type
REMARK                         _______ _______ _______ _____ _____    ______ ____
ROOT
ATOM      1  C   UNL     1       1.325  -0.131  -3.356  0.00  0.00    +0.222 C 
ATOM      2  O   UNL     1       2.213  -0.901  -3.060  0.00  0.00    -0.275 OA
ATOM      3  N   UNL     1       1.597   0.957  -4.103  0.00  0.00    -0.285 N 
ATOM      4  H   UNL     1       0.779   1.607  -4.448  0.00  0.00    +0.155 HD
ENDROOT
BRANCH   3   5
ATOM      5  C   UNL     1       2.921   1.261  -4.441  0.00  0.00    +0.035 A 
ATOM      6  C   UNL     1       3.964   0.809  -3.642  0.00  0.00    +0.023 A 
ATOM      7  C   UNL     1       5.269   1.110  -3.978  0.00  0.00    +0.002 A 
ATOM      8  C   UNL     1       5.538   1.861  -5.108  0.00  0.00    +0.000 A 
ATOM      9  C   UNL     1       4.502   2.312  -5.904  0.00  0.00    +0.003 A 
ATOM     10  C   UNL     1       3.195   2.009  -5.577  0.00  0.00    -0.043 A 
BRANCH  10  11
ATOM     11  C   UNL     1       2.067   2.497  -6.450  0.00  0.00    -0.041 C 
BRANCH  11  12
ATOM     12  N   UNL     1       1.466   3.696  -5.850  0.00  0.00    +0.382 N 
ATOM     13  C   UNL     1       2.417   4.816  -5.849  0.00  0.00    -0.095 C 
ATOM     14  H   UNL     1       1.218   3.462  -4.804  0.00  0.00    -0.081 HD
BRANCH  12  15
ATOM     15  C   UNL     1       0.222   4.062  -6.538  0.00  0.00    -0.069 C 
ATOM     16  C   UNL     1       0.536   4.467  -7.980  0.00  0.00    -0.015 C 
ATOM     17  C   UNL     1      -0.761   4.848  -8.697  0.00  0.00    -0.002 C 
ATOM     18  C   UNL     1      -1.420   6.022  -7.969  0.00  0.00    -0.000 C 
ATOM     19  C   UNL     1      -1.734   5.617  -6.528  0.00  0.00    -0.002 C 
ATOM     20  C   UNL     1      -0.438   5.235  -5.811  0.00  0.00    -0.015 C 
ENDBRANCH  12  15
ENDBRANCH  11  12
ENDBRANCH  10  11
ENDBRANCH   3   5
BRANCH   1  21
ATOM     21  C   UNL     1      -0.084  -0.390  -2.888  0.00  0.00    +0.133 C 
BRANCH  21  32
ATOM     22  C   UNL     1       0.331  -0.304  -0.025  0.00  0.00    +0.045 C 
ATOM     23  C   UNL     1       0.078  -1.613  -0.726  0.00  0.00    -0.036 A 
ATOM     24  C   UNL     1       0.032  -2.822  -0.007  0.00  0.00    +0.002 A 
ATOM     25  C   UNL     1       0.218  -2.853   1.385  0.00  0.00    +0.010 A 
ATOM     26  C   UNL     1       0.167  -4.043   2.045  0.00  0.00    +0.001 A 
ATOM     27  C   UNL     1      -0.070  -5.231   1.358  0.00  0.00    +0.002 A 
ATOM     28  C   UNL     1      -0.257  -5.239   0.010  0.00  0.00    +0.026 A 
ATOM     29  C   UNL     1      -0.210  -4.030  -0.707  0.00  0.00    +0.047 A 
ATOM     30  N   UNL     1      -0.389  -4.006  -2.032  0.00  0.00    -0.358 N 
ATOM     31  C   UNL     1      -0.347  -2.882  -2.705  0.00  0.00    +0.017 A 
ATOM     32  C   UNL     1      -0.119  -1.659  -2.077  0.00  0.00    -0.016 A 
ATOM     33  C   UNL     1      -0.557  -2.912  -4.197  0.00  0.00    +0.063 C 
ATOM     34  H   UNL     1      -0.577  -4.942  -2.578  0.00  0.00    +0.166 HD
ENDBRANCH  21  32
ENDBRANCH   1  21
TORSDOF 6
