REMARK  Name = ZINC20709990
REMARK  9 active torsions:
REMARK  status: ('A' for Active; 'I' for Inactive)
REMARK    1  A    between atoms: C_1  and  C_2
REMARK    2  A    between atoms: C_2  and  O_3
REMARK    3  A    between atoms: O_3  and  C_4
REMARK    4  A    between atoms: C_4  and  C_5
REMARK    5  A    between atoms: C_5  and  O_6
REMARK    6  A    between atoms: O_6  and  C_7
REMARK    7  A    between atoms: C_14  and  C_23
REMARK    8  A    between atoms: C_25  and  N_30
REMARK    9  A    between atoms: C_28  and  O_29
REMARK                            x       y       z     vdW  Elec       q    Type
REMARK                         _______ _______ _______ _____ _____    ______ ____
ROOT
ATOM      1  C   UNL     1      -0.174   1.143   2.373  0.00  0.00    +0.142 A 
ATOM      2  C   UNL     1       0.961   0.354   2.410  0.00  0.00    +0.047 A 
ATOM      3  C   UNL     1       1.517   0.009   3.628  0.00  0.00    +0.004 A 
ATOM      4  C   UNL     1       0.934   0.441   4.801  0.00  0.00    +0.006 A 
ATOM      5  C   UNL     1      -0.212   1.227   4.777  0.00  0.00    -0.016 A 
ATOM      6  C   UNL     1      -0.767   1.580   3.562  0.00  0.00    +0.074 A 
ATOM      7  N   UNL     1      -1.915   2.373   3.469  0.00  0.00    -0.334 N 
ATOM      8  C   UNL     1      -2.757   2.266   4.661  0.00  0.00    +0.109 C 
ATOM      9  C   UNL     1      -1.947   2.668   5.895  0.00  0.00    +0.029 C 
ATOM     10  C   UNL     1      -0.797   1.657   6.090  0.00  0.00    +0.049 C 
ATOM     11  C   UNL     1      -1.450   0.487   6.791  0.00  0.00    -0.023 C 
ATOM     12  C   UNL     1      -2.560   0.864   7.374  0.00  0.00    -0.030 C 
ATOM     13  C   UNL     1      -2.802   2.344   7.152  0.00  0.00    +0.033 C 
ATOM     14  H   UNL     1      -2.219   3.024   2.636  0.00  0.00    +0.147 HD
ENDROOT
BRANCH   8  15
ATOM     15  C   UNL     1      -3.945   3.183   4.519  0.00  0.00    +0.017 A 
ATOM     16  C   UNL     1      -5.212   2.724   4.827  0.00  0.00    +0.041 A 
ATOM     17  C   UNL     1      -6.302   3.566   4.702  0.00  0.00    +0.127 A 
ATOM     18  C   UNL     1      -6.128   4.865   4.259  0.00  0.00    +0.036 A 
ATOM     19  C   UNL     1      -4.865   5.326   3.946  0.00  0.00    +0.048 A 
ATOM     20  C   UNL     1      -3.769   4.485   4.075  0.00  0.00    +0.122 A 
BRANCH  17  21
ATOM     21  N   UNL     1      -7.657   3.075   5.037  0.00  0.00    +0.056 N 
ATOM     22  O   UNL     1      -8.618   3.814   4.923  0.00  0.00    -0.126 OA
ATOM     23  O   UNL     1      -7.811   1.931   5.428  0.00  0.00    -0.126 OA
ENDBRANCH  17  21
BRANCH  20  24
ATOM     24  O   UNL     1      -2.524   4.936   3.767  0.00  0.00    -0.506 OA
ATOM     25  H   UNL     1      -2.385   5.969   3.415  0.00  0.00    +0.292 HD
ENDBRANCH  20  24
ENDBRANCH   8  15
BRANCH   1  26
ATOM     26  O   UNL     1      -0.720   1.489   1.177  0.00  0.00    -0.488 OA
BRANCH  26  27
ATOM     27  C   UNL     1      -0.065   1.008   0.001  0.00  0.00    +0.257 C 
BRANCH  27  28
ATOM     28  C   UNL     1      -0.818   1.496  -1.238  0.00  0.00    +0.200 C 
BRANCH  28  29
ATOM     29  O   UNL     1      -0.735   2.921  -1.315  0.00  0.00    -0.377 OA
BRANCH  29  31
ATOM     30  C   UNL     1      -1.256   5.004  -2.424  0.00  0.00    +0.034 C 
ATOM     31  C   UNL     1      -1.410   3.482  -2.443  0.00  0.00    +0.156 C 
ENDBRANCH  29  31
ENDBRANCH  28  29
ENDBRANCH  27  28
ENDBRANCH  26  27
ENDBRANCH   1  26
TORSDOF 8
