REMARK  Name = ZINC12652720
REMARK  9 active torsions:
REMARK  status: ('A' for Active; 'I' for Inactive)
REMARK    1  A    between atoms: C_1  and  C_2
REMARK    2  A    between atoms: C_2  and  O_3
REMARK    3  A    between atoms: O_3  and  C_4
REMARK    4  A    between atoms: C_9  and  S_10
REMARK    5  A    between atoms: S_10  and  N_13
REMARK    6  A    between atoms: N_13  and  C_14
REMARK    7  A    between atoms: C_17  and  S_20
REMARK    8  A    between atoms: S_20  and  N_23
REMARK    9  A    between atoms: N_23  and  C_24
REMARK                            x       y       z     vdW  Elec       q    Type
REMARK                         _______ _______ _______ _____ _____    ______ ____
ROOT
ATOM      1  N   UNL     1      -1.367   2.135  -0.051  0.00  0.00    -0.216 N 
ATOM      2  H   UNL     1      -2.125   1.930  -0.621  0.00  0.00    +0.174 HD
ENDROOT
BRANCH   1   3
ATOM      3  C   UNL     1      -0.157   1.462  -0.231  0.00  0.00    +0.048 A 
ATOM      4  C   UNL     1       1.036   2.172  -0.263  0.00  0.00    +0.026 A 
ATOM      5  C   UNL     1       2.231   1.505  -0.447  0.00  0.00    +0.030 A 
ATOM      6  C   UNL     1       2.241   0.130  -0.598  0.00  0.00    +0.105 A 
ATOM      7  C   UNL     1       1.055  -0.580  -0.566  0.00  0.00    +0.030 A 
ATOM      8  C   UNL     1      -0.143   0.081  -0.383  0.00  0.00    +0.026 A 
BRANCH   6   9
ATOM      9  S   UNL     1       3.768  -0.718  -0.832  0.00  0.00    +0.059 S 
ATOM     10  O   UNL     1       4.781   0.111  -0.278  0.00  0.00    -0.153 OA
ATOM     11  O   UNL     1       3.559  -2.056  -0.402  0.00  0.00    -0.153 OA
BRANCH   9  12
ATOM     12  N   UNL     1       4.047  -0.782  -2.463  0.00  0.00    -0.187 NA
ATOM     13  H   UNL     1       4.059  -1.637  -2.919  0.00  0.00    +0.148 HD
BRANCH  12  14
ATOM     14  C   UNL     1       4.276   0.454  -3.216  0.00  0.00    +0.077 C 
ATOM     15  C   UNL     1       3.767   0.507  -4.657  0.00  0.00    +0.022 C 
ATOM     16  C   UNL     1       5.268   0.398  -4.380  0.00  0.00    +0.022 C 
ENDBRANCH  12  14
ENDBRANCH   9  12
ENDBRANCH   6   9
ENDBRANCH   1   3
BRANCH   1  17
ATOM     17  S   UNL     1      -1.510   3.282   1.135  0.00  0.00    +0.076 S 
ATOM     18  O   UNL     1      -2.846   3.760   1.079  0.00  0.00    -0.150 OA
ATOM     19  O   UNL     1      -0.950   2.719   2.313  0.00  0.00    -0.150 OA
BRANCH  17  25
ATOM     20  C   UNL     1      -0.749   5.365  -0.465  0.00  0.00    +0.147 A 
ATOM     21  C   UNL     1       0.069   6.428  -0.820  0.00  0.00    +0.049 A 
ATOM     22  C   UNL     1       1.157   6.754  -0.033  0.00  0.00    +0.019 A 
ATOM     23  C   UNL     1       1.430   6.022   1.109  0.00  0.00    +0.020 A 
ATOM     24  C   UNL     1       0.613   4.965   1.467  0.00  0.00    +0.047 A 
ATOM     25  C   UNL     1      -0.472   4.632   0.680  0.00  0.00    +0.151 A 
ATOM     26 BR   UNL     1       2.919   6.471   2.184  0.00  0.00    -0.050 Br
BRANCH  20  27
ATOM     27  O   UNL     1      -1.820   5.042  -1.237  0.00  0.00    -0.490 OA
BRANCH  27  29
ATOM     28  C   UNL     1      -3.411   5.459  -3.008  0.00  0.00    +0.048 C 
ATOM     29  C   UNL     1      -2.112   5.909  -2.335  0.00  0.00    +0.226 C 
ENDBRANCH  27  29
ENDBRANCH  20  27
ENDBRANCH  17  25
ENDBRANCH   1  17
TORSDOF 8
