REMARK  Name = ZINC04541964
REMARK  6 active torsions:
REMARK  status: ('A' for Active; 'I' for Inactive)
REMARK    1  A    between atoms: C_1  and  C_2
REMARK    2  A    between atoms: C_3  and  C_22
REMARK    3  A    between atoms: C_4  and  C_10
REMARK    4  A    between atoms: C_13  and  C_15
REMARK    5  A    between atoms: C_22  and  O_24
REMARK    6  A    between atoms: O_24  and  C_25
REMARK                            x       y       z     vdW  Elec       q    Type
REMARK                         _______ _______ _______ _____ _____    ______ ____
ROOT
ATOM      1  C   UNL     1       0.150   5.280   0.029  0.00  0.00    +0.061 C 
ATOM      2  C   UNL     1       0.023   3.779   0.022  0.00  0.00    +0.019 C 
ATOM      3  C   UNL     1      -1.205   3.216   0.029  0.00  0.00    +0.081 C 
ATOM      4  C   UNL     1      -1.286   1.702   0.017  0.00  0.00    +0.177 C 
ATOM      5  N   UNL     1      -0.011   0.966   0.007  0.00  0.00    -0.312 N 
ATOM      6  C   UNL     1       1.137   1.671   0.000  0.00  0.00    +0.135 C 
ATOM      7  S   UNL     1       2.627   0.828  -0.018  0.00  0.00    -0.019 S 
ATOM      8  N   UNL     1       1.151   3.010   0.007  0.00  0.00    -0.300 N 
ATOM      9  H   UNL     1       0.002  -0.004   0.002  0.00  0.00    +0.149 HD
ATOM     10  H   UNL     1       2.011   3.459   0.001  0.00  0.00    +0.154 HD
ENDROOT
BRANCH   4  11
ATOM     11  C   UNL     1      -2.061   1.273   1.236  0.00  0.00    +0.131 A 
ATOM     12  C   UNL     1      -3.390   1.052   1.285  0.00  0.00    +0.047 A 
ATOM     13  C   UNL     1      -3.696   0.670   2.606  0.00  0.00    +0.050 A 
ATOM     14  C   UNL     1      -2.526   0.678   3.298  0.00  0.00    +0.136 A 
ATOM     15  O   UNL     1      -1.542   1.041   2.453  0.00  0.00    -0.457 OA
BRANCH  14  16
ATOM     16  C   UNL     1      -2.361   0.342   4.728  0.00  0.00    +0.031 A 
ATOM     17  C   UNL     1      -1.382  -0.569   5.125  0.00  0.00    +0.012 A 
ATOM     18  C   UNL     1      -1.233  -0.878   6.462  0.00  0.00    +0.001 A 
ATOM     19  C   UNL     1      -2.052  -0.287   7.407  0.00  0.00    +0.001 A 
ATOM     20  C   UNL     1      -3.024   0.618   7.021  0.00  0.00    +0.016 A 
ATOM     21  C   UNL     1      -3.181   0.940   5.688  0.00  0.00    +0.029 A 
ATOM     22 BR   UNL     1      -4.506   2.182   5.162  0.00  0.00    -0.050 Br
ENDBRANCH  14  16
ENDBRANCH   4  11
BRANCH   3  23
ATOM     23  C   UNL     1      -2.374   4.011   0.043  0.00  0.00    +0.339 C 
ATOM     24  O   UNL     1      -2.284   5.224   0.049  0.00  0.00    -0.245 OA
BRANCH  23  25
ATOM     25  O   UNL     1      -3.589   3.424   0.051  0.00  0.00    -0.465 OA
ATOM     26  C   UNL     1      -4.727   4.288   0.065  0.00  0.00    +0.280 C 
ENDBRANCH  23  25
ENDBRANCH   3  23
TORSDOF 4
