REMARK  Name = ZINC02359883
REMARK  5 active torsions:
REMARK  status: ('A' for Active; 'I' for Inactive)
REMARK    1  A    between atoms: C_4  and  C_7
REMARK    2  A    between atoms: C_8  and  C_9
REMARK    3  A    between atoms: N_11  and  C_12
REMARK    4  A    between atoms: C_15  and  C_29
REMARK    5  A    between atoms: C_18  and  C_22
REMARK                            x       y       z     vdW  Elec       q    Type
REMARK                         _______ _______ _______ _____ _____    ______ ____
ROOT
ATOM      1  C   UNL     1       6.200  -4.714  -0.084  0.00  0.00    +0.241 C 
ATOM      2  N   UNL     1       7.382  -4.153  -0.087  0.00  0.00    -0.140 NA
ATOM      3  N   UNL     1       8.347  -5.162  -0.103  0.00  0.00    -0.180 N 
ATOM      4  C   UNL     1       9.816  -5.149  -0.113  0.00  0.00    +0.156 C 
ATOM      5  C   UNL     1      10.502  -6.502  -0.131  0.00  0.00    +0.030 C 
ATOM      6  C   UNL     1       9.715  -7.596  -0.135  0.00  0.00    +0.073 C 
ATOM      7  N   UNL     1       8.363  -7.498  -0.126  0.00  0.00    -0.217 NA
ATOM      8  C   UNL     1       7.701  -6.364  -0.110  0.00  0.00    +0.211 C 
ATOM      9  N   UNL     1       6.356  -6.088  -0.092  0.00  0.00    -0.254 N 
ATOM     10  H   UNL     1       5.641  -6.742  -0.089  0.00  0.00    +0.158 HD
ENDROOT
BRANCH   6  11
ATOM     11  C   UNL     1      10.344  -8.940  -0.152  0.00  0.00    +0.000 A 
ATOM     12  C   UNL     1      11.732  -9.062  -0.158  0.00  0.00    +0.011 A 
ATOM     13  C   UNL     1      12.312 -10.314  -0.173  0.00  0.00    +0.020 A 
ATOM     14  C   UNL     1      11.517 -11.448  -0.183  0.00  0.00    +0.041 A 
ATOM     15  C   UNL     1      10.137 -11.331  -0.178  0.00  0.00    +0.020 A 
ATOM     16  C   UNL     1       9.548 -10.084  -0.158  0.00  0.00    +0.011 A 
ATOM     17 CL   UNL     1      12.252 -13.020  -0.203  0.00  0.00    -0.084 Cl
ENDBRANCH   6  11
BRANCH   4  18
ATOM     18  C   UNL     1      10.268  -4.381  -1.328  0.00  0.00    -0.021 A 
ATOM     19  C   UNL     1       9.600  -4.530  -2.529  0.00  0.00    +0.006 A 
ATOM     20  C   UNL     1      10.014  -3.826  -3.643  0.00  0.00    +0.000 A 
ATOM     21  C   UNL     1      11.097  -2.970  -3.557  0.00  0.00    +0.000 A 
ATOM     22  C   UNL     1      11.765  -2.820  -2.356  0.00  0.00    +0.000 A 
ATOM     23  C   UNL     1      11.347  -3.521  -1.240  0.00  0.00    +0.006 A 
ENDBRANCH   4  18
BRANCH   1  26
ATOM     24  C   UNL     1       4.991  -2.738  -0.061  0.00  0.00    +0.273 C 
ATOM     25  O   UNL     1       6.152  -2.042  -0.069  0.00  0.00    -0.266 OA
ATOM     26  N   UNL     1       5.013  -4.055  -0.068  0.00  0.00    -0.174 NA
BRANCH  24  28
ATOM     27  C   UNL     1       3.691  -0.679  -0.037  0.00  0.00    +0.013 C 
ATOM     28  C   UNL     1       3.714  -2.029  -0.045  0.00  0.00    +0.073 C 
BRANCH  27  32
ATOM     29  C   UNL     1      -0.017   1.380   0.010  0.00  0.00    +0.000 A 
ATOM     30  C   UNL     1       1.168   2.095   0.002  0.00  0.00    +0.001 A 
ATOM     31  C   UNL     1       2.377   1.433  -0.013  0.00  0.00    +0.008 A 
ATOM     32  C   UNL     1       2.405   0.035  -0.021  0.00  0.00    -0.025 A 
ATOM     33  C   UNL     1       1.203  -0.681  -0.013  0.00  0.00    +0.008 A 
ATOM     34  C   UNL     1       0.002  -0.004   0.002  0.00  0.00    +0.001 A 
ENDBRANCH  27  32
ENDBRANCH  24  28
ENDBRANCH   1  26
TORSDOF 5
