REMARK  Name = ZINC65074637
REMARK  4 active torsions:
REMARK  status: ('A' for Active; 'I' for Inactive)
REMARK    1  A    between atoms: C_3  and  S_8
REMARK    2  A    between atoms: S_8  and  N_11
REMARK    3  A    between atoms: N_22  and  C_23
REMARK    4  A    between atoms: C_23  and  C_24
REMARK                            x       y       z     vdW  Elec       q    Type
REMARK                         _______ _______ _______ _____ _____    ______ ____
ROOT
ATOM      1  N   UNL     1       4.326   2.557   1.556  0.00  0.00    -0.176 NA
ATOM      2  C   UNL     1       3.871   3.749   2.285  0.00  0.00    +0.111 C 
ATOM      3  C   UNL     1       5.091   4.459   2.880  0.00  0.00    +0.047 C 
ATOM      4  C   UNL     1       5.886   3.469   3.735  0.00  0.00    +0.075 C 
ATOM      5  C   UNL     1       6.380   2.318   2.853  0.00  0.00    +0.047 C 
ATOM      6  C   UNL     1       5.171   1.581   2.259  0.00  0.00    +0.111 C 
ATOM      7  C   UNL     1       7.063   4.170   4.352  0.00  0.00    +0.089 C 
ATOM      8  N   UNL     1       7.107   4.534   5.577  0.00  0.00    -0.374 N 
ATOM      9  C   UNL     1       6.026   4.304   6.530  0.00  0.00    +0.129 C 
ATOM     10  C   UNL     1       4.729   3.977   5.786  0.00  0.00    +0.102 C 
ATOM     11  N   UNL     1       5.015   2.931   4.790  0.00  0.00    -0.303 NA
ATOM     12  N   UNL     1       8.148   4.434   3.558  0.00  0.00    -0.329 N 
ATOM     13  H   UNL     1       4.161   2.561   4.400  0.00  0.00    +0.123 HD
ATOM     14  H   UNL     1       8.143   4.169   2.625  0.00  0.00    +0.147 HD
ATOM     15  H   UNL     1       7.904   4.988   5.891  0.00  0.00    +0.161 HD
ENDROOT
BRANCH   1  16
ATOM     16  S   UNL     1       3.891   2.315  -0.023  0.00  0.00    +0.061 S 
ATOM     17  O   UNL     1       4.872   1.456  -0.588  0.00  0.00    -0.153 OA
ATOM     18  O   UNL     1       3.597   3.595  -0.564  0.00  0.00    -0.153 OA
BRANCH  16  21
ATOM     19  C   UNL     1      -0.017   1.380   0.010  0.00  0.00    +0.040 A 
ATOM     20  C   UNL     1       1.171   2.087   0.002  0.00  0.00    +0.031 A 
ATOM     21  C   UNL     1       2.377   1.412  -0.013  0.00  0.00    +0.106 A 
ATOM     22  C   UNL     1       2.397   0.030  -0.021  0.00  0.00    +0.031 A 
ATOM     23  C   UNL     1       1.211  -0.679  -0.014  0.00  0.00    +0.040 A 
ATOM     24  C   UNL     1       0.002  -0.004   0.002  0.00  0.00    +0.124 A 
ATOM     25  F   UNL     1      -1.158  -0.696   0.009  0.00  0.00    -0.205 F 
ENDBRANCH  16  21
ENDBRANCH   1  16
BRANCH  12  26
ATOM     26  C   UNL     1       9.317   5.116   4.120  0.00  0.00    +0.138 C 
BRANCH  26  27
ATOM     27  C   UNL     1      10.363   5.285   3.048  0.00  0.00    -0.029 A 
ATOM     28  C   UNL     1      11.314   4.301   2.851  0.00  0.00    +0.008 A 
ATOM     29  C   UNL     1      12.274   4.453   1.868  0.00  0.00    +0.040 A 
ATOM     30  C   UNL     1      12.284   5.591   1.081  0.00  0.00    +0.142 A 
ATOM     31  C   UNL     1      11.331   6.577   1.279  0.00  0.00    +0.076 A 
ATOM     32  C   UNL     1      10.368   6.420   2.260  0.00  0.00    +0.028 A 
ATOM     33 CL   UNL     1      11.341   8.006   0.293  0.00  0.00    -0.081 Cl
ATOM     34  F   UNL     1      13.222   5.742   0.121  0.00  0.00    -0.204 F 
ENDBRANCH  26  27
ENDBRANCH  12  26
TORSDOF 4
