REMARK  Name = ZINC19330437
REMARK  5 active torsions:
REMARK  status: ('A' for Active; 'I' for Inactive)
REMARK    1  A    between atoms: C_1  and  C_2
REMARK    2  A    between atoms: N_4  and  C_5
REMARK    3  A    between atoms: C_8  and  S_11
REMARK    4  A    between atoms: S_11  and  N_14
REMARK    5  A    between atoms: N_18  and  C_21
REMARK                            x       y       z     vdW  Elec       q    Type
REMARK                         _______ _______ _______ _____ _____    ______ ____
ROOT
ATOM      1  N   UNL     1      -0.857  -7.064   1.771  0.00  0.00    -0.097 NA
ATOM      2  C   UNL     1      -0.810  -8.289   2.215  0.00  0.00    +0.202 C 
ATOM      3  N   UNL     1      -0.597  -9.371   1.371  0.00  0.00    -0.303 N 
ATOM      4  C   UNL     1      -1.390 -10.585   1.629  0.00  0.00    +0.193 C 
ATOM      5  N   UNL     1      -1.306 -10.909   3.061  0.00  0.00    -0.268 NA
ATOM      6  C   UNL     1      -1.774  -9.783   3.885  0.00  0.00    +0.193 C 
ATOM      7  N   UNL     1      -0.964  -8.593   3.560  0.00  0.00    -0.303 N 
ATOM      8  H   UNL     1      -0.558  -8.048   4.253  0.00  0.00    +0.150 HD
ATOM      9  H   UNL     1       0.044  -9.329   0.645  0.00  0.00    +0.150 HD
ENDROOT
BRANCH   5  10
ATOM     10  C   UNL     1      -2.057 -12.134   3.369  0.00  0.00    +0.060 C 
ATOM     11  C   UNL     1      -3.447 -12.030   2.802  0.00  0.00    +0.019 C 
ATOM     12  C   UNL     1      -4.495 -12.740   3.679  0.00  0.00    +0.002 C 
ATOM     13  C   UNL     1      -4.004 -14.097   4.219  0.00  0.00    +0.000 C 
ATOM     14  C   UNL     1      -3.256 -14.891   3.183  0.00  0.00    +0.000 C 
ATOM     15  C   UNL     1      -1.748 -14.606   3.341  0.00  0.00    +0.002 C 
ATOM     16  C   UNL     1      -1.354 -13.347   2.726  0.00  0.00    +0.019 C 
ENDBRANCH   5  10
BRANCH   1  17
ATOM     17  S   UNL     1      -0.666  -6.760   0.154  0.00  0.00    +0.102 S 
ATOM     18  O   UNL     1      -1.790  -7.332  -0.501  0.00  0.00    -0.146 OA
ATOM     19  O   UNL     1       0.669  -7.119  -0.172  0.00  0.00    -0.146 OA
BRANCH  17  23
ATOM     20  C   UNL     1      -0.979  -2.278  -0.413  0.00  0.00    +0.033 A 
ATOM     21  C   UNL     1       0.256  -2.864  -0.167  0.00  0.00    +0.025 A 
ATOM     22  C   UNL     1       0.348  -4.231   0.006  0.00  0.00    +0.031 A 
ATOM     23  C   UNL     1      -0.788  -5.016  -0.066  0.00  0.00    +0.113 A 
ATOM     24  C   UNL     1      -2.019  -4.436  -0.311  0.00  0.00    +0.031 A 
ATOM     25  C   UNL     1      -2.118  -3.069  -0.479  0.00  0.00    +0.025 A 
BRANCH  20  29
ATOM     26  C   UNL     1      -2.212   1.274  -0.224  0.00  0.00    +0.109 C 
ATOM     27  C   UNL     1      -2.155  -0.230  -0.130  0.00  0.00    +0.214 C 
ATOM     28  O   UNL     1      -3.082  -0.842   0.357  0.00  0.00    -0.276 OA
ATOM     29  N   UNL     1      -1.075  -0.893  -0.588  0.00  0.00    -0.286 N 
ATOM     30  H   UNL     1      -0.365  -0.411  -1.039  0.00  0.00    +0.155 HD
ENDBRANCH  20  29
ENDBRANCH  17  23
ENDBRANCH   1  17
TORSDOF 4
