REMARK  Name = ZINC03316945
REMARK  8 active torsions:
REMARK  status: ('A' for Active; 'I' for Inactive)
REMARK    1  A    between atoms: C_9  and  C_10
REMARK    2  A    between atoms: C_9  and  C_12
REMARK    3  A    between atoms: C_12  and  C_14
REMARK    4  A    between atoms: C_14  and  O_15
REMARK    5  A    between atoms: O_15  and  C_16
REMARK    6  A    between atoms: C_16  and  C_18
REMARK    7  A    between atoms: C_18  and  O_19
REMARK    8  A    between atoms: O_19  and  C_20
REMARK                            x       y       z     vdW  Elec       q    Type
REMARK                         _______ _______ _______ _____ _____    ______ ____
ROOT
ATOM      1  C   UNL     1      -8.436   1.168   0.047  0.00  0.00    +0.214 C 
ATOM      2  O   UNL     1      -8.451   2.383   0.054  0.00  0.00    -0.288 OA
ENDROOT
BRANCH   1  11
ATOM      3  C   UNL     1     -15.144   2.741   0.086  0.00  0.00    +0.002 A 
ATOM      4  C   UNL     1     -14.466   3.949   0.090  0.00  0.00    +0.002 A 
ATOM      5  C   UNL     1     -13.086   3.974   0.084  0.00  0.00    +0.025 A 
ATOM      6  C   UNL     1     -12.374   2.782   0.074  0.00  0.00    +0.054 A 
ATOM      7  C   UNL     1     -13.057   1.564   0.070  0.00  0.00    +0.054 A 
ATOM      8  C   UNL     1     -14.445   1.551   0.076  0.00  0.00    +0.025 A 
ATOM      9  N   UNL     1     -12.098   0.557   0.060  0.00  0.00    -0.300 N 
ATOM     10  C   UNL     1     -10.871   1.139   0.058  0.00  0.00    +0.114 C 
ATOM     11  C   UNL     1      -9.644   0.450   0.048  0.00  0.00    +0.133 C 
ATOM     12  N   UNL     1     -11.015   2.489   0.072  0.00  0.00    -0.300 N 
ATOM     13  H   UNL     1     -12.276  -0.396   0.055  0.00  0.00    +0.153 HD
ATOM     14  H   UNL     1     -10.294   3.137   0.078  0.00  0.00    +0.153 HD
BRANCH  11  15
ATOM     15  C   UNL     1      -9.627  -0.982   0.040  0.00  0.00    +0.106 C 
ATOM     16  N   UNL     1      -9.613  -2.117   0.033  0.00  0.00    -0.191 NA
ENDBRANCH  11  15
ENDBRANCH   1  11
BRANCH   1  17
ATOM     17  C   UNL     1      -7.122   0.431   0.036  0.00  0.00    +0.312 C 
BRANCH  17  18
ATOM     18  O   UNL     1      -6.030   1.388   0.037  0.00  0.00    -0.454 OA
BRANCH  18  19
ATOM     19  C   UNL     1      -4.783   0.890   0.029  0.00  0.00    +0.346 C 
ATOM     20  O   UNL     1      -4.610  -0.306   0.021  0.00  0.00    -0.247 OA
BRANCH  19  21
ATOM     21  C   UNL     1      -3.600   1.823   0.029  0.00  0.00    +0.349 C 
BRANCH  21  22
ATOM     22  O   UNL     1      -2.392   1.060   0.019  0.00  0.00    -0.481 OA
BRANCH  22  23
ATOM     23  C   UNL     1      -1.223   1.754   0.017  0.00  0.00    +0.122 A 
ATOM     24  C   UNL     1      -0.013   1.076   0.008  0.00  0.00    +0.046 A 
ATOM     25  C   UNL     1       1.174   1.783   0.000  0.00  0.00    +0.005 A 
ATOM     26  C   UNL     1       1.156   3.166   0.008  0.00  0.00    +0.015 A 
ATOM     27  C   UNL     1      -0.049   3.844   0.023  0.00  0.00    +0.021 A 
ATOM     28  C   UNL     1      -1.239   3.140   0.031  0.00  0.00    +0.061 A 
ATOM     29 BR   UNL     1      -0.069   5.735   0.033  0.00  0.00    -0.050 Br
ENDBRANCH  22  23
ENDBRANCH  21  22
ENDBRANCH  19  21
ENDBRANCH  18  19
ENDBRANCH  17  18
ENDBRANCH   1  17
TORSDOF 8
