REMARK  Name = ZINC09268567
REMARK  7 active torsions:
REMARK  status: ('A' for Active; 'I' for Inactive)
REMARK    1  A    between atoms: C_1  and  C_2
REMARK    2  A    between atoms: C_2  and  C_3
REMARK    3  A    between atoms: C_2  and  C_4
REMARK    4  A    between atoms: C_7  and  N_10
REMARK    5  A    between atoms: C_11  and  C_13
REMARK    6  A    between atoms: N_16  and  S_19
REMARK    7  A    between atoms: S_19  and  C_22
REMARK                            x       y       z     vdW  Elec       q    Type
REMARK                         _______ _______ _______ _____ _____    ______ ____
ROOT
ATOM      1  C   UNL     1      -6.692  -5.491  -0.929  0.00  0.00    +0.078 C 
ATOM      2  C   UNL     1      -5.915  -6.305  -1.965  0.00  0.00    +0.030 C 
ATOM      3  C   UNL     1      -4.736  -5.474  -2.481  0.00  0.00    +0.110 C 
ATOM      4  N   UNL     1      -3.931  -5.031  -1.335  0.00  0.00    -0.177 NA
ATOM      5  C   UNL     1      -4.600  -4.322  -0.235  0.00  0.00    +0.110 C 
ATOM      6  C   UNL     1      -5.779  -5.161   0.254  0.00  0.00    +0.030 C 
ENDROOT
BRANCH   1   8
ATOM      7  N   UNL     1      -8.707  -5.772   0.478  0.00  0.00    -0.285 N 
ATOM      8  C   UNL     1      -7.873  -6.292  -0.444  0.00  0.00    +0.220 C 
ATOM      9  O   UNL     1      -8.072  -7.405  -0.883  0.00  0.00    -0.275 OA
ATOM     10  H   UNL     1      -8.511  -4.911   0.879  0.00  0.00    +0.155 HD
BRANCH   7  14
ATOM     11  C   UNL     1     -12.127  -7.865   1.609  0.00  0.00    -0.045 A 
ATOM     12  C   UNL     1     -10.968  -8.553   1.300  0.00  0.00    +0.006 A 
ATOM     13  C   UNL     1      -9.833  -7.862   0.924  0.00  0.00    +0.023 A 
ATOM     14  C   UNL     1      -9.856  -6.475   0.858  0.00  0.00    +0.033 A 
ATOM     15  C   UNL     1     -11.020  -5.787   1.175  0.00  0.00    +0.023 A 
ATOM     16  C   UNL     1     -12.153  -6.484   1.544  0.00  0.00    +0.006 A 
BRANCH  11  18
ATOM     17  C   UNL     1     -13.784  -8.194   3.425  0.00  0.00    +0.012 C 
ATOM     18  C   UNL     1     -13.364  -8.623   2.018  0.00  0.00    +0.013 C 
ATOM     19  C   UNL     1     -14.496  -8.319   1.034  0.00  0.00    +0.012 C 
ENDBRANCH  11  18
ENDBRANCH   7  14
ENDBRANCH   1   8
BRANCH   4  20
ATOM     20  S   UNL     1      -2.304  -5.330  -1.279  0.00  0.00    +0.061 S 
ATOM     21  O   UNL     1      -2.069  -6.454  -2.118  0.00  0.00    -0.153 OA
ATOM     22  O   UNL     1      -1.934  -5.313   0.093  0.00  0.00    -0.153 OA
BRANCH  20  23
ATOM     23  C   UNL     1      -1.496  -3.959  -2.036  0.00  0.00    +0.106 A 
ATOM     24  C   UNL     1      -1.245  -3.976  -3.401  0.00  0.00    +0.030 A 
ATOM     25  C   UNL     1      -0.614  -2.914  -4.012  0.00  0.00    +0.028 A 
ATOM     26  C   UNL     1      -0.224  -1.814  -3.256  0.00  0.00    +0.047 A 
ATOM     27  C   UNL     1      -0.479  -1.803  -1.872  0.00  0.00    +0.005 A 
ATOM     28  C   UNL     1      -1.121  -2.889  -1.274  0.00  0.00    +0.038 A 
ATOM     29  C   UNL     1       0.048  -0.532  -1.377  0.00  0.00    -0.019 A 
ATOM     30  C   UNL     1       0.559   0.128  -2.431  0.00  0.00    +0.020 A 
ATOM     31  N   UNL     1       0.409  -0.630  -3.562  0.00  0.00    -0.358 N 
ATOM     32  H   UNL     1       0.705  -0.371  -4.449  0.00  0.00    +0.166 HD
ATOM     33  C   UNL     1       1.194   1.497  -2.372  0.00  0.00    +0.053 C 
ATOM     34  C   UNL     1       2.181   1.554  -1.204  0.00  0.00    +0.006 C 
ATOM     35  C   UNL     1       1.455   2.004   0.061  0.00  0.00    +0.001 C 
ATOM     36  C   UNL     1       0.019   1.485   0.066  0.00  0.00    +0.005 C 
ATOM     37  C   UNL     1       0.032  -0.045   0.049  0.00  0.00    +0.037 C 
ENDBRANCH  20  23
ENDBRANCH   4  20
TORSDOF 5
