REMARK  Name = ZINC21636842
REMARK  6 active torsions:
REMARK  status: ('A' for Active; 'I' for Inactive)
REMARK    1  A    between atoms: C_1  and  C_2
REMARK    2  A    between atoms: C_6  and  N_9
REMARK    3  A    between atoms: C_7  and  C_8
REMARK    4  A    between atoms: C_15  and  C_17
REMARK    5  A    between atoms: C_17  and  N_18
REMARK    6  A    between atoms: N_18  and  C_19
REMARK                            x       y       z     vdW  Elec       q    Type
REMARK                         _______ _______ _______ _____ _____    ______ ____
ROOT
ATOM      1  N   UNL     1       0.002  -0.004   0.002  0.00  0.00    -0.327 N 
ATOM      2  C   UNL     1      -0.018   1.465   0.010  0.00  0.00    +0.124 C 
ATOM      3  C   UNL     1       1.421   1.992  -0.001  0.00  0.00    +0.126 C 
ATOM      4  N   UNL     1       2.154   1.374   1.115  0.00  0.00    -0.297 N 
ATOM      5  C   UNL     1       2.106  -0.090   1.252  0.00  0.00    +0.126 C 
ATOM      6  C   UNL     1       0.640  -0.535   1.214  0.00  0.00    +0.124 C 
ATOM      7  C   UNL     1       2.850   2.128   1.988  0.00  0.00    +0.233 C 
ATOM      8  O   UNL     1       3.449   1.602   2.901  0.00  0.00    -0.274 OA
ENDROOT
BRANCH   1  14
ATOM      9  C   UNL     1      -3.185  -2.717  -2.574  0.00  0.00    +0.044 C 
ATOM     10  C   UNL     1      -2.860  -1.839  -1.393  0.00  0.00    -0.046 A 
ATOM     11  C   UNL     1      -3.838  -1.546  -0.461  0.00  0.00    +0.004 A 
ATOM     12  C   UNL     1      -3.544  -0.741   0.625  0.00  0.00    +0.002 A 
ATOM     13  C   UNL     1      -2.271  -0.228   0.781  0.00  0.00    +0.023 A 
ATOM     14  C   UNL     1      -1.286  -0.521  -0.153  0.00  0.00    +0.033 A 
ATOM     15  C   UNL     1      -1.587  -1.325  -1.246  0.00  0.00    -0.027 A 
ATOM     16  C   UNL     1      -0.523  -1.641  -2.265  0.00  0.00    +0.046 C 
ENDBRANCH   1  14
BRANCH   7  17
ATOM     17  C   UNL     1       2.885   3.626   1.828  0.00  0.00    +0.202 C 
BRANCH  17  18
ATOM     18  N   UNL     1       3.703   4.212   2.893  0.00  0.00    -0.302 N 
ATOM     19  C   UNL     1       5.141   4.402   2.692  0.00  0.00    +0.132 C 
ATOM     20  C   UNL     1       3.114   4.587   4.094  0.00  0.00    +0.186 A 
ATOM     21  N   UNL     1       1.850   4.506   4.467  0.00  0.00    -0.124 NA
ATOM     22  N   UNL     1       1.478   4.937   5.719  0.00  0.00    -0.124 NA
ATOM     23  C   UNL     1       2.382   5.438   6.537  0.00  0.00    +0.192 A 
ATOM     24  S   UNL     1       3.862   5.315   5.543  0.00  0.00    -0.015 S 
ATOM     25  N   UNL     1       2.226   5.933   7.829  0.00  0.00    -0.249 N 
ATOM     26  C   UNL     1       0.947   5.982   8.548  0.00  0.00    +0.116 C 
ATOM     27  C   UNL     1       1.167   6.973   9.713  0.00  0.00    +0.029 C 
ATOM     28  C   UNL     1       2.696   6.880   9.921  0.00  0.00    +0.098 C 
ATOM     29  C   UNL     1       3.228   6.420   8.581  0.00  0.00    +0.221 C 
ATOM     30  O   UNL     1       4.389   6.484   8.235  0.00  0.00    -0.275 OA
ENDBRANCH  17  18
ENDBRANCH   7  17
TORSDOF 3
