REMARK  Name = ZINC05931328
REMARK  9 active torsions:
REMARK  status: ('A' for Active; 'I' for Inactive)
REMARK    1  A    between atoms: C_1  and  C_2
REMARK    2  A    between atoms: C_2  and  C_3
REMARK    3  A    between atoms: C_3  and  C_5
REMARK    4  A    between atoms: C_3  and  S_6
REMARK    5  A    between atoms: S_6  and  C_7
REMARK    6  A    between atoms: C_18  and  C_20
REMARK    7  A    between atoms: C_23  and  N_26
REMARK    8  A    between atoms: N_26  and  C_27
REMARK    9  A    between atoms: N_26  and  C_28
REMARK                            x       y       z     vdW  Elec       q    Type
REMARK                         _______ _______ _______ _____ _____    ______ ____
ROOT
ATOM      1  C   UNL     1      -1.866  -1.424   3.499  0.00  0.00    +0.171 A 
ATOM      2  N   UNL     1      -0.589  -0.956   3.579  0.00  0.00    -0.302 N 
ATOM      3  H   UNL     1      -0.064  -0.955   4.546  0.00  0.00    +0.171 HD
ATOM      4  C   UNL     1       0.035  -0.495   2.475  0.00  0.00    +0.258 A 
ATOM      5  O   UNL     1       1.178  -0.071   2.537  0.00  0.00    -0.267 OA
ATOM      6  C   UNL     1      -0.655  -0.510   1.257  0.00  0.00    +0.069 A 
ATOM      7  C   UNL     1      -1.949  -1.000   1.228  0.00  0.00    +0.135 A 
ATOM      8  N   UNL     1      -2.519  -1.441   2.354  0.00  0.00    -0.208 NA
ATOM      9  N   UNL     1      -2.641  -1.033   0.033  0.00  0.00    -0.302 N 
ATOM     10  C   UNL     1      -1.972  -0.977  -1.160  0.00  0.00    +0.017 C 
ATOM     11  C   UNL     1      -0.712  -0.502  -1.225  0.00  0.00    +0.024 C 
ATOM     12  C   UNL     1       0.002  -0.004   0.007  0.00  0.00    +0.092 C 
ATOM     13  C   UNL     1      -0.017  -0.457  -2.448  0.00  0.00    +0.162 C 
ATOM     14  O   UNL     1       1.114  -0.013  -2.475  0.00  0.00    -0.292 OA
ATOM     15  C   UNL     1      -0.647  -0.947  -3.723  0.00  0.00    +0.080 C 
ATOM     16  C   UNL     1      -1.670  -2.037  -3.386  0.00  0.00    +0.014 C 
ATOM     17  C   UNL     1      -2.687  -1.458  -2.399  0.00  0.00    +0.051 C 
ATOM     18  H   UNL     1      -3.738  -1.106   0.035  0.00  0.00    +0.153 HD
ENDROOT
BRANCH  12  19
ATOM     19  C   UNL     1      -0.019   1.503   0.014  0.00  0.00    -0.035 A 
ATOM     20  C   UNL     1      -1.226   2.176   0.037  0.00  0.00    +0.006 A 
ATOM     21  C   UNL     1      -1.248   3.557   0.049  0.00  0.00    +0.023 A 
ATOM     22  C   UNL     1      -0.056   4.269   0.027  0.00  0.00    +0.029 A 
ATOM     23  C   UNL     1       1.155   3.590  -0.002  0.00  0.00    +0.023 A 
ATOM     24  C   UNL     1       1.170   2.209  -0.009  0.00  0.00    +0.006 A 
BRANCH  22  25
ATOM     25  N   UNL     1      -0.075   5.666   0.034  0.00  0.00    -0.336 N 
ATOM     26  C   UNL     1       1.180   6.415   0.137  0.00  0.00    +0.129 C 
ATOM     27  C   UNL     1      -1.349   6.382  -0.062  0.00  0.00    +0.129 C 
ENDBRANCH  22  25
ENDBRANCH  12  19
BRANCH   1  28
ATOM     28  S   UNL     1      -2.661  -2.017   4.955  0.00  0.00    -0.085 S 
BRANCH  28  29
ATOM     29  C   UNL     1      -4.268  -2.487   4.267  0.00  0.00    +0.051 C 
ATOM     30  C   UNL     1      -4.991  -1.237   3.761  0.00  0.00    +0.019 C 
BRANCH  29  32
ATOM     31  C   UNL     1      -4.448  -4.475   5.769  0.00  0.00    +0.005 C 
ATOM     32  C   UNL     1      -5.110  -3.160   5.352  0.00  0.00    +0.011 C 
ENDBRANCH  29  32
ENDBRANCH  28  29
ENDBRANCH   1  28
TORSDOF 5
