REMARK  Name = ZINC09283876
REMARK  7 active torsions:
REMARK  status: ('A' for Active; 'I' for Inactive)
REMARK    1  A    between atoms: C_1  and  C_2
REMARK    2  A    between atoms: C_5  and  S_26
REMARK    3  A    between atoms: C_7  and  C_8
REMARK    4  A    between atoms: C_13  and  C_16
REMARK    5  A    between atoms: C_19  and  N_22
REMARK    6  A    between atoms: C_23  and  C_25
REMARK    7  A    between atoms: S_26  and  N_29
REMARK                            x       y       z     vdW  Elec       q    Type
REMARK                         _______ _______ _______ _____ _____    ______ ____
ROOT
ATOM      1  C   UNL     1       6.559  -0.104  -2.694  0.00  0.00    +0.250 C 
ATOM      2  O   UNL     1       6.954  -0.493  -3.776  0.00  0.00    -0.270 OA
ATOM      3  N   UNL     1       7.161   0.942  -2.094  0.00  0.00    -0.261 N 
ATOM      4  C   UNL     1       8.232   1.575  -2.711  0.00  0.00    +0.165 A 
ATOM      5  N   UNL     1       8.948   2.603  -2.294  0.00  0.00    -0.225 NA
ATOM      6  C   UNL     1       9.946   3.084  -3.019  0.00  0.00    +0.080 A 
ATOM      7  C   UNL     1      10.242   2.506  -4.222  0.00  0.00    +0.076 A 
ATOM      8  S   UNL     1       9.011   1.210  -4.277  0.00  0.00    -0.060 S 
ATOM      9  H   UNL     1       6.846   1.252  -1.230  0.00  0.00    +0.157 HD
ENDROOT
BRANCH   1  16
ATOM     10  C   UNL     1       5.101  -2.160  -4.114  0.00  0.00    +0.044 C 
ATOM     11  C   UNL     1       4.708  -1.771  -2.713  0.00  0.00    -0.038 A 
ATOM     12  C   UNL     1       3.645  -2.395  -2.094  0.00  0.00    +0.006 A 
ATOM     13  C   UNL     1       3.287  -2.043  -0.805  0.00  0.00    +0.029 A 
ATOM     14  C   UNL     1       3.984  -1.056  -0.132  0.00  0.00    +0.106 A 
ATOM     15  C   UNL     1       5.049  -0.423  -0.739  0.00  0.00    +0.041 A 
ATOM     16  C   UNL     1       5.420  -0.778  -2.037  0.00  0.00    +0.042 A 
BRANCH  14  17
ATOM     17  S   UNL     1       3.516  -0.610   1.508  0.00  0.00    +0.061 S 
ATOM     18  O   UNL     1       4.668  -0.050   2.121  0.00  0.00    -0.153 OA
ATOM     19  O   UNL     1       2.831  -1.730   2.053  0.00  0.00    -0.153 OA
BRANCH  17  20
ATOM     20  N   UNL     1       2.404   0.611   1.384  0.00  0.00    -0.177 NA
ATOM     21  C   UNL     1       0.969   0.310   1.294  0.00  0.00    +0.109 C 
ATOM     22  C   UNL     1       0.396   1.008   0.056  0.00  0.00    +0.017 C 
ATOM     23  C   UNL     1       0.722   2.502   0.121  0.00  0.00    +0.003 C 
ATOM     24  C   UNL     1       2.240   2.694   0.125  0.00  0.00    +0.017 C 
ATOM     25  C   UNL     1       2.834   2.015   1.363  0.00  0.00    +0.109 C 
ENDBRANCH  17  20
ENDBRANCH  14  17
ENDBRANCH   1  16
BRANCH   6  26
ATOM     26  C   UNL     1      10.736   4.240  -2.530  0.00  0.00    +0.001 A 
ATOM     27  C   UNL     1      11.790   4.740  -3.295  0.00  0.00    +0.012 A 
ATOM     28  C   UNL     1      12.519   5.818  -2.841  0.00  0.00    +0.024 A 
ATOM     29  C   UNL     1      12.213   6.400  -1.617  0.00  0.00    +0.033 A 
ATOM     30  C   UNL     1      11.167   5.900  -0.850  0.00  0.00    +0.024 A 
ATOM     31  C   UNL     1      10.431   4.826  -1.302  0.00  0.00    +0.012 A 
BRANCH  29  32
ATOM     32  N   UNL     1      12.958   7.490  -1.155  0.00  0.00    -0.286 N 
ATOM     33  C   UNL     1      13.214   7.623   0.162  0.00  0.00    +0.214 C 
ATOM     34  O   UNL     1      12.730   6.843   0.955  0.00  0.00    -0.276 OA
ATOM     35  C   UNL     1      14.102   8.739   0.648  0.00  0.00    +0.109 C 
ATOM     36  H   UNL     1      13.291   8.151  -1.783  0.00  0.00    +0.155 HD
ENDBRANCH  29  32
ENDBRANCH   6  26
TORSDOF 5
