REMARK  Name = ZINC21306129
REMARK  10 active torsions:
REMARK  status: ('A' for Active; 'I' for Inactive)
REMARK    1  A    between atoms: C_1  and  C_2
REMARK    2  A    between atoms: C_4  and  C_33
REMARK    3  A    between atoms: C_6  and  O_8
REMARK    4  A    between atoms: O_8  and  C_9
REMARK    5  A    between atoms: C_9  and  C_11
REMARK    6  A    between atoms: C_9  and  C_12
REMARK    7  A    between atoms: N_14  and  C_15
REMARK    8  A    between atoms: C_18  and  S_21
REMARK    9  A    between atoms: S_21  and  N_24
REMARK   10  A    between atoms: N_24  and  C_25
REMARK                            x       y       z     vdW  Elec       q    Type
REMARK                         _______ _______ _______ _____ _____    ______ ____
ROOT
ATOM      1  C   UNL     1      -3.245  -5.223   1.821  0.00  0.00    +0.034 A 
ATOM      2  C   UNL     1      -3.434  -6.475   2.391  0.00  0.00    +0.025 A 
ATOM      3  C   UNL     1      -4.712  -6.919   2.670  0.00  0.00    +0.030 A 
ATOM      4  C   UNL     1      -5.803  -6.123   2.371  0.00  0.00    +0.109 A 
ATOM      5  C   UNL     1      -5.617  -4.878   1.797  0.00  0.00    +0.030 A 
ATOM      6  C   UNL     1      -4.342  -4.426   1.522  0.00  0.00    +0.025 A 
ENDROOT
BRANCH   1   9
ATOM      7  C   UNL     1      -1.659  -3.457   1.654  0.00  0.00    +0.258 C 
ATOM      8  O   UNL     1      -2.490  -2.686   2.084  0.00  0.00    -0.271 OA
ATOM      9  N   UNL     1      -1.951  -4.768   1.542  0.00  0.00    -0.282 N 
ATOM     10  H   UNL     1      -1.172  -5.481   1.232  0.00  0.00    +0.155 HD
BRANCH   7  11
ATOM     11  C   UNL     1      -0.300  -2.950   1.245  0.00  0.00    +0.256 C 
ATOM     12  C   UNL     1      -0.116  -3.143  -0.262  0.00  0.00    +0.062 C 
BRANCH  11  13
ATOM     13  O   UNL     1      -0.194  -1.561   1.563  0.00  0.00    -0.480 OA
BRANCH  13  19
ATOM     14  C   UNL     1       2.702   2.244   2.542  0.00  0.00    +0.044 C 
ATOM     15  C   UNL     1       2.510   0.790   2.196  0.00  0.00    -0.047 A 
ATOM     16  C   UNL     1       3.609  -0.034   2.036  0.00  0.00    +0.007 A 
ATOM     17  C   UNL     1       3.436  -1.368   1.718  0.00  0.00    -0.047 A 
ATOM     18  C   UNL     1       2.163  -1.882   1.560  0.00  0.00    +0.049 A 
ATOM     19  C   UNL     1       1.059  -1.058   1.719  0.00  0.00    +0.122 A 
ATOM     20  C   UNL     1       1.235   0.281   2.038  0.00  0.00    +0.049 A 
ATOM     21  C   UNL     1       4.636  -2.263   1.545  0.00  0.00    +0.044 C 
ENDBRANCH  13  19
ENDBRANCH  11  13
ENDBRANCH   7  11
ENDBRANCH   1   9
BRANCH   4  22
ATOM     22  S   UNL     1      -7.432  -6.696   2.721  0.00  0.00    +0.072 S 
ATOM     23  O   UNL     1      -7.320  -7.589   3.821  0.00  0.00    -0.150 OA
ATOM     24  O   UNL     1      -8.268  -5.548   2.753  0.00  0.00    -0.150 OA
BRANCH  22  25
ATOM     25  N   UNL     1      -7.921  -7.601   1.424  0.00  0.00    -0.216 N 
ATOM     26  H   UNL     1      -8.786  -7.280   0.824  0.00  0.00    +0.174 HD
BRANCH  25  27
ATOM     27  C   UNL     1      -7.237  -8.773   1.092  0.00  0.00    +0.051 A 
ATOM     28  C   UNL     1      -6.404  -8.801  -0.019  0.00  0.00    +0.044 A 
ATOM     29  C   UNL     1      -5.724  -9.960  -0.342  0.00  0.00    +0.044 A 
ATOM     30  C   UNL     1      -5.882 -11.095   0.433  0.00  0.00    +0.040 A 
ATOM     31  C   UNL     1      -6.716 -11.072   1.537  0.00  0.00    +0.044 A 
ATOM     32  C   UNL     1      -7.394  -9.914   1.868  0.00  0.00    +0.044 A 
ATOM     33 CL   UNL     1      -6.911 -12.499   2.507  0.00  0.00    -0.083 Cl
ATOM     34 CL   UNL     1      -4.677  -9.994  -1.726  0.00  0.00    -0.083 Cl
ENDBRANCH  25  27
ENDBRANCH  22  25
ENDBRANCH   4  22
TORSDOF 7
