REMARK  Name = ZINC14461367
REMARK  9 active torsions:
REMARK  status: ('A' for Active; 'I' for Inactive)
REMARK    1  A    between atoms: C_1  and  C_2
REMARK    2  A    between atoms: C_2  and  N_3
REMARK    3  A    between atoms: N_3  and  C_4
REMARK    4  A    between atoms: N_3  and  C_6
REMARK    5  A    between atoms: C_4  and  C_5
REMARK    6  A    between atoms: C_9  and  C_12
REMARK    7  A    between atoms: C_23  and  S_28
REMARK    8  A    between atoms: S_28  and  N_31
REMARK    9  A    between atoms: N_31  and  C_32
REMARK                            x       y       z     vdW  Elec       q    Type
REMARK                         _______ _______ _______ _____ _____    ______ ____
ROOT
ATOM      1  C   UNL     1      -0.539   2.223  -1.236  0.00  0.00    +0.105 C 
ATOM      2  C   UNL     1      -0.129   1.423  -0.013  0.00  0.00    +0.029 C 
ATOM      3  C   UNL     1      -0.242  -0.105  -0.105  0.00  0.00    +0.033 C 
ATOM      4  C   UNL     1       0.866  -0.554   0.849  0.00  0.00    -0.030 C 
ATOM      5  C   UNL     1       1.800   0.386   0.935  0.00  0.00    -0.023 C 
ATOM      6  C   UNL     1       1.426   1.510   0.038  0.00  0.00    +0.049 C 
ATOM      7  C   UNL     1       1.792   2.909   0.343  0.00  0.00    -0.018 A 
ATOM      8  C   UNL     1       2.889   3.237   1.110  0.00  0.00    +0.034 A 
ATOM      9  C   UNL     1       3.198   4.561   1.358  0.00  0.00    +0.106 A 
ATOM     10  C   UNL     1       2.404   5.565   0.834  0.00  0.00    +0.030 A 
ATOM     11  C   UNL     1       1.300   5.248   0.070  0.00  0.00    +0.025 A 
ATOM     12  C   UNL     1       0.977   3.920  -0.180  0.00  0.00    +0.031 A 
ATOM     13  N   UNL     1      -0.159   3.622  -0.942  0.00  0.00    -0.336 N 
ATOM     14  H   UNL     1      -0.708   4.346  -1.282  0.00  0.00    +0.147 HD
ENDROOT
BRANCH   1  18
ATOM     15  C   UNL     1       1.553   0.820  -4.689  0.00  0.00    +0.030 A 
ATOM     16  C   UNL     1       0.340   0.245  -4.328  0.00  0.00    +0.023 A 
ATOM     17  C   UNL     1      -0.333   0.701  -3.212  0.00  0.00    +0.007 A 
ATOM     18  C   UNL     1       0.198   1.728  -2.454  0.00  0.00    -0.027 A 
ATOM     19  C   UNL     1       1.402   2.306  -2.813  0.00  0.00    +0.007 A 
ATOM     20  C   UNL     1       2.084   1.851  -3.925  0.00  0.00    +0.023 A 
BRANCH  15  21
ATOM     21  N   UNL     1       2.237   0.361  -5.817  0.00  0.00    -0.330 N 
BRANCH  21  23
ATOM     22  C   UNL     1       4.659   0.215  -5.512  0.00  0.00    +0.024 C 
ATOM     23  C   UNL     1       3.515   0.967  -6.195  0.00  0.00    +0.102 C 
ENDBRANCH  21  23
BRANCH  21  24
ATOM     24  C   UNL     1       1.675  -0.728  -6.621  0.00  0.00    +0.102 C 
ATOM     25  C   UNL     1       0.781  -0.143  -7.717  0.00  0.00    +0.024 C 
ENDBRANCH  21  24
ENDBRANCH  15  21
ENDBRANCH   1  18
BRANCH   9  26
ATOM     26  S   UNL     1       4.603   4.971   2.339  0.00  0.00    +0.059 S 
ATOM     27  O   UNL     1       5.492   3.866   2.256  0.00  0.00    -0.153 OA
ATOM     28  O   UNL     1       4.987   6.288   1.969  0.00  0.00    -0.153 OA
BRANCH  26  29
ATOM     29  N   UNL     1       4.093   5.052   3.913  0.00  0.00    -0.187 NA
ATOM     30  H   UNL     1       4.120   5.897   4.388  0.00  0.00    +0.148 HD
BRANCH  29  31
ATOM     31  C   UNL     1       3.603   3.847   4.587  0.00  0.00    +0.077 C 
ATOM     32  C   UNL     1       2.078   3.788   4.479  0.00  0.00    +0.020 C 
ATOM     33  C   UNL     1       1.565   2.530   5.183  0.00  0.00    +0.002 C 
ATOM     34  C   UNL     1       1.971   2.569   6.658  0.00  0.00    +0.000 C 
ATOM     35  C   UNL     1       3.496   2.628   6.765  0.00  0.00    +0.002 C 
ATOM     36  C   UNL     1       4.009   3.886   6.061  0.00  0.00    +0.020 C 
ENDBRANCH  29  31
ENDBRANCH  26  29
ENDBRANCH   9  26
TORSDOF 7
