REMARK  Name = ZINC39515503
REMARK  11 active torsions:
REMARK  status: ('A' for Active; 'I' for Inactive)
REMARK    1  A    between atoms: C_1  and  C_2
REMARK    2  A    between atoms: C_2  and  C_4
REMARK    3  A    between atoms: C_2  and  N_15
REMARK    4  A    between atoms: C_4  and  C_5
REMARK    5  A    between atoms: C_5  and  C_6
REMARK    6  A    between atoms: C_19  and  C_31
REMARK    7  A    between atoms: C_20  and  S_26
REMARK    8  A    between atoms: S_26  and  N_29
REMARK    9  A    between atoms: N_29  and  C_30
REMARK   10  A    between atoms: C_31  and  O_33
REMARK   11  A    between atoms: O_33  and  C_34
REMARK                            x       y       z     vdW  Elec       q    Type
REMARK                         _______ _______ _______ _____ _____    ______ ____
ROOT
ATOM      1  N   UNL     1       0.628  -0.270  -1.299  0.00  0.00    +0.383 N 
ATOM      2  C   UNL     1       0.431  -1.676  -1.626  0.00  0.00    -0.074 C 
ATOM      3  C   UNL     1       1.386  -2.598  -0.859  0.00  0.00    +0.014 C 
ATOM      4  C   UNL     1       2.795  -2.158  -1.261  0.00  0.00    -0.048 C 
ATOM      5  C   UNL     1       3.908  -2.780  -0.977  0.00  0.00    +0.072 C 
ATOM      6  C   UNL     1       5.223  -2.156  -1.411  0.00  0.00    +0.242 C 
ATOM      7  S   UNL     1       4.681  -0.432  -1.789  0.00  0.00    -0.123 S 
ATOM      8  C   UNL     1       2.901  -0.824  -2.020  0.00  0.00    +0.058 C 
ATOM      9  C   UNL     1       2.028   0.151  -1.232  0.00  0.00    -0.060 C 
ATOM     10  H   UNL     1       0.160   0.287  -1.998  0.00  0.00    -0.081 HD
ENDROOT
BRANCH   6  11
ATOM     11  S   UNL     1       6.435  -2.181  -0.062  0.00  0.00    +0.046 S 
ATOM     12  O   UNL     1       5.970  -1.398   1.029  0.00  0.00    -0.157 OA
ATOM     13  O   UNL     1       6.909  -3.505   0.146  0.00  0.00    -0.157 OA
BRANCH  11  14
ATOM     14  N   UNL     1       7.743  -1.352  -0.649  0.00  0.00    -0.196 NA
ATOM     15  C   UNL     1       7.626   0.075  -0.961  0.00  0.00    +0.127 C 
ATOM     16  H   UNL     1       8.586  -1.811  -0.787  0.00  0.00    +0.147 HD
ENDBRANCH  11  14
ENDBRANCH   6  11
BRANCH   1  18
ATOM     17  C   UNL     1       0.208   1.466   0.377  0.00  0.00    -0.013 C 
ATOM     18  C   UNL     1      -0.001  -0.002   0.002  0.00  0.00    -0.071 C 
BRANCH  18  19
ATOM     19  C   UNL     1      -1.499  -0.299  -0.085  0.00  0.00    -0.011 C 
BRANCH  19  20
ATOM     20  C   UNL     1      -2.117   0.523  -1.218  0.00  0.00    +0.036 C 
BRANCH  20  21
ATOM     21  C   UNL     1      -3.611   0.326  -1.224  0.00  0.00    -0.022 A 
ATOM     22  C   UNL     1      -4.590   1.061  -0.419  0.00  0.00    +0.003 A 
ATOM     23  C   UNL     1      -4.497   2.083   0.527  0.00  0.00    +0.010 A 
ATOM     24  C   UNL     1      -5.631   2.568   1.116  0.00  0.00    +0.001 A 
ATOM     25  C   UNL     1      -6.875   2.051   0.780  0.00  0.00    +0.002 A 
ATOM     26  C   UNL     1      -6.990   1.042  -0.151  0.00  0.00    +0.026 A 
ATOM     27  C   UNL     1      -5.849   0.534  -0.763  0.00  0.00    +0.047 A 
ATOM     28  N   UNL     1      -5.636  -0.445  -1.706  0.00  0.00    -0.360 N 
ATOM     29  C   UNL     1      -4.298  -0.551  -1.973  0.00  0.00    +0.087 A 
ATOM     30  H   UNL     1      -6.330  -0.978  -2.123  0.00  0.00    +0.165 HD
ENDBRANCH  20  21
ENDBRANCH  19  20
ENDBRANCH  18  19
ENDBRANCH   1  18
BRANCH   5  31
ATOM     31  C   UNL     1       3.888  -4.058  -0.252  0.00  0.00    +0.338 C 
ATOM     32  O   UNL     1       2.829  -4.546   0.089  0.00  0.00    -0.245 OA
BRANCH  31  33
ATOM     33  O   UNL     1       5.044  -4.688   0.035  0.00  0.00    -0.465 OA
ATOM     34  C   UNL     1       4.950  -5.926   0.742  0.00  0.00    +0.280 C 
ENDBRANCH  31  33
ENDBRANCH   5  31
TORSDOF 8
