REMARK  Name = ZINC39634863
REMARK  14 active torsions:
REMARK  status: ('A' for Active; 'I' for Inactive)
REMARK    1  A    between atoms: C_1  and  C_2
REMARK    2  A    between atoms: C_12  and  O_13
REMARK    3  A    between atoms: O_13  and  C_14
REMARK    4  A    between atoms: C_14  and  C_15
REMARK    5  A    between atoms: C_19  and  C_28
REMARK    6  A    between atoms: N_30  and  C_31
REMARK    7  A    between atoms: C_31  and  C_32
REMARK    8  A    between atoms: C_32  and  N_33
REMARK    9  A    between atoms: N_33  and  C_34
REMARK   10  A    between atoms: N_33  and  C_37
REMARK   11  A    between atoms: C_34  and  C_35
REMARK   12  A    between atoms: C_34  and  C_36
REMARK   13  A    between atoms: C_37  and  C_38
REMARK   14  A    between atoms: C_37  and  C_39
REMARK                            x       y       z     vdW  Elec       q    Type
REMARK                         _______ _______ _______ _____ _____    ______ ____
ROOT
ATOM      1  C   UNL     1       3.563  -9.939   3.950  0.00  0.00    +0.253 C 
ATOM      2  O   UNL     1       3.870 -10.733   3.086  0.00  0.00    -0.272 OA
ATOM      3  N   UNL     1       3.102 -10.380   5.137  0.00  0.00    -0.297 N 
ATOM      4  C   UNL     1       2.674  -9.570   6.302  0.00  0.00    +0.121 C 
ATOM      5  C   UNL     1       1.435 -10.309   6.856  0.00  0.00    +0.100 C 
ATOM      6  C   UNL     1       1.596 -11.761   6.376  0.00  0.00    -0.004 C 
ATOM      7  C   UNL     1       2.903 -11.784   5.570  0.00  0.00    +0.115 C 
ATOM      8  C   UNL     1       1.693 -12.705   7.570  0.00  0.00    -0.010 C 
ATOM      9  C   UNL     1       1.794 -14.148   7.067  0.00  0.00    -0.082 C 
ATOM     10  N   UNL     1       0.612 -14.470   6.259  0.00  0.00    +0.379 N 
ATOM     11  C   UNL     1       0.577 -13.619   5.063  0.00  0.00    -0.082 C 
ATOM     12  C   UNL     1       0.424 -12.154   5.481  0.00  0.00    -0.010 C 
ATOM     13  H   UNL     1       0.651 -15.439   5.980  0.00  0.00    -0.086 HD
ATOM     14  H   UNL     1      -0.221 -14.314   6.806  0.00  0.00    -0.086 HD
ENDROOT
BRANCH   5  15
ATOM     15  C   UNL     1       1.419 -10.250   8.362  0.00  0.00    +0.218 C 
ATOM     16  O   UNL     1       2.462 -10.283   8.981  0.00  0.00    -0.275 OA
ATOM     17  N   UNL     1       0.247 -10.162   9.021  0.00  0.00    -0.317 N 
ATOM     18  H   UNL     1      -0.587 -10.136   8.526  0.00  0.00    +0.149 HD
BRANCH  17  19
ATOM     19  C   UNL     1       0.231 -10.106  10.485  0.00  0.00    +0.085 C 
BRANCH  19  20
ATOM     20  C   UNL     1      -1.214 -10.009  10.976  0.00  0.00    -0.059 C 
BRANCH  20  21
ATOM     21  N   UNL     1      -1.225  -9.837  12.435  0.00  0.00    +0.384 N 
ATOM     22  H   UNL     1      -0.689 -10.576  12.865  0.00  0.00    -0.081 HD
BRANCH  21  23
ATOM     23  C   UNL     1      -0.631  -8.538  12.779  0.00  0.00    -0.074 C 
ATOM     24  C   UNL     1      -1.700  -7.447  12.682  0.00  0.00    -0.014 C 
ATOM     25  C   UNL     1      -0.083  -8.590  14.207  0.00  0.00    -0.014 C 
ENDBRANCH  21  23
BRANCH  21  26
ATOM     26  C   UNL     1      -2.609  -9.887  12.924  0.00  0.00    -0.074 C 
ATOM     27  C   UNL     1      -3.272 -11.180  12.445  0.00  0.00    -0.014 C 
ATOM     28  C   UNL     1      -2.612  -9.849  14.454  0.00  0.00    -0.014 C 
ENDBRANCH  21  26
ENDBRANCH  20  21
ENDBRANCH  19  20
ENDBRANCH  17  19
ENDBRANCH   5  15
BRANCH   1  29
ATOM     29  C   UNL     1       3.696  -8.460   3.695  0.00  0.00    +0.324 C 
BRANCH  29  30
ATOM     30  O   UNL     1       4.202  -8.247   2.376  0.00  0.00    -0.479 OA
BRANCH  30  42
ATOM     31  C   UNL     1       5.779  -3.636  -1.486  0.00  0.00    +0.045 C 
ATOM     32  C   UNL     1       5.568  -5.054  -1.023  0.00  0.00    -0.033 A 
ATOM     33  C   UNL     1       5.850  -6.102  -1.837  0.00  0.00    +0.096 A 
ATOM     34  C   UNL     1       5.644  -7.422  -1.379  0.00  0.00    +0.338 A 
ATOM     35  O   UNL     1       5.902  -8.354  -2.119  0.00  0.00    -0.245 OA
ATOM     36  O   UNL     1       5.172  -7.675  -0.149  0.00  0.00    -0.418 OA
ATOM     37  C   UNL     1       4.872  -6.677   0.710  0.00  0.00    +0.181 A 
ATOM     38  C   UNL     1       5.058  -5.340   0.322  0.00  0.00    +0.024 A 
ATOM     39  C   UNL     1       4.752  -4.304   1.211  0.00  0.00    +0.012 A 
ATOM     40  C   UNL     1       4.274  -4.603   2.467  0.00  0.00    +0.004 A 
ATOM     41  C   UNL     1       4.095  -5.922   2.855  0.00  0.00    +0.049 A 
ATOM     42  C   UNL     1       4.382  -6.958   1.984  0.00  0.00    +0.164 A 
ENDBRANCH  30  42
ENDBRANCH  29  30
ENDBRANCH   1  29
TORSDOF 9
