REMARK  Name = ZINC14267687
REMARK  5 active torsions:
REMARK  status: ('A' for Active; 'I' for Inactive)
REMARK    1  A    between atoms: C_6  and  C_7
REMARK    2  A    between atoms: C_9  and  C_12
REMARK    3  A    between atoms: C_12  and  C_13
REMARK    4  A    between atoms: C_13  and  C_14
REMARK    5  A    between atoms: N_16  and  C_17
REMARK                            x       y       z     vdW  Elec       q    Type
REMARK                         _______ _______ _______ _____ _____    ______ ____
ROOT
ATOM      1  C   UNL     1      -1.211   1.579   0.018  0.00  0.00    +0.218 C 
ATOM      2  O   UNL     1      -1.276   2.787  -0.066  0.00  0.00    -0.275 OA
ATOM      3  N   UNL     1      -0.011   0.966   0.007  0.00  0.00    -0.285 N 
ATOM      4  H   UNL     1       0.039  -0.003   0.007  0.00  0.00    +0.155 HD
ENDROOT
BRANCH   3   5
ATOM      5  C   UNL     1       1.164   1.728  -0.009  0.00  0.00    +0.035 A 
ATOM      6  C   UNL     1       2.288   1.284   0.679  0.00  0.00    +0.025 A 
ATOM      7  C   UNL     1       3.451   2.028   0.663  0.00  0.00    +0.029 A 
ATOM      8  C   UNL     1       3.496   3.227  -0.032  0.00  0.00    +0.067 A 
ATOM      9  C   UNL     1       2.367   3.678  -0.719  0.00  0.00    +0.069 A 
ATOM     10  C   UNL     1       1.203   2.926  -0.705  0.00  0.00    +0.051 A 
ATOM     11  N   UNL     1       2.713   4.891  -1.310  0.00  0.00    -0.306 N 
ATOM     12  H   UNL     1       2.131   5.444  -1.854  0.00  0.00    +0.170 HD
ATOM     13  C   UNL     1       3.994   5.166  -0.997  0.00  0.00    +0.325 A 
ATOM     14  O   UNL     1       4.606   6.154  -1.357  0.00  0.00    -0.247 OA
ATOM     15  N   UNL     1       4.494   4.181  -0.227  0.00  0.00    -0.306 N 
ATOM     16  H   UNL     1       5.395   4.142   0.130  0.00  0.00    +0.170 HD
ENDBRANCH   3   5
BRANCH   1  17
ATOM     17  C   UNL     1      -2.473   0.763   0.133  0.00  0.00    +0.105 C 
BRANCH  17  18
ATOM     18  C   UNL     1      -3.686   1.695   0.121  0.00  0.00    +0.108 C 
BRANCH  18  21
ATOM     19  C   UNL     1      -6.632  -0.185   0.964  0.00  0.00    +0.202 A 
ATOM     20  N   UNL     1      -5.552   0.533   1.347  0.00  0.00    -0.191 NA
ATOM     21  C   UNL     1      -4.948   0.879   0.237  0.00  0.00    +0.228 A 
ATOM     22  O   UNL     1      -5.664   0.377  -0.774  0.00  0.00    -0.338 OA
ATOM     23  N   UNL     1      -6.620  -0.233  -0.343  0.00  0.00    -0.056 NA
BRANCH  19  29
ATOM     24  C   UNL     1      -7.521  -0.674   3.242  0.00  0.00    +0.014 A 
ATOM     25  C   UNL     1      -8.464  -1.246   4.070  0.00  0.00    +0.039 A 
ATOM     26  C   UNL     1      -9.523  -1.958   3.530  0.00  0.00    +0.123 A 
ATOM     27  C   UNL     1      -9.643  -2.093   2.156  0.00  0.00    +0.039 A 
ATOM     28  C   UNL     1      -8.707  -1.520   1.320  0.00  0.00    +0.014 A 
ATOM     29  C   UNL     1      -7.641  -0.803   1.859  0.00  0.00    +0.023 A 
ATOM     30  F   UNL     1     -10.442  -2.521   4.345  0.00  0.00    -0.205 F 
ENDBRANCH  19  29
ENDBRANCH  18  21
ENDBRANCH  17  18
ENDBRANCH   1  17
TORSDOF 5
