REMARK  Name = ZINC34779787
REMARK  11 active torsions:
REMARK  status: ('A' for Active; 'I' for Inactive)
REMARK    1  A    between atoms: C_1  and  C_2
REMARK    2  A    between atoms: C_5  and  C_31
REMARK    3  A    between atoms: C_6  and  C_8
REMARK    4  A    between atoms: C_8  and  N_9
REMARK    5  A    between atoms: C_13  and  C_30
REMARK    6  A    between atoms: C_14  and  C_26
REMARK    7  A    between atoms: N_17  and  C_20
REMARK    8  A    between atoms: C_20  and  C_21
REMARK    9  A    between atoms: N_23  and  C_24
REMARK   10  A    between atoms: N_23  and  C_25
REMARK   11  A    between atoms: N_28  and  N_29
REMARK                            x       y       z     vdW  Elec       q    Type
REMARK                         _______ _______ _______ _____ _____    ______ ____
ROOT
ATOM      1  N   UNL     1       1.265  -3.756   2.497  0.00  0.00    -0.256 N 
ATOM      2  C   UNL     1       1.698  -4.820   1.797  0.00  0.00    +0.265 A 
ATOM      3  O   UNL     1       0.984  -5.337   0.958  0.00  0.00    -0.267 OA
ATOM      4  C   UNL     1       3.056  -5.355   2.061  0.00  0.00    +0.074 A 
ATOM      5  C   UNL     1       3.700  -6.441   1.455  0.00  0.00    -0.017 A 
ATOM      6  C   UNL     1       4.964  -6.732   1.881  0.00  0.00    +0.081 A 
ATOM      7  S   UNL     1       5.253  -5.491   3.126  0.00  0.00    -0.065 S 
ATOM      8  C   UNL     1       3.792  -4.683   3.047  0.00  0.00    +0.098 A 
ATOM      9  N   UNL     1       3.269  -3.608   3.708  0.00  0.00    -0.278 N 
ATOM     10  C   UNL     1       2.031  -3.161   3.425  0.00  0.00    +0.334 A 
ATOM     11  O   UNL     1       1.595  -2.199   4.027  0.00  0.00    -0.246 OA
ATOM     12  C   UNL     1       3.027  -7.254   0.379  0.00  0.00    +0.046 C 
ENDROOT
BRANCH   6  13
ATOM     13  C   UNL     1       5.859  -7.799   1.428  0.00  0.00    +0.264 C 
ATOM     14  O   UNL     1       5.497  -8.569   0.558  0.00  0.00    -0.268 OA
ATOM     15  N   UNL     1       7.084  -7.928   1.975  0.00  0.00    -0.249 N 
ATOM     16  H   UNL     1       7.373  -7.315   2.668  0.00  0.00    +0.169 HD
BRANCH  15  17
ATOM     17  N   UNL     1       7.919  -8.923   1.552  0.00  0.00    -0.254 NA
ATOM     18  H   UNL     1       8.796  -8.895   2.050  0.00  0.00    +0.140 HD
ATOM     19  H   UNL     1       7.480  -9.827   1.645  0.00  0.00    +0.140 HD
ENDBRANCH  15  17
ENDBRANCH   6  13
BRANCH   1  20
ATOM     20  C   UNL     1      -0.076  -3.228   2.235  0.00  0.00    +0.165 C 
BRANCH  20  26
ATOM     21  C   UNL     1       2.610  -0.507  -0.993  0.00  0.00    +0.044 C 
ATOM     22  C   UNL     1       1.275  -0.918  -0.427  0.00  0.00    -0.050 A 
ATOM     23  C   UNL     1       0.111  -0.369  -0.933  0.00  0.00    +0.003 A 
ATOM     24  C   UNL     1      -1.113  -0.746  -0.413  0.00  0.00    +0.004 A 
ATOM     25  C   UNL     1      -1.174  -1.671   0.612  0.00  0.00    -0.046 A 
ATOM     26  C   UNL     1      -0.010  -2.220   1.117  0.00  0.00    -0.024 A 
ATOM     27  C   UNL     1       1.214  -1.847   0.595  0.00  0.00    +0.009 A 
ATOM     28  C   UNL     1      -2.508  -2.082   1.179  0.00  0.00    +0.044 C 
ENDBRANCH  20  26
ENDBRANCH   1  20
BRANCH   9  29
ATOM     29  C   UNL     1       4.067  -2.930   4.733  0.00  0.00    +0.223 C 
BRANCH  29  30
ATOM     30  C   UNL     1       4.874  -1.829   4.095  0.00  0.00    +0.235 C 
ATOM     31  O   UNL     1       4.791  -1.631   2.901  0.00  0.00    -0.274 OA
ATOM     32  N   UNL     1       5.688  -1.066   4.850  0.00  0.00    -0.306 N 
ATOM     33  C   UNL     1       6.473   0.004   4.230  0.00  0.00    +0.131 C 
ATOM     34  C   UNL     1       5.788  -1.306   6.292  0.00  0.00    +0.131 C 
ENDBRANCH  29  30
ENDBRANCH   9  29
TORSDOF 6
