REMARK  Name = ZINC12631330
REMARK  10 active torsions:
REMARK  status: ('A' for Active; 'I' for Inactive)
REMARK    1  A    between atoms: C_2  and  C_3
REMARK    2  A    between atoms: C_3  and  N_4
REMARK    3  A    between atoms: C_8  and  S_29
REMARK    4  A    between atoms: N_13  and  C_14
REMARK    5  A    between atoms: C_14  and  C_16
REMARK    6  A    between atoms: C_16  and  C_17
REMARK    7  A    between atoms: C_17  and  C_18
REMARK    8  A    between atoms: C_18  and  S_19
REMARK    9  A    between atoms: S_19  and  C_22
REMARK   10  A    between atoms: S_29  and  N_32
REMARK                            x       y       z     vdW  Elec       q    Type
REMARK                         _______ _______ _______ _____ _____    ______ ____
ROOT
ATOM      1  N   UNL     1      -0.705   1.593   1.195  0.00  0.00    -0.317 N 
ATOM      2  C   UNL     1       0.019   1.938   2.321  0.00  0.00    +0.058 A 
ATOM      3  C   UNL     1       1.408   1.873   2.518  0.00  0.00    +0.029 A 
ATOM      4  C   UNL     1       1.968   2.260   3.712  0.00  0.00    +0.030 A 
ATOM      5  C   UNL     1       1.184   2.724   4.756  0.00  0.00    +0.106 A 
ATOM      6  C   UNL     1      -0.188   2.798   4.589  0.00  0.00    +0.045 A 
ATOM      7  C   UNL     1      -0.748   2.412   3.395  0.00  0.00    +0.041 A 
ATOM      8  S   UNL     1      -2.408   2.345   2.769  0.00  0.00    -0.052 S 
ATOM      9  C   UNL     1      -2.057   1.730   1.186  0.00  0.00    +0.167 A 
ATOM     10  N   UNL     1      -2.908   1.455   0.200  0.00  0.00    -0.156 NA
ENDROOT
BRANCH   5  11
ATOM     11  S   UNL     1       1.925   3.212   6.278  0.00  0.00    +0.056 S 
ATOM     12  O   UNL     1       0.921   3.092   7.276  0.00  0.00    -0.153 OA
ATOM     13  O   UNL     1       3.168   2.530   6.362  0.00  0.00    -0.153 OA
BRANCH  11  14
ATOM     14  N   UNL     1       2.278   4.826   6.154  0.00  0.00    -0.204 NA
ATOM     15  H   UNL     1       2.067   5.307   5.339  0.00  0.00    +0.144 HD
ATOM     16  H   UNL     1       2.696   5.289   6.897  0.00  0.00    +0.144 HD
ENDBRANCH  11  14
ENDBRANCH   5  11
BRANCH  10  17
ATOM     17  C   UNL     1      -4.210   1.653   0.371  0.00  0.00    +0.238 C 
ATOM     18  O   UNL     1      -4.625   2.085   1.430  0.00  0.00    -0.274 OA
BRANCH  17  19
ATOM     19  C   UNL     1      -5.173   1.342  -0.745  0.00  0.00    +0.099 C 
BRANCH  19  20
ATOM     20  C   UNL     1      -6.600   1.657  -0.291  0.00  0.00    +0.032 C 
BRANCH  20  21
ATOM     21  C   UNL     1      -7.578   1.341  -1.425  0.00  0.00    +0.172 C 
BRANCH  21  22
ATOM     22  S   UNL     1      -9.269   1.714  -0.886  0.00  0.00    -0.003 S 
ATOM     23  O   UNL     1      -9.669   0.809   0.134  0.00  0.00    -0.169 OA
ATOM     24  O   UNL     1      -9.430   3.116  -0.714  0.00  0.00    -0.169 OA
BRANCH  22  25
ATOM     25  C   UNL     1     -10.284   1.311  -2.268  0.00  0.00    +0.088 A 
ATOM     26  C   UNL     1     -10.571   2.273  -3.219  0.00  0.00    +0.028 A 
ATOM     27  C   UNL     1     -11.363   1.956  -4.307  0.00  0.00    +0.022 A 
ATOM     28  C   UNL     1     -11.877   0.678  -4.438  0.00  0.00    +0.041 A 
ATOM     29  C   UNL     1     -11.594  -0.283  -3.484  0.00  0.00    +0.022 A 
ATOM     30  C   UNL     1     -10.798   0.034  -2.399  0.00  0.00    +0.028 A 
ATOM     31 CL   UNL     1     -12.877   0.280  -5.801  0.00  0.00    -0.084 Cl
ENDBRANCH  22  25
ENDBRANCH  21  22
ENDBRANCH  20  21
ENDBRANCH  19  20
ENDBRANCH  17  19
ENDBRANCH  10  17
BRANCH   1  32
ATOM     32  C   UNL     1      -0.013   1.086   0.008  0.00  0.00    +0.151 C 
BRANCH  32  34
ATOM     33  C   UNL     1      -0.034   2.360  -2.075  0.00  0.00    +0.005 C 
ATOM     34  C   UNL     1      -0.695   1.606  -1.231  0.00  0.00    -0.013 C 
ENDBRANCH  32  34
ENDBRANCH   1  32
TORSDOF 10
