REMARK  Name = ZINC21722955
REMARK  7 active torsions:
REMARK  status: ('A' for Active; 'I' for Inactive)
REMARK    1  A    between atoms: C_1  and  C_2
REMARK    2  A    between atoms: C_2  and  C_3
REMARK    3  A    between atoms: C_3  and  N_4
REMARK    4  A    between atoms: C_17  and  C_19
REMARK    5  A    between atoms: C_22  and  O_25
REMARK    6  A    between atoms: O_25  and  C_26
REMARK    7  A    between atoms: C_30  and  C_33
REMARK                            x       y       z     vdW  Elec       q    Type
REMARK                         _______ _______ _______ _____ _____    ______ ____
ROOT
ATOM      1  N   UNL     1       3.867   8.998   2.696  0.00  0.00    -0.299 N 
ATOM      2  C   UNL     1       3.541   8.532   1.474  0.00  0.00    +0.307 C 
ATOM      3  O   UNL     1       4.360   8.557   0.576  0.00  0.00    -0.252 OA
ATOM      4  N   UNL     1       2.308   8.038   1.248  0.00  0.00    -0.242 N 
ATOM      5  C   UNL     1       1.377   8.015   2.288  0.00  0.00    +0.060 A 
ATOM      6  C   UNL     1       0.848   9.184   2.811  0.00  0.00    +0.025 A 
ATOM      7  C   UNL     1      -0.152   9.111   3.765  0.00  0.00    +0.002 A 
ATOM      8  C   UNL     1      -0.620   7.882   4.195  0.00  0.00    +0.002 A 
ATOM      9  C   UNL     1      -0.079   6.713   3.690  0.00  0.00    +0.025 A 
ATOM     10  C   UNL     1       0.933   6.785   2.748  0.00  0.00    +0.053 A 
ATOM     11  N   UNL     1       1.551   5.652   2.233  0.00  0.00    -0.316 N 
ATOM     12  C   UNL     1       1.487   5.257   0.936  0.00  0.00    +0.017 C 
ATOM     13  C   UNL     1       1.675   6.061  -0.123  0.00  0.00    +0.037 C 
ATOM     14  C   UNL     1       1.970   7.541  -0.070  0.00  0.00    +0.148 C 
ATOM     15  C   UNL     1       1.607   5.539  -1.436  0.00  0.00    +0.163 C 
ATOM     16  O   UNL     1       1.758   6.294  -2.376  0.00  0.00    -0.292 OA
ATOM     17  C   UNL     1       1.354   4.086  -1.710  0.00  0.00    +0.091 C 
ATOM     18  C   UNL     1       1.870   3.268  -0.521  0.00  0.00    +0.068 C 
ATOM     19  C   UNL     1       1.172   3.783   0.737  0.00  0.00    +0.063 C 
ATOM     20  H   UNL     1       3.126   8.975   3.509  0.00  0.00    +0.150 HD
ATOM     21  H   UNL     1       2.144   5.001   2.893  0.00  0.00    +0.152 HD
ENDROOT
BRANCH  14  22
ATOM     22  C   UNL     1       0.759   8.288  -0.567  0.00  0.00    -0.022 A 
ATOM     23  C   UNL     1      -0.436   8.202   0.124  0.00  0.00    +0.009 A 
ATOM     24  C   UNL     1      -1.546   8.890  -0.326  0.00  0.00    +0.046 A 
ATOM     25  C   UNL     1      -1.464   9.659  -1.478  0.00  0.00    +0.120 A 
ATOM     26  C   UNL     1      -0.266   9.739  -2.172  0.00  0.00    +0.046 A 
ATOM     27  C   UNL     1       0.843   9.053  -1.715  0.00  0.00    +0.009 A 
BRANCH  25  28
ATOM     28  O   UNL     1      -2.556  10.332  -1.926  0.00  0.00    -0.495 OA
ATOM     29  C   UNL     1      -3.756  10.204  -1.161  0.00  0.00    +0.277 C 
ENDBRANCH  25  28
ENDBRANCH  14  22
BRANCH  18  30
ATOM     30  C   UNL     1       1.545   1.810  -0.724  0.00  0.00    +0.109 A 
ATOM     31  C   UNL     1       2.438   0.808  -0.796  0.00  0.00    +0.045 A 
ATOM     32  C   UNL     1       1.703  -0.384  -0.991  0.00  0.00    +0.041 A 
ATOM     33  C   UNL     1       0.403  -0.038  -1.027  0.00  0.00    +0.195 A 
ATOM     34  O   UNL     1       0.314   1.292  -0.864  0.00  0.00    -0.468 OA
ENDBRANCH  18  30
BRANCH   1  35
ATOM     35  C   UNL     1       5.208   9.534   2.942  0.00  0.00    +0.105 C 
BRANCH  35  37
ATOM     36  C   UNL     1       6.715  10.552   4.655  0.00  0.00    +0.005 C 
ATOM     37  C   UNL     1       5.315   9.992   4.398  0.00  0.00    +0.015 C 
ENDBRANCH  35  37
ENDBRANCH   1  35
TORSDOF 5
