REMARK  Name = ZINC09366073
REMARK  4 active torsions:
REMARK  status: ('A' for Active; 'I' for Inactive)
REMARK    1  A    between atoms: C_1  and  C_2
REMARK    2  A    between atoms: N_11  and  C_15
REMARK    3  A    between atoms: C_15  and  C_16
REMARK    4  A    between atoms: C_19  and  C_21
REMARK                            x       y       z     vdW  Elec       q    Type
REMARK                         _______ _______ _______ _____ _____    ______ ____
ROOT
ATOM      1  C   UNL     1      -2.737   9.314   2.681  0.00  0.00    +0.010 C 
ATOM      2  C   UNL     1      -3.096   8.397   3.852  0.00  0.00    +0.018 C 
ATOM      3  C   UNL     1      -4.611   8.419   4.071  0.00  0.00    +0.006 C 
ATOM      4  C   UNL     1      -4.971   7.486   5.229  0.00  0.00    +0.000 C 
ATOM      5  C   UNL     1      -4.536   6.059   4.890  0.00  0.00    +0.003 C 
ATOM      6  C   UNL     1      -3.021   6.027   4.674  0.00  0.00    +0.035 C 
ATOM      7  C   UNL     1      -2.646   6.974   3.539  0.00  0.00    +0.115 C 
ATOM      8  C   UNL     1      -3.252   6.508   2.235  0.00  0.00    +0.247 C 
ATOM      9  O   UNL     1      -4.430   6.386   1.976  0.00  0.00    -0.273 OA
ATOM     10  N   UNL     1      -2.206   6.253   1.422  0.00  0.00    -0.218 N 
ATOM     11  C   UNL     1      -1.039   6.501   2.028  0.00  0.00    +0.310 C 
ATOM     12  O   UNL     1       0.044   6.351   1.497  0.00  0.00    -0.252 OA
ATOM     13  N   UNL     1      -1.199   6.935   3.293  0.00  0.00    -0.285 N 
ATOM     14  H   UNL     1      -0.497   7.174   3.918  0.00  0.00    +0.151 HD
ENDROOT
BRANCH  10  15
ATOM     15  C   UNL     1      -2.333   5.772   0.044  0.00  0.00    +0.173 C 
BRANCH  15  16
ATOM     16  C   UNL     1      -2.334   4.265   0.036  0.00  0.00    +0.067 A 
ATOM     17  C   UNL     1      -3.510   3.586   0.038  0.00  0.00    +0.072 A 
ATOM     18  S   UNL     1      -2.918   1.898   0.019  0.00  0.00    -0.075 S 
ATOM     19  C   UNL     1      -1.171   2.280   0.020  0.00  0.00    +0.115 A 
ATOM     20  N   UNL     1      -1.197   3.607   0.028  0.00  0.00    -0.242 NA
BRANCH  19  21
ATOM     21  C   UNL     1      -0.017   1.368   0.010  0.00  0.00    +0.044 A 
ATOM     22  C   UNL     1       0.002  -0.004   0.002  0.00  0.00    +0.018 A 
ATOM     23  C   UNL     1       1.218  -0.648  -0.013  0.00  0.00    +0.008 A 
ATOM     24  C   UNL     1       2.359   0.090  -0.020  0.00  0.00    +0.046 A 
ATOM     25  S   UNL     1       1.726   1.759  -0.005  0.00  0.00    -0.095 S 
ENDBRANCH  19  21
ENDBRANCH  15  16
ENDBRANCH  10  15
TORSDOF 3
