REMARK  Name = ZINC39652776
REMARK  9 active torsions:
REMARK  status: ('A' for Active; 'I' for Inactive)
REMARK    1  A    between atoms: C_1  and  C_2
REMARK    2  A    between atoms: C_2  and  O_3
REMARK    3  A    between atoms: O_3  and  C_4
REMARK    4  A    between atoms: C_9  and  C_10
REMARK    5  A    between atoms: C_10  and  C_11
REMARK    6  A    between atoms: C_11  and  N_12
REMARK    7  A    between atoms: C_13  and  C_15
REMARK    8  A    between atoms: C_26  and  C_28
REMARK    9  A    between atoms: C_31  and  C_33
REMARK                            x       y       z     vdW  Elec       q    Type
REMARK                         _______ _______ _______ _____ _____    ______ ____
ROOT
ATOM      1  C   UNL     1      -7.203   1.180  -2.525  0.00  0.00    +0.100 C 
ATOM      2  C   UNL     1      -8.457   0.388  -2.092  0.00  0.00    +0.121 C 
ATOM      3  N   UNL     1      -9.553   0.939  -2.925  0.00  0.00    -0.294 N 
ATOM      4  C   UNL     1      -8.934   1.149  -4.256  0.00  0.00    +0.115 C 
ATOM      5  C   UNL     1      -7.519   1.677  -3.945  0.00  0.00    -0.004 C 
ATOM      6  C   UNL     1      -6.514   1.106  -4.941  0.00  0.00    -0.010 C 
ATOM      7  C   UNL     1      -6.813   1.661  -6.337  0.00  0.00    -0.082 C 
ATOM      8  N   UNL     1      -6.730   3.126  -6.311  0.00  0.00    +0.379 N 
ATOM      9  C   UNL     1      -7.763   3.671  -5.422  0.00  0.00    -0.082 C 
ATOM     10  C   UNL     1      -7.504   3.202  -3.988  0.00  0.00    -0.010 C 
ATOM     11  C   UNL     1     -10.824   1.191  -2.556  0.00  0.00    +0.282 C 
ATOM     12  O   UNL     1     -11.613   1.647  -3.363  0.00  0.00    -0.267 OA
ATOM     13  H   UNL     1      -5.820   3.404  -5.978  0.00  0.00    -0.086 HD
ATOM     14  H   UNL     1      -6.868   3.485  -7.244  0.00  0.00    -0.086 HD
ENDROOT
BRANCH  11  15
ATOM     15  C   UNL     1     -11.256   0.917  -1.183  0.00  0.00    +0.190 A 
ATOM     16  C   UNL     1     -12.521   1.123  -0.677  0.00  0.00    +0.055 A 
ATOM     17  C   UNL     1     -12.488   0.729   0.664  0.00  0.00    +0.050 A 
ATOM     18  C   UNL     1     -11.218   0.302   0.926  0.00  0.00    +0.136 A 
ATOM     19  O   UNL     1     -10.486   0.414  -0.195  0.00  0.00    -0.450 OA
BRANCH  18  20
ATOM     20  C   UNL     1     -10.731  -0.205   2.224  0.00  0.00    +0.017 A 
ATOM     21  C   UNL     1     -11.598  -0.283   3.317  0.00  0.00    +0.014 A 
ATOM     22  C   UNL     1     -11.138  -0.758   4.526  0.00  0.00    +0.039 A 
ATOM     23  C   UNL     1      -9.817  -1.157   4.660  0.00  0.00    +0.123 A 
ATOM     24  C   UNL     1      -8.951  -1.081   3.580  0.00  0.00    +0.039 A 
ATOM     25  C   UNL     1      -9.402  -0.613   2.364  0.00  0.00    +0.014 A 
ATOM     26  F   UNL     1      -9.371  -1.621   5.848  0.00  0.00    -0.205 F 
ENDBRANCH  18  20
ENDBRANCH  11  15
BRANCH   1  28
ATOM     27  N   UNL     1      -4.768   0.794  -2.317  0.00  0.00    -0.315 N 
ATOM     28  C   UNL     1      -5.994   0.280  -2.541  0.00  0.00    +0.218 C 
ATOM     29  O   UNL     1      -6.124  -0.907  -2.754  0.00  0.00    -0.275 OA
ATOM     30  H   UNL     1      -4.664   1.743  -2.146  0.00  0.00    +0.149 HD
BRANCH  27  31
ATOM     31  C   UNL     1      -3.593  -0.081  -2.333  0.00  0.00    +0.109 C 
BRANCH  31  32
ATOM     32  C   UNL     1      -2.337   0.747  -2.054  0.00  0.00    +0.057 C 
BRANCH  32  38
ATOM     33  C   UNL     1      -0.502  -0.453  -3.270  0.00  0.00    +0.124 A 
ATOM     34  C   UNL     1       0.614  -1.277  -3.281  0.00  0.00    +0.046 A 
ATOM     35  C   UNL     1       1.095  -1.802  -2.097  0.00  0.00    +0.004 A 
ATOM     36  C   UNL     1       0.465  -1.505  -0.902  0.00  0.00    +0.000 A 
ATOM     37  C   UNL     1      -0.647  -0.684  -0.888  0.00  0.00    +0.007 A 
ATOM     38  C   UNL     1      -1.129  -0.153  -2.069  0.00  0.00    -0.004 A 
BRANCH  33  39
ATOM     39  O   UNL     1      -0.977   0.065  -4.434  0.00  0.00    -0.492 OA
BRANCH  39  41
ATOM     40  C   UNL     1      -0.958   0.385  -6.829  0.00  0.00    +0.048 C 
ATOM     41  C   UNL     1      -0.282  -0.287  -5.631  0.00  0.00    +0.225 C 
ENDBRANCH  39  41
ENDBRANCH  33  39
ENDBRANCH  32  38
ENDBRANCH  31  32
ENDBRANCH  27  31
ENDBRANCH   1  28
TORSDOF 8
