REMARK  Name = ZINC26389789
REMARK  10 active torsions:
REMARK  status: ('A' for Active; 'I' for Inactive)
REMARK    1  A    between atoms: C_1  and  C_2
REMARK    2  A    between atoms: C_2  and  C_3
REMARK    3  A    between atoms: C_2  and  C_4
REMARK    4  A    between atoms: C_4  and  C_5
REMARK    5  A    between atoms: N_7  and  C_8
REMARK    6  A    between atoms: C_11  and  N_14
REMARK    7  A    between atoms: C_15  and  C_17
REMARK    8  A    between atoms: C_17  and  N_18
REMARK    9  A    between atoms: C_19  and  C_21
REMARK   10  A    between atoms: C_24  and  C_27
REMARK                            x       y       z     vdW  Elec       q    Type
REMARK                         _______ _______ _______ _____ _____    ______ ____
ROOT
ATOM      1  N   UNL     1      -4.421   3.760   0.736  0.00  0.00    -0.284 N 
ATOM      2  C   UNL     1      -4.466   5.106   0.785  0.00  0.00    +0.234 C 
ATOM      3  O   UNL     1      -3.439   5.750   0.748  0.00  0.00    -0.274 OA
ATOM      4  H   UNL     1      -5.346   3.174   0.846  0.00  0.00    +0.155 HD
ENDROOT
BRANCH   1   8
ATOM      5  C   UNL     1      -0.776   1.817   0.166  0.00  0.00    +0.033 A 
ATOM      6  C   UNL     1      -0.830   2.986   0.914  0.00  0.00    +0.025 A 
ATOM      7  C   UNL     1      -2.036   3.632   1.098  0.00  0.00    +0.025 A 
ATOM      8  C   UNL     1      -3.197   3.107   0.545  0.00  0.00    +0.034 A 
ATOM      9  C   UNL     1      -3.143   1.935  -0.199  0.00  0.00    +0.025 A 
ATOM     10  C   UNL     1      -1.937   1.292  -0.387  0.00  0.00    +0.025 A 
BRANCH   5  13
ATOM     11  C   UNL     1       0.702   0.534  -1.190  0.00  0.00    +0.217 C 
ATOM     12  O   UNL     1      -0.159   0.466  -2.042  0.00  0.00    -0.275 OA
ATOM     13  N   UNL     1       0.448   1.164  -0.025  0.00  0.00    -0.285 N 
ATOM     14  H   UNL     1       1.203   1.165   0.775  0.00  0.00    +0.155 HD
BRANCH  11  15
ATOM     15  C   UNL     1       2.054  -0.084  -1.433  0.00  0.00    +0.099 C 
BRANCH  15  17
ATOM     16  C   UNL     1       3.486  -1.247  -3.118  0.00  0.00    +0.008 C 
ATOM     17  C   UNL     1       2.078  -0.729  -2.820  0.00  0.00    -0.008 C 
ATOM     18  C   UNL     1       1.087  -1.895  -2.857  0.00  0.00    +0.008 C 
ENDBRANCH  15  17
ENDBRANCH  11  15
ENDBRANCH   5  13
ENDBRANCH   1   8
BRANCH   2  19
ATOM     19  C   UNL     1      -5.794   5.812   0.886  0.00  0.00    +0.200 C 
BRANCH  19  20
ATOM     20  N   UNL     1      -5.575   7.260   0.924  0.00  0.00    -0.303 N 
ATOM     21  C   UNL     1      -6.627   8.098   1.014  0.00  0.00    +0.244 C 
ATOM     22  O   UNL     1      -7.757   7.653   1.064  0.00  0.00    -0.270 OA
ATOM     23  H   UNL     1      -4.553   7.663   0.879  0.00  0.00    +0.150 HD
BRANCH  21  24
ATOM     24  C   UNL     1      -6.407   9.559   1.052  0.00  0.00    +0.037 A 
ATOM     25  C   UNL     1      -5.108  10.071   1.000  0.00  0.00    +0.013 A 
ATOM     26  C   UNL     1      -4.904  11.432   1.031  0.00  0.00    +0.009 A 
ATOM     27  C   UNL     1      -5.993  12.299   1.124  0.00  0.00    -0.018 A 
ATOM     28  C   UNL     1      -7.290  11.789   1.180  0.00  0.00    +0.009 A 
ATOM     29  C   UNL     1      -7.497  10.428   1.145  0.00  0.00    +0.013 A 
BRANCH  27  30
ATOM     30  C   UNL     1      -5.772  13.765   1.162  0.00  0.00    -0.018 A 
ATOM     31  C   UNL     1      -6.858  14.634   1.249  0.00  0.00    +0.008 A 
ATOM     32  C   UNL     1      -6.646  15.998   1.289  0.00  0.00    +0.001 A 
ATOM     33  C   UNL     1      -5.359  16.502   1.233  0.00  0.00    +0.000 A 
ATOM     34  C   UNL     1      -4.277  15.644   1.141  0.00  0.00    +0.001 A 
ATOM     35  C   UNL     1      -4.477  14.279   1.105  0.00  0.00    +0.008 A 
ENDBRANCH  27  30
ENDBRANCH  21  24
ENDBRANCH  19  20
ENDBRANCH   2  19
TORSDOF 8
