REMARK  Name = ZINC44844321
REMARK  12 active torsions:
REMARK  status: ('A' for Active; 'I' for Inactive)
REMARK    1  A    between atoms: C_1  and  C_2
REMARK    2  A    between atoms: C_2  and  N_3
REMARK    3  A    between atoms: N_3  and  C_4
REMARK    4  A    between atoms: N_3  and  C_6
REMARK    5  A    between atoms: C_4  and  C_5
REMARK    6  A    between atoms: C_6  and  C_7
REMARK    7  A    between atoms: C_10  and  N_13
REMARK    8  A    between atoms: C_14  and  C_16
REMARK    9  A    between atoms: C_18  and  N_23
REMARK   10  A    between atoms: N_23  and  S_24
REMARK   11  A    between atoms: S_24  and  C_27
REMARK   12  A    between atoms: C_30  and  C_33
REMARK                            x       y       z     vdW  Elec       q    Type
REMARK                         _______ _______ _______ _____ _____    ______ ____
ROOT
ATOM      1  C   UNL     1      -0.250  -4.230   7.728  0.00  0.00    +0.057 A 
ATOM      2  C   UNL     1       1.072  -4.461   8.113  0.00  0.00    +0.039 A 
ATOM      3  C   UNL     1       1.347  -4.911   9.394  0.00  0.00    +0.049 A 
ATOM      4  C   UNL     1       0.308  -5.132  10.292  0.00  0.00    +0.026 A 
ATOM      5  C   UNL     1      -1.001  -4.904   9.912  0.00  0.00    +0.022 A 
ATOM      6  C   UNL     1      -1.286  -4.449   8.639  0.00  0.00    +0.053 A 
ATOM      7 CL   UNL     1      -2.932  -4.158   8.169  0.00  0.00    -0.083 Cl
ENDROOT
BRANCH   1   9
ATOM      8  N   UNL     1       0.450  -3.539   5.486  0.00  0.00    -0.281 N 
ATOM      9  C   UNL     1      -0.551  -3.749   6.363  0.00  0.00    +0.250 C 
ATOM     10  O   UNL     1      -1.703  -3.544   6.032  0.00  0.00    -0.270 OA
ATOM     11  H   UNL     1       1.361  -3.773   5.725  0.00  0.00    +0.155 HD
BRANCH   8  15
ATOM     12  C   UNL     1      -0.364  -1.882   1.752  0.00  0.00    -0.064 A 
ATOM     13  C   UNL     1      -1.096  -1.486   2.857  0.00  0.00    +0.003 A 
ATOM     14  C   UNL     1      -0.828  -2.034   4.097  0.00  0.00    +0.023 A 
ATOM     15  C   UNL     1       0.176  -2.983   4.233  0.00  0.00    +0.034 A 
ATOM     16  C   UNL     1       0.909  -3.379   3.121  0.00  0.00    +0.023 A 
ATOM     17  C   UNL     1       0.633  -2.831   1.883  0.00  0.00    +0.003 A 
BRANCH  12  18
ATOM     18  C   UNL     1      -0.659  -1.283   0.402  0.00  0.00    -0.043 C 
BRANCH  18  19
ATOM     19  N   UNL     1      -1.677  -2.091  -0.282  0.00  0.00    +0.382 N 
ATOM     20  H   UNL     1      -1.370  -3.051  -0.326  0.00  0.00    -0.081 HD
BRANCH  19  22
ATOM     21  C   UNL     1      -3.963  -2.964  -0.171  0.00  0.00    -0.017 C 
ATOM     22  C   UNL     1      -2.942  -2.015   0.461  0.00  0.00    -0.082 C 
ENDBRANCH  19  22
BRANCH  19  23
ATOM     23  C   UNL     1      -1.878  -1.578  -1.643  0.00  0.00    -0.082 C 
ATOM     24  C   UNL     1      -0.601  -1.787  -2.460  0.00  0.00    -0.017 C 
ENDBRANCH  19  23
ENDBRANCH  18  19
ENDBRANCH  12  18
ENDBRANCH   8  15
ENDBRANCH   1   9
BRANCH   3  25
ATOM     25  N   UNL     1       2.668  -5.144   9.784  0.00  0.00    -0.216 N 
ATOM     26  H   UNL     1       3.267  -5.636   9.200  0.00  0.00    +0.174 HD
BRANCH  25  27
ATOM     27  S   UNL     1       3.213  -4.581  11.243  0.00  0.00    +0.072 S 
ATOM     28  O   UNL     1       2.303  -5.056  12.226  0.00  0.00    -0.150 OA
ATOM     29  O   UNL     1       4.604  -4.863  11.294  0.00  0.00    -0.150 OA
BRANCH  27  30
ATOM     30  C   UNL     1       3.055  -2.826  11.216  0.00  0.00    +0.109 A 
ATOM     31  C   UNL     1       4.053  -2.051  10.655  0.00  0.00    +0.029 A 
ATOM     32  C   UNL     1       3.929  -0.675  10.634  0.00  0.00    +0.005 A 
ATOM     33  C   UNL     1       2.807  -0.073  11.173  0.00  0.00    -0.050 A 
ATOM     34  C   UNL     1       1.809  -0.848  11.733  0.00  0.00    +0.005 A 
ATOM     35  C   UNL     1       1.931  -2.225  11.751  0.00  0.00    +0.029 A 
ATOM     36  C   UNL     1       2.672   1.428  11.151  0.00  0.00    +0.044 C 
ENDBRANCH  27  30
ENDBRANCH  25  27
ENDBRANCH   3  25
TORSDOF 9
