REMARK  Name = ZINC35889243
REMARK  4 active torsions:
REMARK  status: ('A' for Active; 'I' for Inactive)
REMARK    1  A    between atoms: C_1  and  C_2
REMARK    2  A    between atoms: C_11  and  C_23
REMARK    3  A    between atoms: N_15  and  C_16
REMARK    4  A    between atoms: C_16  and  C_17
REMARK                            x       y       z     vdW  Elec       q    Type
REMARK                         _______ _______ _______ _____ _____    ______ ____
ROOT
ATOM      1  C   UNL     1      -0.273   1.317   0.186  0.00  0.00    +0.044 C 
ATOM      2  C   UNL     1      -0.366  -0.173   0.391  0.00  0.00    -0.050 A 
ATOM      3  C   UNL     1      -0.554  -1.008  -0.701  0.00  0.00    +0.005 A 
ATOM      4  C   UNL     1      -0.642  -2.372  -0.538  0.00  0.00    +0.029 A 
ATOM      5  C   UNL     1      -0.541  -2.926   0.740  0.00  0.00    +0.078 A 
ATOM      6  C   UNL     1      -0.349  -2.073   1.850  0.00  0.00    +0.045 A 
ATOM      7  C   UNL     1      -0.258  -0.696   1.662  0.00  0.00    +0.017 A 
ATOM      8  C   UNL     1      -0.248  -2.687   3.178  0.00  0.00    +0.173 A 
ATOM      9  N   UNL     1      -0.076  -2.240   4.399  0.00  0.00    -0.129 NA
ATOM     10  N   UNL     1      -0.061  -3.228   5.223  0.00  0.00    -0.133 NA
ATOM     11  C   UNL     1      -0.221  -4.356   4.582  0.00  0.00    +0.143 A 
ATOM     12  N   UNL     1      -0.346  -4.058   3.259  0.00  0.00    -0.250 N 
ATOM     13  C   UNL     1      -0.530  -4.802   2.124  0.00  0.00    +0.203 A 
ATOM     14  N   UNL     1      -0.624  -4.266   0.936  0.00  0.00    -0.215 NA
ATOM     15  N   UNL     1      -0.624  -6.168   2.240  0.00  0.00    -0.312 N 
ATOM     16  H   UNL     1      -0.468  -6.594   3.098  0.00  0.00    +0.149 HD
ENDROOT
BRANCH  11  17
ATOM     17  C   UNL     1      -0.259  -5.732   5.194  0.00  0.00    +0.058 C 
ATOM     18  C   UNL     1      -1.581  -5.921   5.941  0.00  0.00    +0.011 C 
ATOM     19  C   UNL     1      -1.620  -7.319   6.563  0.00  0.00    +0.001 C 
ATOM     20  C   UNL     1      -0.454  -7.475   7.542  0.00  0.00    +0.000 C 
ATOM     21  C   UNL     1       0.868  -7.285   6.795  0.00  0.00    +0.001 C 
ATOM     22  C   UNL     1       0.907  -5.888   6.173  0.00  0.00    +0.011 C 
ENDBRANCH  11  17
BRANCH  15  23
ATOM     23  C   UNL     1      -0.959  -6.981   1.069  0.00  0.00    +0.136 C 
BRANCH  23  24
ATOM     24  C   UNL     1      -0.998  -8.458   1.467  0.00  0.00    +0.135 C 
ATOM     25  C   UNL     1      -1.231  -9.332   0.216  0.00  0.00    +0.035 C 
ATOM     26  C   UNL     1      -2.196 -10.425   0.752  0.00  0.00    +0.031 C 
ATOM     27  C   UNL     1      -3.023  -9.609   1.778  0.00  0.00    +0.160 C 
ATOM     28  O   UNL     1      -2.088  -8.689   2.368  0.00  0.00    -0.375 OA
ENDBRANCH  23  24
ENDBRANCH  15  23
TORSDOF 3
