REMARK  Name = ZINC50841935
REMARK  5 active torsions:
REMARK  status: ('A' for Active; 'I' for Inactive)
REMARK    1  A    between atoms: C_1  and  C_2
REMARK    2  A    between atoms: C_2  and  C_3
REMARK    3  A    between atoms: C_3  and  C_4
REMARK    4  A    between atoms: C_10  and  C_13
REMARK    5  A    between atoms: C_19  and  C_22
REMARK                            x       y       z     vdW  Elec       q    Type
REMARK                         _______ _______ _______ _____ _____    ______ ____
ROOT
ATOM      1  C   UNL     1       0.987  -6.159   3.647  0.00  0.00    +0.220 C 
ATOM      2  O   UNL     1       2.030  -6.647   4.026  0.00  0.00    -0.275 OA
ATOM      3  N   UNL     1      -0.039  -6.957   3.287  0.00  0.00    -0.296 N 
ATOM      4  C   UNL     1      -1.270  -6.394   2.710  0.00  0.00    +0.136 C 
ATOM      5  C   UNL     1      -1.592  -7.158   1.421  0.00  0.00    +0.180 C 
ATOM      6  O   UNL     1      -1.603  -8.561   1.695  0.00  0.00    -0.364 OA
ATOM      7  C   UNL     1      -0.346  -9.081   2.134  0.00  0.00    +0.221 C 
ATOM      8  C   UNL     1       0.043  -8.416   3.455  0.00  0.00    +0.149 C 
ENDROOT
BRANCH   1  15
ATOM      9  C   UNL     1       0.740  -2.009   1.251  0.00  0.00    +0.216 C 
ATOM     10  O   UNL     1       0.208  -2.614   0.345  0.00  0.00    -0.276 OA
ATOM     11  N   UNL     1       1.350  -2.683   2.246  0.00  0.00    -0.301 N 
ATOM     12  C   UNL     1       1.993  -1.963   3.354  0.00  0.00    +0.108 C 
ATOM     13  C   UNL     1       1.436  -2.497   4.677  0.00  0.00    +0.020 C 
ATOM     14  C   UNL     1       1.616  -4.016   4.726  0.00  0.00    +0.016 C 
ATOM     15  C   UNL     1       0.836  -4.661   3.578  0.00  0.00    +0.092 C 
ATOM     16  C   UNL     1       1.380  -4.152   2.245  0.00  0.00    +0.120 C 
BRANCH   9  17
ATOM     17  C   UNL     1       0.717  -0.502   1.266  0.00  0.00    +0.096 C 
BRANCH  17  19
ATOM     18  C   UNL     1      -0.055   1.539   0.048  0.00  0.00    +0.004 C 
ATOM     19  C   UNL     1      -0.033   0.009   0.033  0.00  0.00    +0.006 C 
ENDBRANCH  17  19
ENDBRANCH   9  17
ENDBRANCH   1  15
BRANCH   7  20
ATOM     20  C   UNL     1      -0.459 -10.571   2.331  0.00  0.00    +0.241 C 
ATOM     21  O   UNL     1      -1.533 -11.120   2.205  0.00  0.00    -0.273 OA
ATOM     22  N   UNL     1       0.634 -11.294   2.648  0.00  0.00    -0.327 N 
ATOM     23  H   UNL     1       1.493 -10.855   2.749  0.00  0.00    +0.145 HD
ATOM     24  H   UNL     1       0.561 -12.253   2.775  0.00  0.00    +0.145 HD
ENDBRANCH   7  20
TORSDOF 4
