REMARK  Name = ZINC38705160
REMARK  11 active torsions:
REMARK  status: ('A' for Active; 'I' for Inactive)
REMARK    1  A    between atoms: C_1  and  C_2
REMARK    2  A    between atoms: C_2  and  C_3
REMARK    3  A    between atoms: C_3  and  O_4
REMARK    4  A    between atoms: O_4  and  C_5
REMARK    5  A    between atoms: C_8  and  C_11
REMARK    6  A    between atoms: C_14  and  C_30
REMARK    7  A    between atoms: N_21  and  C_22
REMARK    8  A    between atoms: C_22  and  C_23
REMARK    9  A    between atoms: C_31  and  C_38
REMARK   10  A    between atoms: C_33  and  C_37
REMARK   11  A    between atoms: C_35  and  O_36
REMARK                            x       y       z     vdW  Elec       q    Type
REMARK                         _______ _______ _______ _____ _____    ______ ____
ROOT
ATOM      1  C   UNL     1      -6.426  -4.584   0.033  0.00  0.00    +0.142 C 
ATOM      2  C   UNL     1      -6.677  -5.172   1.395  0.00  0.00    +0.035 A 
ATOM      3  C   UNL     1      -6.845  -4.944   2.765  0.00  0.00    +0.102 A 
ATOM      4  N   UNL     1      -7.045  -6.115   3.338  0.00  0.00    -0.173 NA
ATOM      5  N   UNL     1      -7.018  -7.059   2.465  0.00  0.00    -0.272 N 
ATOM      6  H   UNL     1      -7.142  -8.001   2.660  0.00  0.00    +0.189 HD
ATOM      7  C   UNL     1      -6.791  -6.538   1.223  0.00  0.00    +0.126 A 
ATOM      8  C   UNL     1      -6.623  -6.845  -0.202  0.00  0.00    +0.266 C 
ATOM      9  O   UNL     1      -6.670  -7.961  -0.682  0.00  0.00    -0.268 OA
ATOM     10  N   UNL     1      -6.411  -5.715  -0.903  0.00  0.00    -0.281 N 
ENDROOT
BRANCH   3  11
ATOM     11  C   UNL     1      -6.807  -3.627   3.448  0.00  0.00    +0.047 A 
ATOM     12  C   UNL     1      -6.016  -3.450   4.581  0.00  0.00    -0.037 A 
ATOM     13  C   UNL     1      -5.983  -2.224   5.213  0.00  0.00    +0.007 A 
ATOM     14  C   UNL     1      -6.734  -1.168   4.725  0.00  0.00    -0.047 A 
ATOM     15  C   UNL     1      -7.522  -1.334   3.602  0.00  0.00    +0.049 A 
ATOM     16  C   UNL     1      -7.559  -2.558   2.954  0.00  0.00    +0.127 A 
ATOM     17  C   UNL     1      -6.692   0.167   5.422  0.00  0.00    +0.044 C 
ATOM     18  C   UNL     1      -5.197  -4.597   5.116  0.00  0.00    +0.044 C 
BRANCH  16  19
ATOM     19  O   UNL     1      -8.328  -2.720   1.846  0.00  0.00    -0.506 OA
ATOM     20  H   UNL     1      -9.251  -2.937   2.037  0.00  0.00    +0.292 HD
ENDBRANCH  16  19
ENDBRANCH   3  11
BRANCH   1  24
ATOM     21  C   UNL     1      -2.657  -2.571  -0.029  0.00  0.00    +0.121 A 
ATOM     22  C   UNL     1      -3.834  -1.845  -0.129  0.00  0.00    +0.046 A 
ATOM     23  C   UNL     1      -5.051  -2.498  -0.109  0.00  0.00    +0.009 A 
ATOM     24  C   UNL     1      -5.097  -3.874   0.011  0.00  0.00    -0.022 A 
ATOM     25  C   UNL     1      -3.925  -4.601   0.112  0.00  0.00    +0.009 A 
ATOM     26  C   UNL     1      -2.705  -3.953   0.086  0.00  0.00    +0.046 A 
BRANCH  21  27
ATOM     27  O   UNL     1      -1.458  -1.932  -0.049  0.00  0.00    -0.492 OA
BRANCH  27  28
ATOM     28  C   UNL     1      -1.484  -0.508  -0.169  0.00  0.00    +0.229 C 
BRANCH  28  30
ATOM     29  C   UNL     1      -0.081   1.555  -0.303  0.00  0.00    +0.007 C 
ATOM     30  C   UNL     1      -0.052   0.030  -0.174  0.00  0.00    +0.038 C 
ENDBRANCH  28  30
ENDBRANCH  27  28
ENDBRANCH  21  27
ENDBRANCH   1  24
BRANCH  10  31
ATOM     31  C   UNL     1      -6.201  -5.628  -2.350  0.00  0.00    +0.145 C 
BRANCH  31  32
ATOM     32  C   UNL     1      -4.728  -5.741  -2.652  0.00  0.00    -0.012 A 
ATOM     33  C   UNL     1      -3.985  -4.603  -2.901  0.00  0.00    +0.006 A 
ATOM     34  C   UNL     1      -2.634  -4.706  -3.178  0.00  0.00    +0.000 A 
ATOM     35  C   UNL     1      -2.026  -5.948  -3.204  0.00  0.00    +0.001 A 
ATOM     36  C   UNL     1      -2.769  -7.087  -2.955  0.00  0.00    +0.020 A 
ATOM     37  C   UNL     1      -4.120  -6.983  -2.672  0.00  0.00    +0.046 A 
ATOM     38 CL   UNL     1      -5.051  -8.412  -2.352  0.00  0.00    -0.083 Cl
ENDBRANCH  31  32
ENDBRANCH  10  31
TORSDOF 8
