REMARK  Name = ZINC32519494
REMARK  11 active torsions:
REMARK  status: ('A' for Active; 'I' for Inactive)
REMARK    1  A    between atoms: C_1  and  C_2
REMARK    2  A    between atoms: C_2  and  C_3
REMARK    3  A    between atoms: C_2  and  N_4
REMARK    4  A    between atoms: C_5  and  C_7
REMARK    5  A    between atoms: C_10  and  N_25
REMARK    6  A    between atoms: N_13  and  C_14
REMARK    7  A    between atoms: C_14  and  C_15
REMARK    8  A    between atoms: N_25  and  C_26
REMARK    9  A    between atoms: C_26  and  C_27
REMARK   10  A    between atoms: C_31  and  O_33
REMARK   11  A    between atoms: O_33  and  C_34
REMARK                            x       y       z     vdW  Elec       q    Type
REMARK                         _______ _______ _______ _____ _____    ______ ____
ROOT
ATOM      1  C   UNL     1       0.683  -0.355   4.519  0.00  0.00    +0.021 C 
ATOM      2  C   UNL     1       1.139  -1.816   4.348  0.00  0.00    +0.010 C 
ATOM      3  C   UNL     1       0.526  -2.573   5.549  0.00  0.00    +0.036 C 
ATOM      4  C   UNL     1       0.272  -1.443   6.578  0.00  0.00    -0.059 C 
ATOM      5  N   UNL     1      -0.162  -0.299   5.731  0.00  0.00    +0.391 N 
ATOM      6  H   UNL     1      -1.135  -0.401   5.483  0.00  0.00    -0.080 HD
ENDROOT
BRANCH   1   8
ATOM      7  N   UNL     1       0.459   0.094   2.097  0.00  0.00    -0.314 N 
ATOM      8  C   UNL     1      -0.116   0.077   3.316  0.00  0.00    +0.200 C 
ATOM      9  O   UNL     1      -1.275   0.410   3.445  0.00  0.00    -0.278 OA
ATOM     10  H   UNL     1       1.385  -0.172   1.993  0.00  0.00    +0.149 HD
BRANCH   7  12
ATOM     11  C   UNL     1      -0.274   2.039   0.808  0.00  0.00    +0.027 C 
ATOM     12  C   UNL     1      -0.318   0.514   0.928  0.00  0.00    +0.067 C 
ATOM     13  C   UNL     1       0.279  -0.114  -0.334  0.00  0.00    +0.027 C 
ENDBRANCH   7  12
ENDBRANCH   1   8
BRANCH   3  14
ATOM     14  N   UNL     1       1.475  -3.561   6.080  0.00  0.00    -0.311 NA
ATOM     15  H   UNL     1       2.420  -3.207   6.049  0.00  0.00    +0.122 HD
BRANCH  14  16
ATOM     16  C   UNL     1       1.367  -4.836   5.359  0.00  0.00    +0.116 C 
BRANCH  16  17
ATOM     17  C   UNL     1       2.353  -5.822   5.930  0.00  0.00    -0.030 A 
ATOM     18  C   UNL     1       3.634  -5.897   5.412  0.00  0.00    +0.005 A 
ATOM     19  C   UNL     1       4.541  -6.800   5.934  0.00  0.00    +0.004 A 
ATOM     20  C   UNL     1       4.171  -7.630   6.974  0.00  0.00    +0.046 A 
ATOM     21  C   UNL     1       2.888  -7.556   7.496  0.00  0.00    +0.129 A 
ATOM     22  C   UNL     1       1.980  -6.645   6.974  0.00  0.00    +0.051 A 
BRANCH  21  23
ATOM     23  O   UNL     1       2.521  -8.372   8.519  0.00  0.00    -0.456 OA
BRANCH  23  24
ATOM     24  C   UNL     1       1.801  -9.485   8.221  0.00  0.00    +0.128 A 
ATOM     25  C   UNL     1       1.479  -9.772   6.902  0.00  0.00    +0.046 A 
ATOM     26  C   UNL     1       0.747 -10.905   6.602  0.00  0.00    +0.004 A 
ATOM     27  C   UNL     1       0.334 -11.751   7.615  0.00  0.00    +0.000 A 
ATOM     28  C   UNL     1       0.653 -11.467   8.930  0.00  0.00    +0.004 A 
ATOM     29  C   UNL     1       1.391 -10.339   9.235  0.00  0.00    +0.046 A 
ENDBRANCH  23  24
ENDBRANCH  21  23
ENDBRANCH  16  17
ENDBRANCH  14  16
ENDBRANCH   3  14
BRANCH   5  30
ATOM     30  C   UNL     1       0.051   0.971   6.439  0.00  0.00    -0.041 C 
BRANCH  30  31
ATOM     31  C   UNL     1      -0.899   1.062   7.605  0.00  0.00    -0.056 A 
ATOM     32  C   UNL     1      -0.459   0.812   8.868  0.00  0.00    +0.002 A 
ATOM     33  C   UNL     1      -1.323   0.892   9.958  0.00  0.00    +0.001 A 
ATOM     34  C   UNL     1      -2.633   1.221   9.791  0.00  0.00    +0.008 A 
ATOM     35  C   UNL     1      -3.124   1.486   8.502  0.00  0.00    -0.018 A 
ATOM     36  C   UNL     1      -2.244   1.411   7.394  0.00  0.00    -0.017 A 
ATOM     37  C   UNL     1      -2.734   1.681   6.105  0.00  0.00    +0.009 A 
ATOM     38  C   UNL     1      -4.043   2.016   5.939  0.00  0.00    +0.001 A 
ATOM     39  C   UNL     1      -4.907   2.096   7.029  0.00  0.00    +0.001 A 
ATOM     40  C   UNL     1      -4.471   1.828   8.290  0.00  0.00    +0.008 A 
ENDBRANCH  30  31
ENDBRANCH   5  30
TORSDOF 9
