REMARK  Name = ZINC20841626
REMARK  9 active torsions:
REMARK  status: ('A' for Active; 'I' for Inactive)
REMARK    1  A    between atoms: C_6  and  N_7
REMARK    2  A    between atoms: N_7  and  S_8
REMARK    3  A    between atoms: S_8  and  C_11
REMARK    4  A    between atoms: C_14  and  N_17
REMARK    5  A    between atoms: C_18  and  C_20
REMARK    6  A    between atoms: C_20  and  S_21
REMARK    7  A    between atoms: S_21  and  C_22
REMARK    8  A    between atoms: C_25  and  C_28
REMARK    9  A    between atoms: N_26  and  N_27
REMARK                            x       y       z     vdW  Elec       q    Type
REMARK                         _______ _______ _______ _____ _____    ______ ____
ROOT
ATOM      1  C   UNL     1       3.937  -2.398  -0.401  0.00  0.00    +0.109 A 
ATOM      2  C   UNL     1       4.613  -1.301  -0.902  0.00  0.00    +0.030 A 
ATOM      3  C   UNL     1       5.869  -0.984  -0.422  0.00  0.00    +0.025 A 
ATOM      4  C   UNL     1       6.456  -1.773   0.558  0.00  0.00    +0.034 A 
ATOM      5  C   UNL     1       5.777  -2.877   1.055  0.00  0.00    +0.025 A 
ATOM      6  C   UNL     1       4.519  -3.187   0.575  0.00  0.00    +0.030 A 
ENDROOT
BRANCH   4   7
ATOM      7  N   UNL     1       7.730  -1.457   1.043  0.00  0.00    -0.285 N 
ATOM      8  C   UNL     1       8.570  -2.440   1.422  0.00  0.00    +0.227 C 
ATOM      9  O   UNL     1       8.260  -3.601   1.256  0.00  0.00    -0.275 OA
ATOM     10  H   UNL     1       8.045  -0.406   1.115  0.00  0.00    +0.155 HD
BRANCH   8  11
ATOM     11  C   UNL     1       9.895  -2.097   2.053  0.00  0.00    +0.173 C 
BRANCH  11  12
ATOM     12  S   UNL     1      10.787  -3.622   2.448  0.00  0.00    -0.075 S 
BRANCH  12  13
ATOM     13  C   UNL     1      12.254  -2.944   3.151  0.00  0.00    +0.209 A 
ATOM     14  N   UNL     1      12.533  -1.670   3.299  0.00  0.00    -0.121 NA
ATOM     15  N   UNL     1      13.686  -1.536   3.850  0.00  0.00    -0.123 NA
ATOM     16  C   UNL     1      14.211  -2.706   4.078  0.00  0.00    +0.255 A 
ATOM     17  N   UNL     1      13.318  -3.645   3.641  0.00  0.00    -0.220 N 
BRANCH  16  18
ATOM     18  C   UNL     1      15.554  -2.975   4.706  0.00  0.00    +0.454 C 
ATOM     19  F   UNL     1      16.022  -1.810   5.324  0.00  0.00    -0.163 F 
ATOM     20  F   UNL     1      15.428  -3.990   5.661  0.00  0.00    -0.163 F 
ATOM     21  F   UNL     1      16.460  -3.374   3.718  0.00  0.00    -0.163 F 
ENDBRANCH  16  18
BRANCH  17  22
ATOM     22  N   UNL     1      13.461  -5.003   3.686  0.00  0.00    -0.295 N 
ATOM     23  H   UNL     1      14.375  -5.446   4.109  0.00  0.00    +0.163 HD
ATOM     24  H   UNL     1      12.663  -5.653   3.299  0.00  0.00    +0.163 HD
ENDBRANCH  17  22
ENDBRANCH  12  13
ENDBRANCH  11  12
ENDBRANCH   8  11
ENDBRANCH   4   7
BRANCH   1  25
ATOM     25  S   UNL     1       2.333  -2.797  -1.011  0.00  0.00    +0.072 S 
ATOM     26  O   UNL     1       2.092  -4.154  -0.665  0.00  0.00    -0.150 OA
ATOM     27  O   UNL     1       2.282  -2.332  -2.353  0.00  0.00    -0.150 OA
BRANCH  25  28
ATOM     28  N   UNL     1       1.244  -1.889  -0.155  0.00  0.00    -0.216 N 
ATOM     29  H   UNL     1       0.608  -1.158  -0.676  0.00  0.00    +0.174 HD
BRANCH  28  35
ATOM     30  C   UNL     1       1.088  -0.940   2.059  0.00  0.00    +0.027 A 
ATOM     31  C   UNL     1       0.979  -1.104   3.426  0.00  0.00    +0.040 A 
ATOM     32  C   UNL     1       0.914  -2.376   3.969  0.00  0.00    +0.124 A 
ATOM     33  C   UNL     1       0.958  -3.486   3.143  0.00  0.00    +0.040 A 
ATOM     34  C   UNL     1       1.067  -3.327   1.776  0.00  0.00    +0.027 A 
ATOM     35  C   UNL     1       1.133  -2.052   1.229  0.00  0.00    +0.048 A 
ATOM     36  F   UNL     1       0.807  -2.534   5.307  0.00  0.00    -0.205 F 
ENDBRANCH  28  35
ENDBRANCH  25  28
ENDBRANCH   1  25
TORSDOF 9
