REMARK  Name = ZINC30006002
REMARK  9 active torsions:
REMARK  status: ('A' for Active; 'I' for Inactive)
REMARK    1  A    between atoms: C_1  and  C_2
REMARK    2  A    between atoms: C_2  and  C_4
REMARK    3  A    between atoms: C_2  and  N_19
REMARK    4  A    between atoms: N_6  and  C_7
REMARK    5  A    between atoms: C_9  and  N_15
REMARK    6  A    between atoms: C_12  and  O_13
REMARK    7  A    between atoms: O_13  and  C_14
REMARK    8  A    between atoms: C_16  and  C_18
REMARK    9  A    between atoms: N_19  and  C_20
REMARK                            x       y       z     vdW  Elec       q    Type
REMARK                         _______ _______ _______ _____ _____    ______ ____
ROOT
ATOM      1  C   UNL     1      -5.906   3.159  -0.466  0.00  0.00    +0.237 C 
ATOM      2  O   UNL     1      -4.867   3.780  -0.382  0.00  0.00    -0.273 OA
ATOM      3  N   UNL     1      -5.899   1.815  -0.362  0.00  0.00    -0.281 N 
ATOM      4  H   UNL     1      -6.847   1.258  -0.361  0.00  0.00    +0.155 HD
ENDROOT
BRANCH   3   5
ATOM      5  C   UNL     1      -4.683   1.128  -0.254  0.00  0.00    +0.077 A 
ATOM      6  C   UNL     1      -3.623   1.695   0.437  0.00  0.00    +0.050 A 
ATOM      7  C   UNL     1      -2.420   1.012   0.543  0.00  0.00    +0.035 A 
ATOM      8  C   UNL     1      -2.276  -0.237  -0.047  0.00  0.00    +0.027 A 
ATOM      9  C   UNL     1      -3.334  -0.806  -0.731  0.00  0.00    +0.049 A 
ATOM     10  C   UNL     1      -4.537  -0.128  -0.840  0.00  0.00    +0.141 A 
BRANCH   7  11
ATOM     11  N   UNL     1      -1.348   1.584   1.240  0.00  0.00    -0.286 N 
ATOM     12  C   UNL     1      -0.409   0.794   1.798  0.00  0.00    +0.214 C 
ATOM     13  O   UNL     1      -0.546  -0.411   1.789  0.00  0.00    -0.276 OA
ATOM     14  C   UNL     1       0.814   1.409   2.429  0.00  0.00    +0.109 C 
ATOM     15  H   UNL     1      -1.273   2.677   1.333  0.00  0.00    +0.155 HD
ENDBRANCH   7  11
BRANCH  10  16
ATOM     16  O   UNL     1      -5.575  -0.687  -1.518  0.00  0.00    -0.493 OA
ATOM     17  C   UNL     1      -5.354  -1.976  -2.093  0.00  0.00    +0.277 C 
ENDBRANCH  10  16
ENDBRANCH   3   5
BRANCH   1  19
ATOM     18  C   UNL     1      -7.842   3.414  -1.995  0.00  0.00    +0.038 C 
ATOM     19  C   UNL     1      -7.205   3.890  -0.688  0.00  0.00    +0.154 C 
BRANCH  19  20
ATOM     20  N   UNL     1      -6.947   5.330  -0.766  0.00  0.00    -0.333 N 
ATOM     21  H   UNL     1      -5.957   5.696  -1.076  0.00  0.00    +0.147 HD
BRANCH  20  22
ATOM     22  C   UNL     1      -7.961   6.241  -0.448  0.00  0.00    +0.031 A 
ATOM     23  C   UNL     1      -9.213   5.780  -0.062  0.00  0.00    +0.027 A 
ATOM     24  C   UNL     1     -10.213   6.678   0.258  0.00  0.00    +0.051 A 
ATOM     25  C   UNL     1      -9.973   8.040   0.185  0.00  0.00    +0.173 A 
ATOM     26  C   UNL     1      -8.720   8.506  -0.206  0.00  0.00    +0.174 A 
ATOM     27  C   UNL     1      -7.717   7.605  -0.522  0.00  0.00    +0.072 A 
ATOM     28  O   UNL     1      -8.740   9.871  -0.198  0.00  0.00    -0.395 OA
ATOM     29  C   UNL     1     -10.133  10.236  -0.194  0.00  0.00    +0.589 C 
ATOM     30  O   UNL     1     -10.778   9.115   0.439  0.00  0.00    -0.395 OA
ATOM     31  F   UNL     1     -10.602  10.399  -1.502  0.00  0.00    -0.125 F 
ATOM     32  F   UNL     1     -10.336  11.404   0.550  0.00  0.00    -0.125 F 
ENDBRANCH  20  22
ENDBRANCH  19  20
ENDBRANCH   1  19
TORSDOF 6
