REMARK  Name = ZINC09480691
REMARK  8 active torsions:
REMARK  status: ('A' for Active; 'I' for Inactive)
REMARK    1  A    between atoms: C_3  and  C_6
REMARK    2  A    between atoms: C_8  and  S_20
REMARK    3  A    between atoms: C_9  and  N_11
REMARK    4  A    between atoms: N_11  and  C_12
REMARK    5  A    between atoms: C_12  and  C_13
REMARK    6  A    between atoms: C_13  and  C_14
REMARK    7  A    between atoms: C_14  and  N_15
REMARK    8  A    between atoms: S_20  and  C_23
REMARK                            x       y       z     vdW  Elec       q    Type
REMARK                         _______ _______ _______ _____ _____    ______ ____
ROOT
ATOM      1  C   UNL     1       3.566   0.618  -0.029  0.00  0.00    +0.267 A 
ATOM      2  N   UNL     1       4.307  -0.468  -0.047  0.00  0.00    -0.186 NA
ATOM      3  C   UNL     1       5.599  -0.107  -0.057  0.00  0.00    +0.243 A 
ATOM      4  C   UNL     1       5.651   1.246  -0.044  0.00  0.00    +0.233 A 
ATOM      5  O   UNL     1       4.379   1.694  -0.032  0.00  0.00    -0.417 OA
ENDROOT
BRANCH   1   8
ATOM      6  C   UNL     1      -0.016   1.344   0.009  0.00  0.00    +0.042 A 
ATOM      7  C   UNL     1       1.324   1.776  -0.001  0.00  0.00    +0.055 A 
ATOM      8  C   UNL     1       2.098   0.653  -0.015  0.00  0.00    +0.189 A 
ATOM      9  O   UNL     1       1.280  -0.418  -0.012  0.00  0.00    -0.458 OA
ATOM     10  C   UNL     1       0.002  -0.004   0.002  0.00  0.00    +0.196 A 
ENDBRANCH   1   8
BRANCH   3  11
ATOM     11  S   UNL     1       6.981  -1.200  -0.081  0.00  0.00    +0.047 S 
ATOM     12  O   UNL     1       8.078  -0.480   0.467  0.00  0.00    -0.163 OA
ATOM     13  O   UNL     1       6.533  -2.434   0.462  0.00  0.00    -0.163 OA
BRANCH  11  14
ATOM     14  C   UNL     1       7.374  -1.506  -1.771  0.00  0.00    +0.095 A 
ATOM     15  C   UNL     1       6.781  -2.562  -2.438  0.00  0.00    +0.028 A 
ATOM     16  C   UNL     1       7.088  -2.803  -3.764  0.00  0.00    +0.017 A 
ATOM     17  C   UNL     1       7.989  -1.986  -4.424  0.00  0.00    +0.018 A 
ATOM     18  C   UNL     1       8.582  -0.929  -3.756  0.00  0.00    +0.017 A 
ATOM     19  C   UNL     1       8.270  -0.687  -2.432  0.00  0.00    +0.028 A 
ATOM     20 BR   UNL     1       8.410  -2.315  -6.238  0.00  0.00    -0.050 Br
ENDBRANCH  11  14
ENDBRANCH   3  11
BRANCH   4  21
ATOM     21  N   UNL     1       6.802   2.029  -0.048  0.00  0.00    -0.312 N 
ATOM     22  H   UNL     1       7.675   1.607  -0.061  0.00  0.00    +0.149 HD
BRANCH  21  23
ATOM     23  C   UNL     1       6.694   3.490  -0.032  0.00  0.00    +0.106 C 
BRANCH  23  24
ATOM     24  C   UNL     1       8.095   4.104  -0.040  0.00  0.00    +0.040 C 
BRANCH  24  25
ATOM     25  C   UNL     1       7.983   5.630  -0.024  0.00  0.00    +0.124 C 
BRANCH  25  26
ATOM     26  N   UNL     1       9.324   6.219  -0.032  0.00  0.00    -0.338 N 
ATOM     27  C   UNL     1      10.082   6.529   1.066  0.00  0.00    +0.104 A 
ATOM     28  C   UNL     1      11.238   7.044   0.608  0.00  0.00    +0.101 A 
ATOM     29  N   UNL     1      11.189   7.049  -0.732  0.00  0.00    -0.352 N 
ATOM     30  C   UNL     1      10.047   6.551  -1.123  0.00  0.00    +0.173 A 
ATOM     31  H   UNL     1      11.892   7.369  -1.319  0.00  0.00    +0.166 HD
ENDBRANCH  25  26
ENDBRANCH  24  25
ENDBRANCH  23  24
ENDBRANCH  21  23
ENDBRANCH   4  21
TORSDOF 8
