REMARK  Name = ZINC09847508
REMARK  12 active torsions:
REMARK  status: ('A' for Active; 'I' for Inactive)
REMARK    1  A    between atoms: C_1  and  C_2
REMARK    2  A    between atoms: C_2  and  C_4
REMARK    3  A    between atoms: C_2  and  N_12
REMARK    4  A    between atoms: C_13  and  C_15
REMARK    5  A    between atoms: C_15  and  S_16
REMARK    6  A    between atoms: S_16  and  C_17
REMARK    7  A    between atoms: C_20  and  C_29
REMARK    8  A    between atoms: N_21  and  C_22
REMARK    9  A    between atoms: C_29  and  C_31
REMARK   10  A    between atoms: C_29  and  N_56
REMARK   11  A    between atoms: C_32  and  N_56
REMARK   12  A    between atoms: C_33  and  N_56
REMARK                            x       y       z     vdW  Elec       q    Type
REMARK                         _______ _______ _______ _____ _____    ______ ____
ROOT
ATOM      1  C   UNL     1       4.469   9.365  -3.951  0.00  0.00    +0.197 A 
ATOM      2  N   UNL     1       3.258   9.833  -4.146  0.00  0.00    -0.122 NA
ATOM      3  N   UNL     1       3.302  10.847  -4.934  0.00  0.00    -0.135 NA
ATOM      4  C   UNL     1       4.533  11.088  -5.287  0.00  0.00    +0.125 A 
ATOM      5  N   UNL     1       5.324  10.155  -4.669  0.00  0.00    -0.275 N 
ENDROOT
BRANCH   5   6
ATOM      6  C   UNL     1       6.719  10.034  -4.757  0.00  0.00    +0.050 A 
ATOM      7  C   UNL     1       7.537  11.038  -4.257  0.00  0.00    +0.029 A 
ATOM      8  C   UNL     1       8.910  10.914  -4.339  0.00  0.00    +0.040 A 
ATOM      9  C   UNL     1       9.471   9.795  -4.931  0.00  0.00    +0.124 A 
ATOM     10  C   UNL     1       8.656   8.795  -5.435  0.00  0.00    +0.040 A 
ATOM     11  C   UNL     1       7.283   8.913  -5.349  0.00  0.00    +0.029 A 
ATOM     12  F   UNL     1      10.814   9.678  -5.015  0.00  0.00    -0.205 F 
ENDBRANCH   5   6
BRANCH   4  13
ATOM     13  C   UNL     1       5.001  12.191  -6.200  0.00  0.00    -0.003 C 
ATOM     14  C   UNL     1       4.659  11.835  -7.648  0.00  0.00    -0.005 C 
BRANCH  13  17
ATOM     15  C   UNL     1       4.563  13.773  -4.420  0.00  0.00    -0.096 C 
ATOM     16  C   UNL     1       4.766  14.548  -6.705  0.00  0.00    -0.096 C 
ATOM     17  N   UNL     1       4.305  13.444  -5.838  0.00  0.00    +0.382 N 
ATOM     18  H   UNL     1       3.295  13.314  -5.971  0.00  0.00    -0.082 HD
ENDBRANCH  13  17
ENDBRANCH   4  13
BRANCH   1  19
ATOM     19  S   UNL     1       4.911   7.986  -2.947  0.00  0.00    -0.076 S 
BRANCH  19  20
ATOM     20  C   UNL     1       3.274   7.497  -2.348  0.00  0.00    +0.173 C 
BRANCH  20  22
ATOM     21  N   UNL     1       2.312   5.757  -0.876  0.00  0.00    -0.308 N 
ATOM     22  C   UNL     1       3.408   6.299  -1.442  0.00  0.00    +0.224 C 
ATOM     23  O   UNL     1       4.502   5.824  -1.224  0.00  0.00    -0.275 OA
ATOM     24  H   UNL     1       1.437   6.138  -1.050  0.00  0.00    +0.149 HD
BRANCH  21  26
ATOM     25  C   UNL     1       2.766   5.061   1.425  0.00  0.00    +0.033 C 
ATOM     26  C   UNL     1       2.442   4.593   0.004  0.00  0.00    +0.100 C 
BRANCH  26  27
ATOM     27  C   UNL     1       1.148   3.822   0.012  0.00  0.00    -0.026 A 
ATOM     28  C   UNL     1      -0.059   4.497   0.027  0.00  0.00    +0.007 A 
ATOM     29  C   UNL     1      -1.247   3.791   0.034  0.00  0.00    +0.022 A 
ATOM     30  C   UNL     1      -1.230   2.408   0.021  0.00  0.00    +0.059 A 
ATOM     31  C   UNL     1      -0.021   1.732   0.012  0.00  0.00    +0.060 A 
ATOM     32  C   UNL     1       1.167   2.440   0.004  0.00  0.00    +0.027 A 
ATOM     33 CL   UNL     1       0.002  -0.004   0.002  0.00  0.00    -0.082 Cl
ATOM     34 CL   UNL     1      -2.722   1.521   0.023  0.00  0.00    -0.082 Cl
ENDBRANCH  26  27
ENDBRANCH  21  26
ENDBRANCH  20  22
ENDBRANCH  19  20
ENDBRANCH   1  19
TORSDOF 8
