REMARK  Name = ZINC60349952
REMARK  9 active torsions:
REMARK  status: ('A' for Active; 'I' for Inactive)
REMARK    1  A    between atoms: C_1  and  C_2
REMARK    2  A    between atoms: C_2  and  C_3
REMARK    3  A    between atoms: C_3  and  C_5
REMARK    4  A    between atoms: C_3  and  N_12
REMARK    5  A    between atoms: C_13  and  C_15
REMARK    6  A    between atoms: C_15  and  N_16
REMARK    7  A    between atoms: C_19  and  C_23
REMARK    8  A    between atoms: C_19  and  C_24
REMARK    9  A    between atoms: C_27  and  C_29
REMARK                            x       y       z     vdW  Elec       q    Type
REMARK                         _______ _______ _______ _____ _____    ______ ____
ROOT
ATOM      1  C   UNL     1      -3.330   1.430   2.696  0.00  0.00    +0.213 C 
ENDROOT
BRANCH   1   2
ATOM      2  N   UNL     1      -3.883   2.782   2.581  0.00  0.00    -0.215 N 
ATOM      3  C   UNL     1      -3.204   3.905   2.886  0.00  0.00    +0.254 C 
ATOM      4  O   UNL     1      -2.064   3.985   3.292  0.00  0.00    -0.272 OA
ATOM      5  C   UNL     1      -4.161   5.049   2.615  0.00  0.00    +0.168 C 
ATOM      6  N   UNL     1      -5.383   4.373   2.144  0.00  0.00    -0.279 N 
ATOM      7  C   UNL     1      -5.121   3.054   2.154  0.00  0.00    +0.310 C 
ATOM      8  O   UNL     1      -5.922   2.204   1.817  0.00  0.00    -0.252 OA
ATOM      9  C   UNL     1      -3.604   5.971   1.529  0.00  0.00    +0.050 C 
ATOM     10  H   UNL     1      -6.213   4.798   1.876  0.00  0.00    +0.152 HD
BRANCH   5  11
ATOM     11  C   UNL     1      -4.436   5.821   3.879  0.00  0.00    +0.137 A 
ATOM     12  C   UNL     1      -5.577   6.472   4.171  0.00  0.00    +0.047 A 
ATOM     13  C   UNL     1      -5.401   7.053   5.448  0.00  0.00    +0.045 A 
ATOM     14  C   UNL     1      -4.164   6.724   5.859  0.00  0.00    +0.102 A 
ATOM     15  O   UNL     1      -3.586   5.973   4.908  0.00  0.00    -0.462 OA
ATOM     16  C   UNL     1      -3.535   7.124   7.169  0.00  0.00    +0.086 C 
ENDBRANCH   5  11
ENDBRANCH   1   2
BRANCH   1  18
ATOM     17  N   UNL     1      -2.082  -0.162   1.273  0.00  0.00    -0.307 N 
ATOM     18  C   UNL     1      -2.664   1.047   1.400  0.00  0.00    +0.231 C 
ATOM     19  O   UNL     1      -2.651   1.827   0.471  0.00  0.00    -0.274 OA
ATOM     20  H   UNL     1      -2.092  -0.785   2.016  0.00  0.00    +0.149 HD
BRANCH  17  21
ATOM     21  C   UNL     1      -1.433  -0.534   0.013  0.00  0.00    +0.103 C 
BRANCH  21  22
ATOM     22  C   UNL     1      -1.416  -2.035  -0.119  0.00  0.00    -0.027 A 
ATOM     23  C   UNL     1      -1.159  -2.823   0.987  0.00  0.00    +0.007 A 
ATOM     24  C   UNL     1      -1.143  -4.199   0.867  0.00  0.00    +0.020 A 
ATOM     25  C   UNL     1      -1.384  -4.789  -0.361  0.00  0.00    +0.041 A 
ATOM     26  C   UNL     1      -1.641  -4.000  -1.468  0.00  0.00    +0.020 A 
ATOM     27  C   UNL     1      -1.663  -2.623  -1.345  0.00  0.00    +0.007 A 
ATOM     28 CL   UNL     1      -1.363  -6.518  -0.514  0.00  0.00    -0.084 Cl
ENDBRANCH  21  22
BRANCH  21  30
ATOM     29  C   UNL     1      -0.019   1.526   0.010  0.00  0.00    +0.006 C 
ATOM     30  C   UNL     1       0.002  -0.004   0.002  0.00  0.00    +0.024 C 
ENDBRANCH  21  30
ENDBRANCH  17  21
ENDBRANCH   1  18
TORSDOF 6
