REMARK  Name = ZINC05332492
REMARK  7 active torsions:
REMARK  status: ('A' for Active; 'I' for Inactive)
REMARK    1  A    between atoms: C_1  and  C_2
REMARK    2  A    between atoms: C_5  and  S_8
REMARK    3  A    between atoms: S_8  and  N_11
REMARK    4  A    between atoms: N_11  and  C_12
REMARK    5  A    between atoms: C_15  and  N_18
REMARK    6  A    between atoms: C_19  and  C_21
REMARK    7  A    between atoms: C_26  and  C_27
REMARK                            x       y       z     vdW  Elec       q    Type
REMARK                         _______ _______ _______ _____ _____    ______ ____
ROOT
ATOM      1  C   UNL     1      -0.117   2.329  -1.577  0.00  0.00    +0.048 A 
ATOM      2  C   UNL     1       0.889   1.899  -0.721  0.00  0.00    +0.026 A 
ATOM      3  C   UNL     1       2.058   2.625  -0.609  0.00  0.00    +0.025 A 
ATOM      4  C   UNL     1       2.224   3.791  -1.344  0.00  0.00    +0.034 A 
ATOM      5  C   UNL     1       1.216   4.225  -2.196  0.00  0.00    +0.025 A 
ATOM      6  C   UNL     1       0.050   3.496  -2.312  0.00  0.00    +0.026 A 
ENDROOT
BRANCH   4   7
ATOM      7  N   UNL     1       3.408   4.531  -1.226  0.00  0.00    -0.281 N 
ATOM      8  C   UNL     1       4.587   3.896  -1.077  0.00  0.00    +0.249 C 
ATOM      9  O   UNL     1       4.632   2.681  -1.115  0.00  0.00    -0.270 OA
ATOM     10  H   UNL     1       3.379   5.500  -1.252  0.00  0.00    +0.155 HD
BRANCH   8  11
ATOM     11  C   UNL     1       5.825   4.675  -0.866  0.00  0.00    +0.040 A 
ATOM     12  C   UNL     1       5.796   6.069  -0.939  0.00  0.00    +0.013 A 
ATOM     13  C   UNL     1       6.954   6.791  -0.736  0.00  0.00    +0.001 A 
ATOM     14  C   UNL     1       8.144   6.136  -0.472  0.00  0.00    +0.000 A 
ATOM     15  C   UNL     1       8.181   4.755  -0.405  0.00  0.00    +0.004 A 
ATOM     16  C   UNL     1       7.029   4.021  -0.600  0.00  0.00    -0.038 A 
ATOM     17  C   UNL     1       7.070   2.516  -0.527  0.00  0.00    +0.044 C 
ENDBRANCH   8  11
ENDBRANCH   4   7
BRANCH   1  18
ATOM     18  N   UNL     1      -1.299   1.591  -1.694  0.00  0.00    -0.216 N 
ATOM     19  H   UNL     1      -2.158   2.042  -1.662  0.00  0.00    +0.174 HD
BRANCH  18  20
ATOM     20  S   UNL     1      -1.233  -0.051  -1.895  0.00  0.00    +0.072 S 
ATOM     21  O   UNL     1      -0.380  -0.552  -0.875  0.00  0.00    -0.150 OA
ATOM     22  O   UNL     1      -2.574  -0.495  -2.052  0.00  0.00    -0.150 OA
BRANCH  20  27
ATOM     23  C   UNL     1       1.554  -1.096  -7.143  0.00  0.00    +0.044 C 
ATOM     24  C   UNL     1       0.858  -0.836  -5.832  0.00  0.00    -0.050 A 
ATOM     25  C   UNL     1       1.577  -0.857  -4.652  0.00  0.00    +0.005 A 
ATOM     26  C   UNL     1       0.938  -0.618  -3.449  0.00  0.00    +0.029 A 
ATOM     27  C   UNL     1      -0.419  -0.356  -3.428  0.00  0.00    +0.109 A 
ATOM     28  C   UNL     1      -1.139  -0.339  -4.608  0.00  0.00    +0.029 A 
ATOM     29  C   UNL     1      -0.499  -0.574  -5.811  0.00  0.00    +0.005 A 
ENDBRANCH  20  27
ENDBRANCH  18  20
ENDBRANCH   1  18
TORSDOF 5
