REMARK  Name = ZINC21346322
REMARK  9 active torsions:
REMARK  status: ('A' for Active; 'I' for Inactive)
REMARK    1  A    between atoms: C_1  and  C_2
REMARK    2  A    between atoms: C_2  and  C_4
REMARK    3  A    between atoms: C_2  and  O_20
REMARK    4  A    between atoms: N_6  and  C_7
REMARK    5  A    between atoms: C_10  and  N_17
REMARK    6  A    between atoms: C_12  and  C_13
REMARK    7  A    between atoms: O_20  and  C_21
REMARK    8  A    between atoms: C_21  and  C_23
REMARK    9  A    between atoms: C_27  and  N_29
REMARK                            x       y       z     vdW  Elec       q    Type
REMARK                         _______ _______ _______ _____ _____    ______ ____
ROOT
ATOM      1  C   UNL     1       0.729  -0.506   1.223  0.00  0.00    +0.258 C 
ATOM      2  O   UNL     1       1.776  -1.106   1.100  0.00  0.00    -0.271 OA
ATOM      3  N   UNL     1       0.223  -0.277   2.451  0.00  0.00    -0.282 N 
ATOM      4  H   UNL     1      -0.571   0.272   2.554  0.00  0.00    +0.155 HD
ENDROOT
BRANCH   3   5
ATOM      5  C   UNL     1       0.843  -0.829   3.577  0.00  0.00    +0.045 A 
ATOM      6  C   UNL     1       1.613  -1.978   3.454  0.00  0.00    +0.026 A 
ATOM      7  C   UNL     1       2.224  -2.521   4.568  0.00  0.00    +0.034 A 
ATOM      8  C   UNL     1       2.068  -1.921   5.804  0.00  0.00    +0.127 A 
ATOM      9  C   UNL     1       1.302  -0.777   5.930  0.00  0.00    +0.047 A 
ATOM     10  C   UNL     1       0.694  -0.226   4.819  0.00  0.00    +0.078 A 
BRANCH  10  11
ATOM     11  C   UNL     1      -0.136   1.025   4.955  0.00  0.00    +0.419 C 
ATOM     12  F   UNL     1      -0.136   1.440   6.291  0.00  0.00    -0.166 F 
ATOM     13  F   UNL     1       0.407   2.034   4.153  0.00  0.00    -0.166 F 
ATOM     14  F   UNL     1      -1.448   0.761   4.549  0.00  0.00    -0.166 F 
ENDBRANCH  10  11
BRANCH   8  15
ATOM     15  N   UNL     1       2.724  -2.505   6.996  0.00  0.00    +0.056 N 
ATOM     16  O   UNL     1       3.394  -3.505   6.888  0.00  0.00    -0.126 OA
ATOM     17  O   UNL     1       2.589  -1.982   8.078  0.00  0.00    -0.126 OA
ENDBRANCH   8  15
ENDBRANCH   3   5
BRANCH   1  19
ATOM     18  C   UNL     1      -0.036   1.513   0.003  0.00  0.00    +0.062 C 
ATOM     19  C   UNL     1      -0.006  -0.017   0.001  0.00  0.00    +0.259 C 
BRANCH  19  20
ATOM     20  O   UNL     1       0.662  -0.479  -1.174  0.00  0.00    -0.449 OA
BRANCH  20  21
ATOM     21  C   UNL     1      -0.098  -0.697  -2.264  0.00  0.00    +0.340 C 
ATOM     22  O   UNL     1      -1.296  -0.500  -2.219  0.00  0.00    -0.245 OA
BRANCH  21  23
ATOM     23  C   UNL     1       0.524  -1.176  -3.515  0.00  0.00    +0.061 A 
ATOM     24  C   UNL     1       1.901  -1.409  -3.568  0.00  0.00    +0.016 A 
ATOM     25  C   UNL     1       2.480  -1.856  -4.737  0.00  0.00    +0.022 A 
ATOM     26  C   UNL     1       1.702  -2.076  -5.861  0.00  0.00    +0.062 A 
ATOM     27  C   UNL     1       0.330  -1.847  -5.818  0.00  0.00    +0.044 A 
ATOM     28  C   UNL     1      -0.262  -1.402  -4.646  0.00  0.00    +0.039 A 
ATOM     29 CL   UNL     1       2.439  -2.638  -7.328  0.00  0.00    -0.082 Cl
BRANCH  27  30
ATOM     30  N   UNL     1      -0.452  -2.069  -6.955  0.00  0.00    -0.357 N 
ATOM     31  H   UNL     1      -0.038  -2.384  -7.774  0.00  0.00    +0.142 HD
ATOM     32  H   UNL     1      -1.408  -1.910  -6.925  0.00  0.00    +0.142 HD
ENDBRANCH  27  30
ENDBRANCH  21  23
ENDBRANCH  20  21
ENDBRANCH  19  20
ENDBRANCH   1  19
TORSDOF 8
