REMARK  Name = ZINC25166852
REMARK  15 active torsions:
REMARK  status: ('A' for Active; 'I' for Inactive)
REMARK    1  A    between atoms: C_1  and  C_2
REMARK    2  A    between atoms: C_6  and  C_35
REMARK    3  A    between atoms: C_7  and  N_8
REMARK    4  A    between atoms: C_9  and  C_11
REMARK    5  A    between atoms: C_11  and  N_12
REMARK    6  A    between atoms: N_12  and  C_13
REMARK    7  A    between atoms: N_12  and  C_23
REMARK    8  A    between atoms: C_13  and  C_14
REMARK    9  A    between atoms: C_15  and  C_19
REMARK   10  A    between atoms: C_19  and  O_21
REMARK   11  A    between atoms: O_21  and  C_22
REMARK   12  A    between atoms: C_23  and  C_24
REMARK   13  A    between atoms: N_26  and  C_27
REMARK   14  A    between atoms: C_28  and  C_34
REMARK   15  A    between atoms: C_32  and  C_33
REMARK                            x       y       z     vdW  Elec       q    Type
REMARK                         _______ _______ _______ _____ _____    ______ ____
ROOT
ATOM      1  N   UNL     1      -3.086  -0.673   0.649  0.00  0.00    +0.396 N 
ATOM      2  H   UNL     1      -3.389  -1.730   0.683  0.00  0.00    -0.080 HD
ENDROOT
BRANCH   1   3
ATOM      3  C   UNL     1      -2.781  -0.247   2.021  0.00  0.00    +0.020 C 
BRANCH   3   5
ATOM      4  N   UNL     1      -1.375  -1.018   3.905  0.00  0.00    -0.287 N 
ATOM      5  C   UNL     1      -1.805  -1.213   2.642  0.00  0.00    +0.201 C 
ATOM      6  O   UNL     1      -1.404  -2.163   2.005  0.00  0.00    -0.278 OA
ATOM      7  H   UNL     1      -1.705  -0.133   4.468  0.00  0.00    +0.155 HD
BRANCH   4  14
ATOM      8  C   UNL     1      -1.929  -3.789   3.570  0.00  0.00    +0.045 C 
ATOM      9  C   UNL     1      -0.742  -3.304   4.361  0.00  0.00    -0.029 A 
ATOM     10  C   UNL     1       0.118  -4.213   4.944  0.00  0.00    +0.005 A 
ATOM     11  C   UNL     1       1.205  -3.769   5.674  0.00  0.00    +0.001 A 
ATOM     12  C   UNL     1       1.438  -2.413   5.819  0.00  0.00    +0.005 A 
ATOM     13  C   UNL     1       0.584  -1.499   5.233  0.00  0.00    -0.029 A 
ATOM     14  C   UNL     1      -0.508  -1.942   4.499  0.00  0.00    +0.039 A 
ATOM     15  C   UNL     1       0.839  -0.022   5.390  0.00  0.00    +0.045 C 
ENDBRANCH   4  14
ENDBRANCH   3   5
ENDBRANCH   1   3
BRANCH   1  16
ATOM     16  C   UNL     1      -1.898  -0.572  -0.210  0.00  0.00    -0.001 C 
BRANCH  16  17
ATOM     17  C   UNL     1      -2.230  -1.084  -1.588  0.00  0.00    +0.102 A 
ATOM     18  C   UNL     1      -2.568  -0.316  -2.665  0.00  0.00    +0.098 A 
ATOM     19  C   UNL     1      -2.798  -1.261  -3.768  0.00  0.00    +0.056 A 
ATOM     20  C   UNL     1      -2.580  -2.483  -3.258  0.00  0.00    +0.196 A 
ATOM     21  O   UNL     1      -2.238  -2.365  -1.965  0.00  0.00    -0.469 OA
BRANCH  18  22
ATOM     22  C   UNL     1      -2.680   1.151  -2.712  0.00  0.00    +0.342 C 
ATOM     23  O   UNL     1      -2.459   1.810  -1.715  0.00  0.00    -0.245 OA
BRANCH  22  24
ATOM     24  O   UNL     1      -3.027   1.764  -3.861  0.00  0.00    -0.464 OA
ATOM     25  C   UNL     1      -3.118   3.213  -3.835  0.00  0.00    +0.280 C 
ENDBRANCH  22  24
ENDBRANCH  18  22
ENDBRANCH  16  17
ENDBRANCH   1  16
BRANCH   1  26
ATOM     26  C   UNL     1      -4.205   0.100   0.094  0.00  0.00    +0.020 C 
BRANCH  26  27
ATOM     27  C   UNL     1      -4.917  -0.724  -0.948  0.00  0.00    +0.201 C 
ATOM     28  O   UNL     1      -5.316  -0.200  -1.966  0.00  0.00    -0.278 OA
ATOM     29  N   UNL     1      -5.109  -2.043  -0.748  0.00  0.00    -0.287 N 
ATOM     30  H   UNL     1      -4.851  -2.496   0.221  0.00  0.00    +0.155 HD
BRANCH  29  31
ATOM     31  C   UNL     1      -5.637  -2.836  -1.773  0.00  0.00    +0.039 A 
ATOM     32  C   UNL     1      -6.771  -2.422  -2.460  0.00  0.00    -0.029 A 
ATOM     33  C   UNL     1      -7.286  -3.205  -3.474  0.00  0.00    +0.005 A 
ATOM     34  C   UNL     1      -6.681  -4.405  -3.799  0.00  0.00    +0.001 A 
ATOM     35  C   UNL     1      -5.555  -4.823  -3.114  0.00  0.00    +0.005 A 
ATOM     36  C   UNL     1      -5.031  -4.042  -2.102  0.00  0.00    -0.029 A 
ATOM     37  C   UNL     1      -3.804  -4.498  -1.356  0.00  0.00    +0.045 C 
ATOM     38  C   UNL     1      -7.434  -1.117  -2.102  0.00  0.00    +0.045 C 
ENDBRANCH  29  31
ENDBRANCH  26  27
ENDBRANCH   1  26
TORSDOF 10
