REMARK  Name = ZINC13564739
REMARK  11 active torsions:
REMARK  status: ('A' for Active; 'I' for Inactive)
REMARK    1  A    between atoms: C_1  and  O_2
REMARK    2  A    between atoms: O_2  and  C_3
REMARK    3  A    between atoms: C_6  and  C_11
REMARK    4  A    between atoms: C_8  and  O_9
REMARK    5  A    between atoms: O_9  and  C_10
REMARK    6  A    between atoms: C_11  and  C_12
REMARK    7  A    between atoms: C_12  and  N_13
REMARK    8  A    between atoms: N_13  and  C_14
REMARK    9  A    between atoms: C_14  and  C_15
REMARK   10  A    between atoms: C_18  and  C_31
REMARK   11  A    between atoms: N_20  and  C_25
REMARK                            x       y       z     vdW  Elec       q    Type
REMARK                         _______ _______ _______ _____ _____    ______ ____
ROOT
ATOM      1  C   UNL     1       2.533   7.105  -2.379  0.00  0.00    +0.001 A 
ATOM      2  C   UNL     1       1.951   6.036  -1.770  0.00  0.00    +0.020 A 
ATOM      3  C   UNL     1       2.693   5.330  -0.800  0.00  0.00    +0.045 A 
ATOM      4  C   UNL     1       2.409   4.211   0.002  0.00  0.00    +0.102 A 
ATOM      5  N   UNL     1       3.500   3.956   0.773  0.00  0.00    -0.164 NA
ATOM      6  N   UNL     1       4.495   4.894   0.475  0.00  0.00    -0.215 N 
ATOM      7  C   UNL     1       4.010   5.750  -0.491  0.00  0.00    +0.145 A 
ATOM      8  N   UNL     1       4.534   6.794  -1.109  0.00  0.00    -0.307 N 
ATOM      9  C   UNL     1       3.848   7.474  -2.029  0.00  0.00    +0.252 A 
ATOM     10  O   UNL     1       4.369   8.435  -2.578  0.00  0.00    -0.268 OA
ATOM     11  H   UNL     1       5.557   7.119  -0.868  0.00  0.00    +0.170 HD
ENDROOT
BRANCH   4  12
ATOM     12  C   UNL     1       1.149   3.451   0.009  0.00  0.00    +0.005 A 
ATOM     13  C   UNL     1      -0.078   4.124   0.024  0.00  0.00    +0.010 A 
ATOM     14  C   UNL     1      -1.255   3.406   0.031  0.00  0.00    +0.003 A 
ATOM     15  C   UNL     1      -1.227   2.022   0.019  0.00  0.00    +0.038 A 
ATOM     16  C   UNL     1      -0.016   1.347   0.009  0.00  0.00    +0.124 A 
ATOM     17  C   UNL     1       1.171   2.052   0.002  0.00  0.00    +0.048 A 
ATOM     18  F   UNL     1       0.002  -0.004   0.002  0.00  0.00    -0.205 F 
ENDBRANCH   4  12
BRANCH   6  19
ATOM     19  C   UNL     1       5.763   4.957   1.061  0.00  0.00    +0.068 A 
ATOM     20  C   UNL     1       6.888   5.148   0.269  0.00  0.00    +0.028 A 
ATOM     21  C   UNL     1       8.138   5.213   0.851  0.00  0.00    +0.002 A 
ATOM     22  C   UNL     1       8.272   5.078   2.221  0.00  0.00    +0.000 A 
ATOM     23  C   UNL     1       7.155   4.883   3.012  0.00  0.00    +0.002 A 
ATOM     24  C   UNL     1       5.901   4.821   2.437  0.00  0.00    +0.028 A 
ENDBRANCH   6  19
BRANCH   1  25
ATOM     25  C   UNL     1       1.776   7.888  -3.421  0.00  0.00    -0.041 C 
BRANCH  25  26
ATOM     26  N   UNL     1       1.333   9.166  -2.848  0.00  0.00    +0.382 N 
ATOM     27  H   UNL     1       2.217   9.729  -2.516  0.00  0.00    -0.085 HD
ATOM     28  H   UNL     1       0.685   8.958  -1.983  0.00  0.00    -0.085 HD
BRANCH  26  29
ATOM     29  C   UNL     1       0.591   9.958  -3.837  0.00  0.00    -0.077 C 
BRANCH  29  30
ATOM     30  C   UNL     1       0.146  11.278  -3.204  0.00  0.00    +0.016 C 
BRANCH  30  34
ATOM     31  C   UNL     1      -2.010  13.586  -6.088  0.00  0.00    +0.161 A 
ATOM     32  C   UNL     1      -0.636  13.724  -5.973  0.00  0.00    +0.049 A 
ATOM     33  C   UNL     1       0.058  12.981  -5.036  0.00  0.00    +0.007 A 
ATOM     34  C   UNL     1      -0.615  12.090  -4.220  0.00  0.00    -0.045 A 
ATOM     35  C   UNL     1      -1.986  11.948  -4.329  0.00  0.00    +0.053 A 
ATOM     36  C   UNL     1      -2.688  12.694  -5.263  0.00  0.00    +0.162 A 
BRANCH  31  38
ATOM     37  C   UNL     1      -1.932  15.216  -7.818  0.00  0.00    +0.277 C 
ATOM     38  O   UNL     1      -2.694  14.321  -7.005  0.00  0.00    -0.491 OA
ENDBRANCH  31  38
BRANCH  36  39
ATOM     39  O   UNL     1      -4.036  12.555  -5.372  0.00  0.00    -0.491 OA
ATOM     40  C   UNL     1      -4.665  11.621  -4.493  0.00  0.00    +0.277 C 
ENDBRANCH  36  39
ENDBRANCH  30  34
ENDBRANCH  29  30
ENDBRANCH  26  29
ENDBRANCH  25  26
ENDBRANCH   1  25
TORSDOF 9
