REMARK  Name = ZINC12472180
REMARK  9 active torsions:
REMARK  status: ('A' for Active; 'I' for Inactive)
REMARK    1  A    between atoms: C_1  and  C_2
REMARK    2  A    between atoms: C_3  and  C_31
REMARK    3  A    between atoms: N_4  and  C_26
REMARK    4  A    between atoms: C_5  and  N_9
REMARK    5  A    between atoms: C_6  and  C_7
REMARK    6  A    between atoms: C_10  and  C_12
REMARK    7  A    between atoms: C_12  and  S_13
REMARK    8  A    between atoms: S_13  and  C_14
REMARK    9  A    between atoms: N_19  and  C_20
REMARK                            x       y       z     vdW  Elec       q    Type
REMARK                         _______ _______ _______ _____ _____    ______ ____
ROOT
ATOM      1  N   UNL     1       0.054  -3.342   1.426  0.00  0.00    -0.270 N 
ATOM      2  C   UNL     1       0.168  -4.538   0.814  0.00  0.00    +0.229 C 
ATOM      3  O   UNL     1       0.344  -4.591  -0.385  0.00  0.00    -0.275 OA
ATOM      4  H   UNL     1      -0.001  -3.296   2.394  0.00  0.00    +0.156 HD
ENDROOT
BRANCH   1   9
ATOM      5  C   UNL     1      -0.695  -0.002  -2.291  0.00  0.00    +0.047 C 
ATOM      6  C   UNL     1      -0.307  -0.645  -0.985  0.00  0.00    -0.011 A 
ATOM      7  C   UNL     1       0.266  -0.040   0.068  0.00  0.00    +0.022 A 
ATOM      8  N   UNL     1       0.462  -0.957   1.066  0.00  0.00    -0.329 N 
ATOM      9  C   UNL     1       0.016  -2.178   0.673  0.00  0.00    +0.124 A 
ATOM     10  C   UNL     1      -0.489  -2.054  -0.613  0.00  0.00    +0.095 A 
ATOM     11  C   UNL     1       0.636   1.419   0.140  0.00  0.00    +0.064 C 
BRANCH   8  12
ATOM     12  C   UNL     1       1.066  -0.664   2.368  0.00  0.00    +0.089 C 
ATOM     13  C   UNL     1       2.218  -1.650   2.651  0.00  0.00    +0.025 C 
ATOM     14  C   UNL     1       2.118  -1.926   4.171  0.00  0.00    +0.002 C 
ATOM     15  C   UNL     1       0.588  -1.969   4.411  0.00  0.00    +0.002 C 
ATOM     16  C   UNL     1       0.029  -0.867   3.487  0.00  0.00    +0.025 C 
ENDBRANCH   8  12
BRANCH  10  17
ATOM     17  C   UNL     1      -1.068  -3.089  -1.416  0.00  0.00    +0.103 C 
ATOM     18  N   UNL     1      -1.527  -3.910  -2.053  0.00  0.00    -0.191 NA
ENDBRANCH  10  17
ENDBRANCH   1   9
BRANCH   2  19
ATOM     19  C   UNL     1       0.075  -5.809   1.619  0.00  0.00    +0.172 C 
BRANCH  19  20
ATOM     20  S   UNL     1       0.117  -7.237   0.501  0.00  0.00    -0.088 S 
BRANCH  20  21
ATOM     21  C   UNL     1       0.002  -8.625   1.580  0.00  0.00    +0.160 A 
ATOM     22  N   UNL     1      -0.100  -8.656   2.895  0.00  0.00    -0.133 NA
ATOM     23  N   UNL     1      -0.179  -9.866   3.547  0.00  0.00    -0.125 NA
ATOM     24  C   UNL     1      -0.153 -10.987   2.854  0.00  0.00    +0.183 A 
ATOM     25  S   UNL     1      -0.018 -10.367   1.185  0.00  0.00    -0.025 S 
ATOM     26  N   UNL     1      -0.218 -12.301   3.303  0.00  0.00    -0.319 N 
ATOM     27  H   UNL     1      -0.187 -13.033   2.667  0.00  0.00    +0.148 HD
BRANCH  26  28
ATOM     28  C   UNL     1      -0.335 -12.581   4.737  0.00  0.00    +0.072 C 
ATOM     29  C   UNL     1       1.058 -12.589   5.370  0.00  0.00    +0.022 C 
ATOM     30  C   UNL     1       0.936 -12.880   6.867  0.00  0.00    +0.002 C 
ATOM     31  C   UNL     1       0.276 -14.246   7.068  0.00  0.00    +0.000 C 
ATOM     32  C   UNL     1      -1.117 -14.238   6.435  0.00  0.00    +0.002 C 
ATOM     33  C   UNL     1      -0.995 -13.946   4.938  0.00  0.00    +0.022 C 
ENDBRANCH  26  28
ENDBRANCH  20  21
ENDBRANCH  19  20
ENDBRANCH   2  19
TORSDOF 7
