REMARK  Name = ZINC16955918
REMARK  6 active torsions:
REMARK  status: ('A' for Active; 'I' for Inactive)
REMARK    1  A    between atoms: C_1  and  C_2
REMARK    2  A    between atoms: C_5  and  S_9
REMARK    3  A    between atoms: C_6  and  C_8
REMARK    4  A    between atoms: S_9  and  N_12
REMARK    5  A    between atoms: N_23  and  C_24
REMARK    6  A    between atoms: C_24  and  C_25
REMARK                            x       y       z     vdW  Elec       q    Type
REMARK                         _______ _______ _______ _____ _____    ______ ____
ROOT
ATOM      1  N   UNL     1       1.587  -5.037   1.306  0.00  0.00    -0.197 N 
ATOM      2  C   UNL     1       1.535  -4.906   2.685  0.00  0.00    +0.179 A 
ATOM      3  C   UNL     1       2.560  -5.467   3.485  0.00  0.00    +0.161 A 
ATOM      4  N   UNL     1       2.522  -5.349   4.796  0.00  0.00    -0.227 NA
ATOM      5  C   UNL     1       1.507  -4.692   5.377  0.00  0.00    +0.091 A 
ATOM      6  C   UNL     1       1.445  -4.553   6.773  0.00  0.00    +0.030 A 
ATOM      7  C   UNL     1       0.404  -3.881   7.340  0.00  0.00    +0.002 A 
ATOM      8  C   UNL     1      -0.604  -3.329   6.553  0.00  0.00    +0.002 A 
ATOM      9  C   UNL     1      -0.575  -3.445   5.196  0.00  0.00    +0.030 A 
ATOM     10  C   UNL     1       0.483  -4.131   4.578  0.00  0.00    +0.091 A 
ATOM     11  N   UNL     1       0.536  -4.254   3.243  0.00  0.00    -0.226 NA
ATOM     12  N   UNL     1       3.609  -6.146   2.884  0.00  0.00    -0.324 N 
ATOM     13  H   UNL     1       3.639  -6.235   1.919  0.00  0.00    +0.148 HD
ATOM     14  H   UNL     1       2.365  -5.438   0.886  0.00  0.00    +0.175 HD
ENDROOT
BRANCH   1  15
ATOM     15  S   UNL     1       0.322  -4.512   0.375  0.00  0.00    +0.074 S 
ATOM     16  O   UNL     1       0.653  -4.821  -0.972  0.00  0.00    -0.150 OA
ATOM     17  O   UNL     1       0.026  -3.189   0.803  0.00  0.00    -0.150 OA
BRANCH  15  22
ATOM     18  C   UNL     1      -4.467  -7.897   1.793  0.00  0.00    +0.044 C 
ATOM     19  C   UNL     1      -3.271  -7.052   1.439  0.00  0.00    -0.050 A 
ATOM     20  C   UNL     1      -3.287  -5.692   1.689  0.00  0.00    +0.005 A 
ATOM     21  C   UNL     1      -2.190  -4.916   1.364  0.00  0.00    +0.029 A 
ATOM     22  C   UNL     1      -1.076  -5.501   0.790  0.00  0.00    +0.111 A 
ATOM     23  C   UNL     1      -1.059  -6.860   0.542  0.00  0.00    -0.024 A 
ATOM     24  C   UNL     1      -2.155  -7.636   0.871  0.00  0.00    +0.008 A 
ATOM     25  C   UNL     1       0.155  -7.497  -0.084  0.00  0.00    +0.046 C 
ENDBRANCH  15  22
ENDBRANCH   1  15
BRANCH  12  26
ATOM     26  C   UNL     1       4.671  -6.729   3.708  0.00  0.00    +0.134 C 
BRANCH  26  27
ATOM     27  C   UNL     1       5.698  -7.416   2.804  0.00  0.00    +0.135 C 
ATOM     28  C   UNL     1       6.756  -8.136   3.667  0.00  0.00    +0.035 C 
ATOM     29  C   UNL     1       8.066  -7.860   2.881  0.00  0.00    +0.031 C 
ATOM     30  C   UNL     1       7.781  -6.443   2.323  0.00  0.00    +0.160 C 
ATOM     31  O   UNL     1       6.378  -6.438   2.009  0.00  0.00    -0.375 OA
ENDBRANCH  26  27
ENDBRANCH  12  26
TORSDOF 4
