REMARK  Name = ZINC02275051
REMARK  10 active torsions:
REMARK  status: ('A' for Active; 'I' for Inactive)
REMARK    1  A    between atoms: C_1  and  C_2
REMARK    2  A    between atoms: C_2  and  C_4
REMARK    3  A    between atoms: C_4  and  N_5
REMARK    4  A    between atoms: C_14  and  S_15
REMARK    5  A    between atoms: S_15  and  C_16
REMARK    6  A    between atoms: C_16  and  C_17
REMARK    7  A    between atoms: C_21  and  C_25
REMARK    8  A    between atoms: C_25  and  C_26
REMARK    9  A    between atoms: C_25  and  C_27
REMARK   10  A    between atoms: C_25  and  C_28
REMARK                            x       y       z     vdW  Elec       q    Type
REMARK                         _______ _______ _______ _____ _____    ______ ____
ROOT
ATOM      1  N   UNL     1       0.002  -0.004   0.002  0.00  0.00    -0.283 N 
ATOM      2  C   UNL     1       1.162  -0.687  -0.013  0.00  0.00    +0.264 A 
ATOM      3  O   UNL     1       1.161  -1.906  -0.020  0.00  0.00    -0.267 OA
ATOM      4  C   UNL     1       2.395   0.038  -0.021  0.00  0.00    +0.076 A 
ATOM      5  C   UNL     1       3.760  -0.493  -0.036  0.00  0.00    -0.023 A 
ATOM      6  C   UNL     1       4.766   0.405  -0.041  0.00  0.00    -0.004 A 
ATOM      7  S   UNL     1       3.970   1.989  -0.025  0.00  0.00    -0.073 S 
ATOM      8  C   UNL     1       2.282   1.439  -0.012  0.00  0.00    +0.117 A 
ATOM      9  N   UNL     1       1.105   2.053   0.003  0.00  0.00    -0.216 NA
ATOM     10  C   UNL     1      -0.016   1.361   0.009  0.00  0.00    +0.173 A 
ATOM     11  C   UNL     1       6.237   0.119  -0.056  0.00  0.00    +0.046 C 
ATOM     12  C   UNL     1       6.441  -1.353  -0.441  0.00  0.00    -0.000 C 
ATOM     13  C   UNL     1       5.496  -2.216   0.400  0.00  0.00    +0.009 C 
ATOM     14  C   UNL     1       4.051  -1.991  -0.046  0.00  0.00    +0.037 C 
ENDROOT
BRANCH  12  15
ATOM     15  C   UNL     1       7.889  -1.760  -0.165  0.00  0.00    -0.035 C 
ATOM     16  C   UNL     1       8.196  -1.576   1.323  0.00  0.00    +0.011 C 
ATOM     17  C   UNL     1       8.089  -3.227  -0.549  0.00  0.00    +0.011 C 
ATOM     18  C   UNL     1       8.832  -0.883  -0.992  0.00  0.00    +0.011 C 
ENDBRANCH  12  15
BRANCH   1  19
ATOM     19  C   UNL     1      -1.265  -0.740   0.010  0.00  0.00    +0.157 C 
BRANCH  19  21
ATOM     20  C   UNL     1      -2.497   0.071  -2.144  0.00  0.00    +0.040 C 
ATOM     21  C   UNL     1      -1.712  -0.985  -1.408  0.00  0.00    -0.060 C 
ATOM     22  C   UNL     1      -1.419  -2.115  -2.002  0.00  0.00    +0.009 C 
ENDBRANCH  19  21
ENDBRANCH   1  19
BRANCH  10  23
ATOM     23  S   UNL     1      -1.561   2.209   0.021  0.00  0.00    -0.078 S 
BRANCH  23  24
ATOM     24  C   UNL     1      -0.978   3.922   0.028  0.00  0.00    +0.172 C 
BRANCH  24  25
ATOM     25  C   UNL     1      -2.162   4.855   0.039  0.00  0.00    +0.221 C 
ATOM     26  O   UNL     1      -3.288   4.406   0.042  0.00  0.00    -0.275 OA
ATOM     27  N   UNL     1      -1.968   6.189   0.045  0.00  0.00    -0.329 N 
ATOM     28  H   UNL     1      -1.067   6.549   0.043  0.00  0.00    +0.145 HD
ATOM     29  H   UNL     1      -2.730   6.790   0.052  0.00  0.00    +0.145 HD
ENDBRANCH  24  25
ENDBRANCH  23  24
ENDBRANCH  10  23
TORSDOF 6
