REMARK  Name = ZINC36839607
REMARK  11 active torsions:
REMARK  status: ('A' for Active; 'I' for Inactive)
REMARK    1  A    between atoms: C_1  and  C_2
REMARK    2  A    between atoms: C_2  and  C_3
REMARK    3  A    between atoms: C_3  and  C_4
REMARK    4  A    between atoms: C_4  and  N_5
REMARK    5  A    between atoms: C_6  and  N_32
REMARK    6  A    between atoms: C_7  and  N_14
REMARK    7  A    between atoms: N_14  and  C_15
REMARK    8  A    between atoms: C_16  and  C_18
REMARK    9  A    between atoms: C_21  and  S_30
REMARK   10  A    between atoms: N_22  and  C_23
REMARK   11  A    between atoms: S_30  and  C_31
REMARK                            x       y       z     vdW  Elec       q    Type
REMARK                         _______ _______ _______ _____ _____    ______ ____
ROOT
ATOM      1  N   UNL     1       0.594  -3.777  -5.677  0.00  0.00    -0.262 N 
ATOM      2  C   UNL     1      -0.800  -3.467  -6.004  0.00  0.00    +0.139 C 
ATOM      3  C   UNL     1       1.432  -4.207  -6.641  0.00  0.00    +0.269 C 
ATOM      4  O   UNL     1       2.613  -4.375  -6.391  0.00  0.00    -0.268 OA
ENDROOT
BRANCH   1   7
ATOM      5  N   UNL     1       1.046  -4.259  -2.062  0.00  0.00    -0.280 N 
ATOM      6  C   UNL     1       0.573  -4.430  -3.343  0.00  0.00    +0.127 A 
ATOM      7  C   UNL     1       1.059  -3.626  -4.353  0.00  0.00    +0.140 A 
ATOM      8  C   UNL     1       2.026  -2.652  -4.042  0.00  0.00    +0.277 A 
ATOM      9  O   UNL     1       2.472  -1.928  -4.915  0.00  0.00    -0.266 OA
ATOM     10  N   UNL     1       2.456  -2.526  -2.771  0.00  0.00    -0.273 N 
ATOM     11  H   UNL     1       3.123  -1.855  -2.555  0.00  0.00    +0.173 HD
ATOM     12  C   UNL     1       1.968  -3.315  -1.798  0.00  0.00    +0.331 A 
ATOM     13  O   UNL     1       2.369  -3.176  -0.658  0.00  0.00    -0.246 OA
BRANCH   6  14
ATOM     14  N   UNL     1      -0.372  -5.391  -3.612  0.00  0.00    -0.343 N 
ATOM     15  H   UNL     1      -0.661  -5.997  -2.912  0.00  0.00    +0.144 HD
ATOM     16  H   UNL     1      -0.751  -5.463  -4.503  0.00  0.00    +0.144 HD
ENDBRANCH   6  14
BRANCH   5  17
ATOM     17  C   UNL     1       0.538  -5.105  -0.979  0.00  0.00    +0.128 C 
BRANCH  17  18
ATOM     18  C   UNL     1      -0.689  -4.444  -0.348  0.00  0.00    +0.021 C 
BRANCH  18  20
ATOM     19  C   UNL     1      -2.446  -4.668   1.413  0.00  0.00    +0.004 C 
ATOM     20  C   UNL     1      -1.219  -5.328   0.782  0.00  0.00    -0.002 C 
ENDBRANCH  18  20
ENDBRANCH  17  18
ENDBRANCH   5  17
ENDBRANCH   1   7
BRANCH   3  21
ATOM     21  C   UNL     1       0.925  -4.472  -7.986  0.00  0.00    +0.130 A 
ATOM     22  C   UNL     1      -0.341  -4.236  -8.446  0.00  0.00    +0.145 A 
ATOM     23  N   UNL     1      -0.399  -4.614  -9.721  0.00  0.00    -0.229 NA
ATOM     24  C   UNL     1       0.773  -5.083 -10.103  0.00  0.00    +0.174 A 
ATOM     25  N   UNL     1       1.637  -5.010  -9.054  0.00  0.00    -0.283 N 
BRANCH  25  26
ATOM     26  C   UNL     1       2.982  -5.402  -9.050  0.00  0.00    +0.049 A 
ATOM     27  C   UNL     1       3.984  -4.449  -8.925  0.00  0.00    +0.029 A 
ATOM     28  C   UNL     1       5.310  -4.838  -8.921  0.00  0.00    +0.040 A 
ATOM     29  C   UNL     1       5.639  -6.178  -9.041  0.00  0.00    +0.124 A 
ATOM     30  C   UNL     1       4.641  -7.130  -9.165  0.00  0.00    +0.040 A 
ATOM     31  C   UNL     1       3.315  -6.746  -9.165  0.00  0.00    +0.029 A 
ATOM     32  F   UNL     1       6.936  -6.556  -9.037  0.00  0.00    -0.205 F 
ENDBRANCH  25  26
BRANCH  24  33
ATOM     33  S   UNL     1       1.158  -5.696 -11.709  0.00  0.00    -0.091 S 
ATOM     34  C   UNL     1      -0.393  -5.516 -12.631  0.00  0.00    +0.093 C 
ENDBRANCH  24  33
ENDBRANCH   3  21
TORSDOF 8
