REMARK  Name = ZINC42114433
REMARK  5 active torsions:
REMARK  status: ('A' for Active; 'I' for Inactive)
REMARK    1  A    between atoms: C_1  and  C_2
REMARK    2  A    between atoms: C_2  and  C_3
REMARK    3  A    between atoms: C_2  and  C_4
REMARK    4  A    between atoms: C_4  and  N_5
REMARK    5  A    between atoms: C_14  and  N_18
REMARK                            x       y       z     vdW  Elec       q    Type
REMARK                         _______ _______ _______ _____ _____    ______ ____
ROOT
ATOM      1  N   UNL     1      -1.416  -1.993  -0.116  0.00  0.00    -0.267 N 
ATOM      2  C   UNL     1      -1.448  -2.668  -1.339  0.00  0.00    +0.077 A 
ATOM      3  C   UNL     1      -1.421  -4.041  -1.130  0.00  0.00    +0.005 A 
ATOM      4  C   UNL     1      -1.444  -4.917  -2.192  0.00  0.00    +0.046 A 
ATOM      5  C   UNL     1      -1.495  -4.431  -3.489  0.00  0.00    +0.127 A 
ATOM      6  C   UNL     1      -1.522  -3.065  -3.711  0.00  0.00    +0.078 A 
ATOM      7  C   UNL     1      -1.500  -2.184  -2.646  0.00  0.00    +0.148 A 
ATOM      8  F   UNL     1      -1.527  -0.853  -2.872  0.00  0.00    -0.203 F 
ATOM      9  F   UNL     1      -1.517  -5.288  -4.533  0.00  0.00    -0.205 F 
ATOM     10  C   UNL     1      -1.367  -4.242   0.367  0.00  0.00    +0.171 C 
ATOM     11  C   UNL     1      -1.363  -2.837   0.929  0.00  0.00    +0.241 C 
ATOM     12  O   UNL     1      -1.322  -2.530   2.102  0.00  0.00    -0.273 OA
ENDROOT
BRANCH  10  13
ATOM     13  N   UNL     1      -0.138  -4.950   0.747  0.00  0.00    -0.316 NA
ATOM     14  H   UNL     1      -0.094  -5.089   1.746  0.00  0.00    +0.119 HD
ATOM     15  H   UNL     1      -0.059  -5.828   0.257  0.00  0.00    +0.119 HD
ENDBRANCH  10  13
BRANCH   1  16
ATOM     16  C   UNL     1      -1.433  -0.534   0.013  0.00  0.00    +0.116 C 
BRANCH  16  18
ATOM     17  C   UNL     1      -0.019   1.526   0.010  0.00  0.00    +0.009 C 
ATOM     18  C   UNL     1       0.002  -0.004   0.002  0.00  0.00    +0.001 C 
ATOM     19  C   UNL     1       0.742  -0.511   1.242  0.00  0.00    +0.009 C 
ENDBRANCH  16  18
ENDBRANCH   1  16
TORSDOF 3
