REMARK  Name = ZINC13115907
REMARK  10 active torsions:
REMARK  status: ('A' for Active; 'I' for Inactive)
REMARK    1  A    between atoms: C_1  and  C_2
REMARK    2  A    between atoms: C_2  and  C_3
REMARK    3  A    between atoms: C_3  and  C_25
REMARK    4  A    between atoms: N_6  and  C_10
REMARK    5  A    between atoms: C_10  and  C_11
REMARK    6  A    between atoms: N_13  and  C_14
REMARK    7  A    between atoms: C_19  and  C_24
REMARK    8  A    between atoms: C_21  and  C_23
REMARK    9  A    between atoms: C_28  and  O_31
REMARK   10  A    between atoms: O_31  and  C_32
REMARK                            x       y       z     vdW  Elec       q    Type
REMARK                         _______ _______ _______ _____ _____    ______ ____
ROOT
ATOM      1  C   UNL     1      -0.716   3.230  -7.768  0.00  0.00    +0.138 C 
ATOM      2  C   UNL     1      -0.814   2.074  -6.793  0.00  0.00    +0.251 C 
ATOM      3  O   UNL     1      -1.652   1.198  -6.776  0.00  0.00    -0.272 OA
ATOM      4  N   UNL     1       0.225   2.222  -5.947  0.00  0.00    -0.215 N 
ATOM      5  C   UNL     1       0.962   3.296  -6.254  0.00  0.00    +0.310 C 
ATOM      6  O   UNL     1       1.953   3.634  -5.637  0.00  0.00    -0.252 OA
ATOM      7  N   UNL     1       0.483   3.960  -7.321  0.00  0.00    -0.281 N 
ATOM      8  H   UNL     1       0.855   4.763  -7.719  0.00  0.00    +0.152 HD
ENDROOT
BRANCH   1   9
ATOM      9  C   UNL     1      -1.936   4.111  -7.681  0.00  0.00    -0.015 A 
ATOM     10  C   UNL     1      -2.990   3.918  -8.556  0.00  0.00    +0.010 A 
ATOM     11  C   UNL     1      -4.112   4.720  -8.474  0.00  0.00    +0.046 A 
ATOM     12  C   UNL     1      -4.176   5.727  -7.522  0.00  0.00    +0.120 A 
ATOM     13  C   UNL     1      -3.115   5.922  -6.650  0.00  0.00    +0.046 A 
ATOM     14  C   UNL     1      -1.997   5.113  -6.731  0.00  0.00    +0.010 A 
BRANCH  12  15
ATOM     15  O   UNL     1      -5.276   6.521  -7.444  0.00  0.00    -0.495 OA
ATOM     16  C   UNL     1      -6.330   6.263  -8.374  0.00  0.00    +0.277 C 
ENDBRANCH  12  15
ENDBRANCH   1   9
BRANCH   1  18
ATOM     17  C   UNL     1       0.683   1.778  -9.244  0.00  0.00    +0.007 C 
ATOM     18  C   UNL     1      -0.530   2.711  -9.195  0.00  0.00    +0.037 C 
ENDBRANCH   1  18
BRANCH   4  19
ATOM     19  C   UNL     1       0.515   1.316  -4.833  0.00  0.00    +0.213 C 
BRANCH  19  20
ATOM     20  C   UNL     1      -0.190   1.802  -3.593  0.00  0.00    +0.231 C 
ATOM     21  O   UNL     1      -0.868   2.806  -3.636  0.00  0.00    -0.274 OA
ATOM     22  N   UNL     1      -0.067   1.120  -2.437  0.00  0.00    -0.311 N 
ATOM     23  H   UNL     1       0.476   0.317  -2.403  0.00  0.00    +0.149 HD
BRANCH  22  24
ATOM     24  C   UNL     1      -0.753   1.593  -1.232  0.00  0.00    +0.076 C 
ATOM     25  C   UNL     1      -2.188   1.063  -1.221  0.00  0.00    +0.022 C 
ATOM     26  C   UNL     1      -2.904   1.556   0.038  0.00  0.00    +0.002 C 
ATOM     27  C   UNL     1      -2.164   1.050   1.278  0.00  0.00    +0.003 C 
ATOM     28  C   UNL     1      -0.729   1.579   1.267  0.00  0.00    -0.009 C 
ATOM     29  C   UNL     1      -0.013   1.086   0.008  0.00  0.00    +0.009 C 
ATOM     30  C   UNL     1       1.423   1.615  -0.003  0.00  0.00    +0.009 C 
ATOM     31  C   UNL     1       0.011   1.072   2.506  0.00  0.00    +0.008 C 
ENDBRANCH  22  24
ENDBRANCH  19  20
ENDBRANCH   4  19
TORSDOF 6
