REMARK  Name = ZINC30977342
REMARK  9 active torsions:
REMARK  status: ('A' for Active; 'I' for Inactive)
REMARK    1  A    between atoms: C_1  and  C_2
REMARK    2  A    between atoms: C_2  and  C_3
REMARK    3  A    between atoms: C_2  and  C_4
REMARK    4  A    between atoms: C_2  and  C_5
REMARK    5  A    between atoms: C_8  and  C_11
REMARK    6  A    between atoms: C_13  and  C_16
REMARK    7  A    between atoms: C_16  and  N_17
REMARK    8  A    between atoms: C_20  and  C_23
REMARK    9  A    between atoms: N_25  and  C_26
REMARK                            x       y       z     vdW  Elec       q    Type
REMARK                         _______ _______ _______ _____ _____    ______ ____
ROOT
ATOM      1  N   UNL     1       4.877  -0.068   1.439  0.00  0.00    +0.386 N 
ATOM      2  C   UNL     1       4.937   0.650   0.159  0.00  0.00    -0.077 C 
ATOM      3  C   UNL     1       3.696   1.532   0.009  0.00  0.00    -0.006 C 
ATOM      4  C   UNL     1       2.442   0.655   0.065  0.00  0.00    +0.072 C 
ATOM      5  C   UNL     1       2.428  -0.118   1.387  0.00  0.00    -0.006 C 
ATOM      6  C   UNL     1       3.706  -0.952   1.497  0.00  0.00    -0.077 C 
ATOM      7  H   UNL     1       4.772   0.681   2.238  0.00  0.00    -0.081 HD
ENDROOT
BRANCH   4   8
ATOM      8  C   UNL     1       1.215   1.525  -0.023  0.00  0.00    +0.220 C 
ATOM      9  O   UNL     1       1.330   2.728  -0.121  0.00  0.00    -0.275 OA
ATOM     10  N   UNL     1      -0.011   0.966   0.007  0.00  0.00    -0.283 N 
ATOM     11  H   UNL     1      -0.116  -0.129   0.027  0.00  0.00    +0.155 HD
BRANCH  10  12
ATOM     12  C   UNL     1      -1.152   1.779   0.014  0.00  0.00    +0.069 A 
ATOM     13  C   UNL     1      -1.156   2.976  -0.688  0.00  0.00    +0.027 A 
ATOM     14  C   UNL     1      -2.284   3.774  -0.683  0.00  0.00    +0.017 A 
ATOM     15  C   UNL     1      -3.406   3.386   0.027  0.00  0.00    +0.021 A 
ATOM     16  C   UNL     1      -3.404   2.196   0.733  0.00  0.00    +0.055 A 
ATOM     17  C   UNL     1      -2.280   1.391   0.728  0.00  0.00    +0.146 A 
ATOM     18  F   UNL     1      -2.278   0.228   1.416  0.00  0.00    -0.204 F 
ATOM     19 BR   UNL     1      -4.945   4.486   0.035  0.00  0.00    -0.050 Br
ENDBRANCH  10  12
ENDBRANCH   4   8
BRANCH   1  20
ATOM     20  C   UNL     1       6.116  -0.818   1.681  0.00  0.00    +0.022 C 
BRANCH  20  23
ATOM     21  C   UNL     1       5.872  -2.519   4.838  0.00  0.00    +0.202 A 
ATOM     22  N   UNL     1       5.652  -2.489   3.504  0.00  0.00    -0.193 NA
ATOM     23  C   UNL     1       6.122  -1.336   3.096  0.00  0.00    +0.211 A 
ATOM     24  O   UNL     1       6.612  -0.709   4.170  0.00  0.00    -0.340 OA
ATOM     25  N   UNL     1       6.458  -1.394   5.158  0.00  0.00    -0.056 NA
BRANCH  21  29
ATOM     26  C   UNL     1       4.851  -5.678   7.495  0.00  0.00    -0.042 A 
ATOM     27  C   UNL     1       5.472  -4.543   7.981  0.00  0.00    +0.005 A 
ATOM     28  C   UNL     1       5.806  -3.514   7.124  0.00  0.00    +0.012 A 
ATOM     29  C   UNL     1       5.516  -3.622   5.765  0.00  0.00    +0.022 A 
ATOM     30  C   UNL     1       4.886  -4.766   5.281  0.00  0.00    +0.012 A 
ATOM     31  C   UNL     1       4.560  -5.790   6.147  0.00  0.00    +0.005 A 
BRANCH  26  33
ATOM     32  C   UNL     1       3.524  -6.275   9.503  0.00  0.00    +0.015 C 
ATOM     33  C   UNL     1       4.488  -6.798   8.436  0.00  0.00    -0.013 C 
ATOM     34  C   UNL     1       3.817  -7.927   7.652  0.00  0.00    +0.015 C 
ATOM     35  C   UNL     1       5.755  -7.328   9.110  0.00  0.00    +0.015 C 
ENDBRANCH  26  33
ENDBRANCH  21  29
ENDBRANCH  20  23
ENDBRANCH   1  20
TORSDOF 6
