REMARK  Name = ZINC40000426
REMARK  7 active torsions:
REMARK  status: ('A' for Active; 'I' for Inactive)
REMARK    1  A    between atoms: C_1  and  C_2
REMARK    2  A    between atoms: C_2  and  S_3
REMARK    3  A    between atoms: S_3  and  C_4
REMARK    4  A    between atoms: C_10  and  C_28
REMARK    5  A    between atoms: C_12  and  C_17
REMARK    6  A    between atoms: C_17  and  C_19
REMARK    7  A    between atoms: C_32  and  N_34
REMARK                            x       y       z     vdW  Elec       q    Type
REMARK                         _______ _______ _______ _____ _____    ______ ____
ROOT
ATOM      1  C   UNL     1       0.573  -2.339  -1.493  0.00  0.00    +0.160 A 
ATOM      2  N   UNL     1       0.092  -3.100  -0.520  0.00  0.00    -0.133 NA
ATOM      3  N   UNL     1       0.189  -4.358  -0.548  0.00  0.00    -0.125 NA
ATOM      4  C   UNL     1       0.777  -4.994  -1.549  0.00  0.00    +0.192 A 
ATOM      5  S   UNL     1       1.237  -3.600  -2.576  0.00  0.00    -0.024 S 
ATOM      6  N   UNL     1       0.974  -6.355  -1.750  0.00  0.00    -0.230 N 
ATOM      7  C   UNL     1       0.545  -7.431  -0.849  0.00  0.00    +0.152 C 
ATOM      8  C   UNL     1       0.987  -8.723  -1.498  0.00  0.00    +0.080 C 
ATOM      9  C   UNL     1       1.605  -8.386  -2.656  0.00  0.00    +0.250 C 
ATOM     10  C   UNL     1       1.587  -6.918  -2.806  0.00  0.00    +0.293 C 
ATOM     11  O   UNL     1       2.060  -6.308  -3.746  0.00  0.00    -0.266 OA
ATOM     12  O   UNL     1       2.148  -9.258  -3.537  0.00  0.00    -0.282 OA
ENDROOT
BRANCH   7  13
ATOM     13  C   UNL     1       1.205  -7.275   0.497  0.00  0.00    -0.020 A 
ATOM     14  C   UNL     1       2.551  -6.971   0.576  0.00  0.00    +0.006 A 
ATOM     15  C   UNL     1       3.156  -6.827   1.810  0.00  0.00    +0.003 A 
ATOM     16  C   UNL     1       2.414  -6.987   2.966  0.00  0.00    +0.033 A 
ATOM     17  C   UNL     1       1.068  -7.290   2.887  0.00  0.00    +0.127 A 
ATOM     18  C   UNL     1       0.462  -7.429   1.652  0.00  0.00    +0.038 A 
BRANCH  17  19
ATOM     19  N   UNL     1       0.274  -7.462   4.124  0.00  0.00    +0.056 N 
ATOM     20  O   UNL     1       0.821  -7.433   5.202  0.00  0.00    -0.126 OA
ATOM     21  O   UNL     1      -0.921  -7.631   4.057  0.00  0.00    -0.126 OA
ENDBRANCH  17  19
ENDBRANCH   7  13
BRANCH   8  22
ATOM     22  C   UNL     1       0.785 -10.078  -0.976  0.00  0.00    +0.230 C 
ATOM     23  O   UNL     1       1.744 -10.751  -0.642  0.00  0.00    -0.283 OA
BRANCH  22  24
ATOM     24  C   UNL     1      -0.574 -10.624  -0.857  0.00  0.00    +0.176 A 
ATOM     25  C   UNL     1      -0.889 -11.824  -0.298  0.00  0.00    +0.061 A 
ATOM     26  C   UNL     1      -2.342 -11.947  -0.397  0.00  0.00    +0.021 A 
ATOM     27  C   UNL     1      -3.265 -12.924  -0.015  0.00  0.00    +0.011 A 
ATOM     28  C   UNL     1      -4.596 -12.730  -0.258  0.00  0.00    +0.001 A 
ATOM     29  C   UNL     1      -5.036 -11.570  -0.881  0.00  0.00    +0.004 A 
ATOM     30  C   UNL     1      -4.141 -10.594  -1.266  0.00  0.00    +0.047 A 
ATOM     31  C   UNL     1      -2.783 -10.768  -1.029  0.00  0.00    +0.136 A 
ATOM     32  O   UNL     1      -1.698 -10.009  -1.279  0.00  0.00    -0.452 OA
ENDBRANCH  22  24
ENDBRANCH   8  22
BRANCH   1  33
ATOM     33  S   UNL     1       0.557  -0.586  -1.672  0.00  0.00    -0.097 S 
BRANCH  33  35
ATOM     34  C   UNL     1      -0.368   1.528  -0.203  0.00  0.00    +0.016 C 
ATOM     35  C   UNL     1      -0.285   0.000  -0.176  0.00  0.00    +0.073 C 
ENDBRANCH  33  35
ENDBRANCH   1  33
TORSDOF 6
