REMARK  Name = ZINC39935187
REMARK  8 active torsions:
REMARK  status: ('A' for Active; 'I' for Inactive)
REMARK    1  A    between atoms: C_1  and  C_2
REMARK    2  A    between atoms: C_5  and  N_8
REMARK    3  A    between atoms: C_9  and  S_19
REMARK    4  A    between atoms: S_19  and  C_20
REMARK    5  A    between atoms: C_20  and  C_21
REMARK    6  A    between atoms: N_23  and  C_24
REMARK    7  A    between atoms: C_28  and  C_34
REMARK    8  A    between atoms: C_35  and  C_38
REMARK                            x       y       z     vdW  Elec       q    Type
REMARK                         _______ _______ _______ _____ _____    ______ ____
ROOT
ATOM      1  S   UNL     1       1.201  -4.595  -2.362  0.00  0.00    -0.108 S 
ENDROOT
BRANCH   1   3
ATOM      2  N   UNL     1      -0.068  -4.177  -0.007  0.00  0.00    -0.244 N 
ATOM      3  C   UNL     1      -0.110  -5.048  -1.193  0.00  0.00    +0.240 C 
ATOM      4  N   UNL     1       0.122  -6.397  -0.650  0.00  0.00    -0.259 N 
ATOM      5  N   UNL     1       0.275  -6.239   0.733  0.00  0.00    -0.283 N 
ATOM      6  C   UNL     1       0.173  -5.002   1.082  0.00  0.00    +0.183 C 
ATOM      7  N   UNL     1       0.288  -4.550   2.390  0.00  0.00    -0.303 N 
ATOM      8  C   UNL     1      -0.740  -4.680   3.434  0.00  0.00    +0.108 C 
ATOM      9  C   UNL     1      -0.182  -4.014   4.710  0.00  0.00    +0.020 C 
ATOM     10  C   UNL     1       0.898  -3.048   4.154  0.00  0.00    +0.020 C 
ATOM     11  C   UNL     1       1.461  -3.867   2.963  0.00  0.00    +0.108 C 
ATOM     12  H   UNL     1       0.161  -7.228  -1.149  0.00  0.00    +0.169 HD
ATOM     13  H   UNL     1       0.440  -6.968   1.351  0.00  0.00    +0.187 HD
BRANCH   2  18
ATOM     14  C   UNL     1      -0.742   1.454   0.090  0.00  0.00    +0.044 C 
ATOM     15  C   UNL     1      -0.563  -0.042   0.065  0.00  0.00    -0.050 A 
ATOM     16  C   UNL     1      -0.507  -0.710  -1.145  0.00  0.00    +0.005 A 
ATOM     17  C   UNL     1      -0.343  -2.081  -1.173  0.00  0.00    +0.024 A 
ATOM     18  C   UNL     1      -0.234  -2.789   0.017  0.00  0.00    +0.039 A 
ATOM     19  C   UNL     1      -0.291  -2.116   1.231  0.00  0.00    +0.024 A 
ATOM     20  C   UNL     1      -0.450  -0.744   1.251  0.00  0.00    +0.005 A 
ENDBRANCH   2  18
ENDBRANCH   1   3
BRANCH   1  21
ATOM     21  C   UNL     1       2.732  -4.824  -1.415  0.00  0.00    +0.168 C 
BRANCH  21  22
ATOM     22  C   UNL     1       3.915  -4.476  -2.282  0.00  0.00    +0.225 C 
ATOM     23  O   UNL     1       3.743  -4.110  -3.425  0.00  0.00    -0.275 OA
ATOM     24  N   UNL     1       5.165  -4.572  -1.786  0.00  0.00    -0.285 N 
ATOM     25  H   UNL     1       5.302  -4.865  -0.871  0.00  0.00    +0.151 HD
BRANCH  24  26
ATOM     26  C   UNL     1       6.315  -4.235  -2.628  0.00  0.00    +0.243 C 
ATOM     27  C   UNL     1       7.399  -3.624  -1.799  0.00  0.00    +0.065 C 
ATOM     28  C   UNL     1       8.571  -4.179  -2.155  0.00  0.00    -0.011 C 
ATOM     29  C   UNL     1       9.858  -3.775  -1.487  0.00  0.00    +0.099 C 
ATOM     30  N   UNL     1       9.719  -2.403  -0.983  0.00  0.00    -0.233 NA
ATOM     31  N   UNL     1       8.566  -2.149  -0.313  0.00  0.00    -0.247 N 
ATOM     32  C   UNL     1       7.361  -2.603  -0.740  0.00  0.00    +0.258 C 
ATOM     33  O   UNL     1       6.315  -2.192  -0.276  0.00  0.00    -0.269 OA
ATOM     34  C   UNL     1      10.152  -4.725  -0.324  0.00  0.00    +0.030 C 
ATOM     35  C   UNL     1       8.304  -5.173  -3.243  0.00  0.00    +0.146 C 
ATOM     36  O   UNL     1       6.883  -5.433  -3.199  0.00  0.00    -0.347 OA
ATOM     37  C   UNL     1       8.692  -4.587  -4.601  0.00  0.00    +0.043 C 
ATOM     38  H   UNL     1       9.865  -1.730  -1.721  0.00  0.00    +0.145 HD
ATOM     39  H   UNL     1       8.605  -1.623   0.501  0.00  0.00    +0.169 HD
ENDBRANCH  24  26
ENDBRANCH  21  22
ENDBRANCH   1  21
TORSDOF 5
