REMARK  Name = ZINC67078180
REMARK  12 active torsions:
REMARK  status: ('A' for Active; 'I' for Inactive)
REMARK    1  A    between atoms: C_1  and  C_2
REMARK    2  A    between atoms: C_4  and  C_8
REMARK    3  A    between atoms: C_5  and  C_7
REMARK    4  A    between atoms: C_8  and  C_10
REMARK    5  A    between atoms: C_8  and  N_11
REMARK    6  A    between atoms: C_12  and  C_14
REMARK    7  A    between atoms: C_17  and  S_19
REMARK    8  A    between atoms: S_19  and  N_22
REMARK    9  A    between atoms: N_22  and  C_23
REMARK   10  A    between atoms: C_23  and  C_24
REMARK   11  A    between atoms: C_23  and  C_25
REMARK   12  A    between atoms: C_23  and  C_26
REMARK                            x       y       z     vdW  Elec       q    Type
REMARK                         _______ _______ _______ _____ _____    ______ ____
ROOT
ATOM      1  C   UNL     1      -4.872  -4.043   2.186  0.00  0.00    +0.192 A 
ATOM      2  C   UNL     1      -5.529  -4.787   3.124  0.00  0.00    +0.057 A 
ATOM      3  C   UNL     1      -6.710  -4.093   3.435  0.00  0.00    +0.072 A 
ATOM      4  C   UNL     1      -6.721  -2.971   2.682  0.00  0.00    +0.258 A 
ATOM      5  O   UNL     1      -5.611  -2.942   1.935  0.00  0.00    -0.432 OA
ENDROOT
BRANCH   1   7
ATOM      6  N   UNL     1      -3.043  -3.550   0.652  0.00  0.00    -0.302 N 
ATOM      7  C   UNL     1      -3.587  -4.379   1.565  0.00  0.00    +0.280 C 
ATOM      8  O   UNL     1      -3.012  -5.406   1.874  0.00  0.00    -0.267 OA
ATOM      9  H   UNL     1      -3.501  -2.732   0.405  0.00  0.00    +0.150 HD
BRANCH   6  10
ATOM     10  C   UNL     1      -1.759  -3.886   0.031  0.00  0.00    +0.104 C 
ATOM     11  C   UNL     1      -1.996  -4.811  -1.164  0.00  0.00    +0.033 C 
BRANCH  10  15
ATOM     12  C   UNL     1      -0.924   0.916  -1.452  0.00  0.00    +0.086 C 
ATOM     13  C   UNL     1      -0.733  -0.532  -1.080  0.00  0.00    +0.103 A 
ATOM     14  C   UNL     1      -1.701  -1.376  -0.680  0.00  0.00    +0.050 A 
ATOM     15  C   UNL     1      -1.082  -2.624  -0.436  0.00  0.00    +0.013 A 
ATOM     16  C   UNL     1       0.228  -2.467  -0.702  0.00  0.00    +0.107 A 
ATOM     17  O   UNL     1       0.432  -1.200  -1.097  0.00  0.00    -0.465 OA
ATOM     18  C   UNL     1       1.285  -3.535  -0.582  0.00  0.00    +0.086 C 
ENDBRANCH  10  15
ENDBRANCH   6  10
ENDBRANCH   1   7
BRANCH   4  19
ATOM     19  S   UNL     1      -7.987  -1.746   2.688  0.00  0.00    +0.092 S 
ATOM     20  O   UNL     1      -7.806  -0.969   1.511  0.00  0.00    -0.150 OA
ATOM     21  O   UNL     1      -9.205  -2.420   2.975  0.00  0.00    -0.150 OA
BRANCH  19  22
ATOM     22  N   UNL     1      -7.690  -0.740   3.969  0.00  0.00    -0.182 NA
ATOM     23  H   UNL     1      -8.306  -0.713   4.718  0.00  0.00    +0.149 HD
BRANCH  22  24
ATOM     24  C   UNL     1      -6.497   0.110   3.972  0.00  0.00    +0.032 C 
ATOM     25  C   UNL     1      -6.632   1.183   2.890  0.00  0.00    +0.029 C 
ATOM     26  C   UNL     1      -6.351   0.780   5.340  0.00  0.00    +0.029 C 
ATOM     27  C   UNL     1      -5.260  -0.747   3.690  0.00  0.00    +0.029 C 
ENDBRANCH  22  24
ENDBRANCH  19  22
ENDBRANCH   4  19
TORSDOF 6
