REMARK  Name = ZINC11658503
REMARK  10 active torsions:
REMARK  status: ('A' for Active; 'I' for Inactive)
REMARK    1  A    between atoms: C_1  and  C_2
REMARK    2  A    between atoms: C_5  and  C_9
REMARK    3  A    between atoms: C_7  and  C_8
REMARK    4  A    between atoms: N_11  and  C_12
REMARK    5  A    between atoms: C_12  and  C_13
REMARK    6  A    between atoms: N_15  and  C_16
REMARK    7  A    between atoms: C_18  and  N_24
REMARK    8  A    between atoms: C_21  and  O_22
REMARK    9  A    between atoms: O_22  and  C_23
REMARK   10  A    between atoms: C_25  and  C_27
REMARK                            x       y       z     vdW  Elec       q    Type
REMARK                         _______ _______ _______ _____ _____    ______ ____
ROOT
ATOM      1  C   UNL     1      -5.906   3.159  -0.466  0.00  0.00    +0.234 C 
ATOM      2  O   UNL     1      -4.867   3.780  -0.382  0.00  0.00    -0.274 OA
ATOM      3  N   UNL     1      -5.899   1.815  -0.362  0.00  0.00    -0.281 N 
ATOM      4  H   UNL     1      -6.735   1.324  -0.361  0.00  0.00    +0.155 HD
ENDROOT
BRANCH   3   5
ATOM      5  C   UNL     1      -4.683   1.128  -0.253  0.00  0.00    +0.077 A 
ATOM      6  C   UNL     1      -3.623   1.695   0.438  0.00  0.00    +0.050 A 
ATOM      7  C   UNL     1      -2.420   1.012   0.543  0.00  0.00    +0.035 A 
ATOM      8  C   UNL     1      -2.276  -0.237  -0.047  0.00  0.00    +0.027 A 
ATOM      9  C   UNL     1      -3.333  -0.806  -0.731  0.00  0.00    +0.049 A 
ATOM     10  C   UNL     1      -4.537  -0.128  -0.839  0.00  0.00    +0.141 A 
BRANCH   7  11
ATOM     11  N   UNL     1      -1.348   1.584   1.241  0.00  0.00    -0.286 N 
ATOM     12  C   UNL     1      -0.409   0.794   1.799  0.00  0.00    +0.214 C 
ATOM     13  O   UNL     1      -0.546  -0.411   1.790  0.00  0.00    -0.276 OA
ATOM     14  C   UNL     1       0.814   1.409   2.430  0.00  0.00    +0.109 C 
ATOM     15  H   UNL     1      -1.282   2.548   1.323  0.00  0.00    +0.155 HD
ENDBRANCH   7  11
BRANCH  10  16
ATOM     16  O   UNL     1      -5.575  -0.687  -1.517  0.00  0.00    -0.493 OA
ATOM     17  C   UNL     1      -5.354  -1.976  -2.093  0.00  0.00    +0.277 C 
ENDBRANCH  10  16
ENDBRANCH   3   5
BRANCH   1  18
ATOM     18  C   UNL     1      -7.205   3.890  -0.688  0.00  0.00    +0.200 C 
BRANCH  18  21
ATOM     19  C   UNL     1      -7.968   6.188  -0.962  0.00  0.00    +0.244 C 
ATOM     20  O   UNL     1      -9.103   5.767  -1.074  0.00  0.00    -0.270 OA
ATOM     21  N   UNL     1      -6.947   5.330  -0.766  0.00  0.00    -0.303 N 
ATOM     22  H   UNL     1      -6.042   5.667  -0.677  0.00  0.00    +0.150 HD
BRANCH  19  27
ATOM     23  C   UNL     1      -6.956  11.845  -1.270  0.00  0.00    +0.044 C 
ATOM     24  C   UNL     1      -7.221  10.363  -1.189  0.00  0.00    -0.047 A 
ATOM     25  C   UNL     1      -6.170   9.485  -0.988  0.00  0.00    +0.004 A 
ATOM     26  C   UNL     1      -6.407   8.129  -0.908  0.00  0.00    +0.013 A 
ATOM     27  C   UNL     1      -7.708   7.641  -1.041  0.00  0.00    +0.037 A 
ATOM     28  C   UNL     1      -8.763   8.532  -1.244  0.00  0.00    +0.016 A 
ATOM     29  C   UNL     1      -8.514   9.887  -1.317  0.00  0.00    -0.047 A 
ATOM     30  C   UNL     1      -9.652  10.851  -1.536  0.00  0.00    +0.044 C 
ENDBRANCH  19  27
ENDBRANCH  18  21
ENDBRANCH   1  18
TORSDOF 6
