REMARK  Name = ZINC36640365
REMARK  6 active torsions:
REMARK  status: ('A' for Active; 'I' for Inactive)
REMARK    1  A    between atoms: C_4  and  N_7
REMARK    2  A    between atoms: C_17  and  S_18
REMARK    3  A    between atoms: S_18  and  C_19
REMARK    4  A    between atoms: C_19  and  C_20
REMARK    5  A    between atoms: N_22  and  N_23
REMARK    6  A    between atoms: C_24  and  C_26
REMARK                            x       y       z     vdW  Elec       q    Type
REMARK                         _______ _______ _______ _____ _____    ______ ____
ROOT
ATOM      1  N   UNL     1       3.623  -0.651  -0.037  0.00  0.00    -0.255 N 
ATOM      2  C   UNL     1       4.779   0.045  -0.142  0.00  0.00    +0.267 A 
ATOM      3  O   UNL     1       4.778   1.259  -0.224  0.00  0.00    -0.267 OA
ATOM      4  C   UNL     1       6.033  -0.719  -0.154  0.00  0.00    +0.065 A 
ATOM      5  C   UNL     1       7.275  -0.094  -0.258  0.00  0.00    +0.015 A 
ATOM      6  C   UNL     1       8.413  -0.852  -0.264  0.00  0.00    +0.001 A 
ATOM      7  C   UNL     1       8.344  -2.236  -0.167  0.00  0.00    +0.002 A 
ATOM      8  C   UNL     1       7.140  -2.875  -0.065  0.00  0.00    +0.028 A 
ATOM      9  C   UNL     1       5.959  -2.127  -0.056  0.00  0.00    +0.079 A 
ATOM     10  N   UNL     1       4.746  -2.719   0.045  0.00  0.00    -0.223 NA
ATOM     11  C   UNL     1       3.640  -2.016   0.059  0.00  0.00    +0.177 A 
ENDROOT
BRANCH   1  15
ATOM     12  C   UNL     1      -0.016   1.380   0.011  0.00  0.00    +0.000 A 
ATOM     13  C   UNL     1       0.648   1.126   1.197  0.00  0.00    +0.002 A 
ATOM     14  C   UNL     1       1.855   0.453   1.184  0.00  0.00    +0.026 A 
ATOM     15  C   UNL     1       2.400   0.031  -0.021  0.00  0.00    +0.052 A 
ATOM     16  C   UNL     1       1.730   0.287  -1.210  0.00  0.00    +0.026 A 
ATOM     17  C   UNL     1       0.524   0.960  -1.191  0.00  0.00    +0.002 A 
ENDBRANCH   1  15
BRANCH  11  18
ATOM     18  S   UNL     1       2.104  -2.868   0.200  0.00  0.00    -0.078 S 
BRANCH  18  19
ATOM     19  C   UNL     1       2.580  -4.615   0.299  0.00  0.00    +0.174 C 
BRANCH  19  20
ATOM     20  C   UNL     1       1.342  -5.466   0.425  0.00  0.00    +0.239 C 
ATOM     21  O   UNL     1       0.247  -4.945   0.446  0.00  0.00    -0.273 OA
ATOM     22  N   UNL     1       1.452  -6.807   0.515  0.00  0.00    -0.233 N 
ATOM     23  H   UNL     1       2.328  -7.224   0.498  0.00  0.00    +0.173 HD
BRANCH  22  24
ATOM     24  N   UNL     1       0.302  -7.598   0.632  0.00  0.00    -0.230 N 
ATOM     25  C   UNL     1       0.412  -8.938   0.721  0.00  0.00    +0.260 C 
ATOM     26  O   UNL     1       1.509  -9.460   0.700  0.00  0.00    -0.269 OA
ATOM     27  H   UNL     1      -0.574  -7.181   0.649  0.00  0.00    +0.173 HD
BRANCH  25  28
ATOM     28  C   UNL     1      -0.802  -9.772   0.845  0.00  0.00    +0.038 A 
ATOM     29  C   UNL     1      -2.064  -9.175   0.864  0.00  0.00    +0.014 A 
ATOM     30  C   UNL     1      -3.193  -9.959   0.979  0.00  0.00    +0.021 A 
ATOM     31  C   UNL     1      -3.076 -11.336   1.077  0.00  0.00    +0.041 A 
ATOM     32  C   UNL     1      -1.827 -11.934   1.060  0.00  0.00    +0.021 A 
ATOM     33  C   UNL     1      -0.691 -11.161   0.938  0.00  0.00    +0.014 A 
ATOM     34 CL   UNL     1      -4.502 -12.316   1.223  0.00  0.00    -0.084 Cl
ENDBRANCH  25  28
ENDBRANCH  22  24
ENDBRANCH  19  20
ENDBRANCH  18  19
ENDBRANCH  11  18
TORSDOF 6
