REMARK  Name = ZINC09468211
REMARK  6 active torsions:
REMARK  status: ('A' for Active; 'I' for Inactive)
REMARK    1  A    between atoms: C_3  and  N_17
REMARK    2  A    between atoms: C_6  and  N_7
REMARK    3  A    between atoms: C_8  and  C_10
REMARK    4  A    between atoms: C_10  and  C_11
REMARK    5  A    between atoms: N_17  and  S_18
REMARK    6  A    between atoms: S_18  and  C_21
REMARK                            x       y       z     vdW  Elec       q    Type
REMARK                         _______ _______ _______ _____ _____    ______ ____
ROOT
ATOM      1  C   UNL     1       5.773   0.858  -4.257  0.00  0.00    +0.025 A 
ATOM      2  C   UNL     1       5.549  -0.169  -3.363  0.00  0.00    +0.026 A 
ATOM      3  C   UNL     1       4.476  -0.101  -2.482  0.00  0.00    +0.048 A 
ATOM      4  C   UNL     1       3.627   0.997  -2.506  0.00  0.00    +0.026 A 
ATOM      5  C   UNL     1       3.855   2.027  -3.397  0.00  0.00    +0.025 A 
ATOM      6  C   UNL     1       4.927   1.959  -4.277  0.00  0.00    +0.033 A 
ENDROOT
BRANCH   6   7
ATOM      7  N   UNL     1       5.155   3.002  -5.185  0.00  0.00    -0.285 N 
ATOM      8  C   UNL     1       5.671   2.736  -6.402  0.00  0.00    +0.218 C 
ATOM      9  O   UNL     1       5.850   1.586  -6.746  0.00  0.00    -0.275 OA
ATOM     10  H   UNL     1       4.942   3.916  -4.939  0.00  0.00    +0.155 HD
BRANCH   8  11
ATOM     11  C   UNL     1       6.025   3.865  -7.334  0.00  0.00    +0.103 C 
BRANCH  11  12
ATOM     12  C   UNL     1       6.587   3.294  -8.637  0.00  0.00    +0.020 C 
ATOM     13  C   UNL     1       7.037   4.437  -9.576  0.00  0.00    +0.012 C 
ATOM     14  C   UNL     1       6.647   3.868 -10.960  0.00  0.00    +0.027 C 
ATOM     15  C   UNL     1       5.537   2.883 -10.671  0.00  0.00    -0.031 C 
ATOM     16  C   UNL     1       5.506   2.568  -9.403  0.00  0.00    -0.027 C 
ENDBRANCH  11  12
ENDBRANCH   8  11
ENDBRANCH   6   7
BRANCH   3  17
ATOM     17  N   UNL     1       4.249  -1.142  -1.576  0.00  0.00    -0.216 N 
ATOM     18  H   UNL     1       3.518  -1.762  -1.722  0.00  0.00    +0.174 HD
BRANCH  17  19
ATOM     19  S   UNL     1       5.228  -1.315  -0.252  0.00  0.00    +0.072 S 
ATOM     20  O   UNL     1       6.566  -1.307  -0.732  0.00  0.00    -0.150 OA
ATOM     21  O   UNL     1       4.698  -2.393   0.508  0.00  0.00    -0.150 OA
BRANCH  19  22
ATOM     22  C   UNL     1       5.037   0.135   0.731  0.00  0.00    +0.112 A 
ATOM     23  C   UNL     1       3.994   0.225   1.634  0.00  0.00    +0.032 A 
ATOM     24  C   UNL     1       3.840   1.361   2.404  0.00  0.00    +0.051 A 
ATOM     25  C   UNL     1       4.732   2.415   2.275  0.00  0.00    +0.162 A 
ATOM     26  C   UNL     1       5.782   2.324   1.369  0.00  0.00    +0.164 A 
ATOM     27  C   UNL     1       5.931   1.181   0.598  0.00  0.00    +0.078 A 
ATOM     28  O   UNL     1       6.674   3.343   1.232  0.00  0.00    -0.485 OA
ATOM     29  C   UNL     1       6.278   4.619   1.748  0.00  0.00    +0.270 C 
ATOM     30  C   UNL     1       5.689   4.408   3.150  0.00  0.00    +0.270 C 
ATOM     31  O   UNL     1       4.562   3.532   3.034  0.00  0.00    -0.485 OA
ENDBRANCH  19  22
ENDBRANCH  17  19
ENDBRANCH   3  17
TORSDOF 6
