REMARK  Name = ZINC50418002
REMARK  7 active torsions:
REMARK  status: ('A' for Active; 'I' for Inactive)
REMARK    1  A    between atoms: C_1  and  C_2
REMARK    2  A    between atoms: C_3  and  C_22
REMARK    3  A    between atoms: C_10  and  C_13
REMARK    4  A    between atoms: C_13  and  N_14
REMARK    5  A    between atoms: N_14  and  C_15
REMARK    6  A    between atoms: C_15  and  C_16
REMARK    7  A    between atoms: N_20  and  C_21
REMARK                            x       y       z     vdW  Elec       q    Type
REMARK                         _______ _______ _______ _____ _____    ______ ____
ROOT
ATOM      1  C   UNL     1      -0.018   1.503   0.010  0.00  0.00    +0.045 C 
ATOM      2  C   UNL     1       0.002  -0.004   0.002  0.00  0.00    -0.026 A 
ATOM      3  C   UNL     1       0.006  -0.677  -1.159  0.00  0.00    -0.008 A 
ATOM      4  S   UNL     1       0.031  -2.384  -0.644  0.00  0.00    -0.075 S 
ATOM      5  C   UNL     1       0.036  -2.139   1.112  0.00  0.00    +0.092 A 
ATOM      6  C   UNL     1       0.024  -0.745   1.249  0.00  0.00    +0.075 A 
ATOM      7  C   UNL     1       0.030  -0.253   2.645  0.00  0.00    +0.282 A 
ATOM      8  O   UNL     1       0.016   0.945   2.879  0.00  0.00    -0.265 OA
ATOM      9  N   UNL     1       0.051  -1.143   3.648  0.00  0.00    -0.194 NA
ATOM     10  C   UNL     1       0.067  -2.430   3.442  0.00  0.00    +0.126 A 
ATOM     11  N   UNL     1       0.052  -2.952   2.199  0.00  0.00    -0.336 N 
ATOM     12  H   UNL     1       0.064  -3.914   2.080  0.00  0.00    +0.168 HD
ATOM     13  C   UNL     1      -0.008  -0.124  -2.561  0.00  0.00    +0.052 C 
ENDROOT
BRANCH  10  14
ATOM     14  C   UNL     1       0.090  -3.361   4.627  0.00  0.00    +0.156 C 
BRANCH  14  15
ATOM     15  N   UNL     1       0.091  -2.575   5.867  0.00  0.00    -0.303 NA
ATOM     16  H   UNL     1       0.864  -1.927   5.884  0.00  0.00    +0.123 HD
BRANCH  15  17
ATOM     17  C   UNL     1       0.114  -3.452   7.046  0.00  0.00    +0.158 C 
BRANCH  17  18
ATOM     18  C   UNL     1       0.114  -2.612   8.297  0.00  0.00    +0.147 A 
ATOM     19  N   UNL     1       1.165  -2.162   8.926  0.00  0.00    -0.133 NA
ATOM     20  N   UNL     1       0.796  -1.481   9.953  0.00  0.00    -0.138 NA
ATOM     21  C   UNL     1      -0.507  -1.466  10.025  0.00  0.00    +0.224 A 
ATOM     22  N   UNL     1      -0.977  -2.179   8.974  0.00  0.00    -0.319 N 
ATOM     23  C   UNL     1      -2.381  -2.433   8.638  0.00  0.00    +0.151 C 
ENDBRANCH  17  18
ENDBRANCH  15  17
ENDBRANCH  14  15
ENDBRANCH  10  14
TORSDOF 4
