REMARK  Name = ZINC22582922
REMARK  9 active torsions:
REMARK  status: ('A' for Active; 'I' for Inactive)
REMARK    1  A    between atoms: C_1  and  C_2
REMARK    2  A    between atoms: N_13  and  C_28
REMARK    3  A    between atoms: C_14  and  S_16
REMARK    4  A    between atoms: S_16  and  C_17
REMARK    5  A    between atoms: C_17  and  C_19
REMARK    6  A    between atoms: C_17  and  C_22
REMARK    7  A    between atoms: C_19  and  C_20
REMARK    8  A    between atoms: C_19  and  C_21
REMARK    9  A    between atoms: C_28  and  C_29
REMARK                            x       y       z     vdW  Elec       q    Type
REMARK                         _______ _______ _______ _____ _____    ______ ____
ROOT
ATOM      1  C   UNL     1     -13.153  -5.612  -0.258  0.00  0.00    +0.008 C 
ATOM      2  C   UNL     1     -12.339  -4.324  -0.119  0.00  0.00    -0.009 C 
ATOM      3  C   UNL     1     -12.532  -3.454  -1.364  0.00  0.00    +0.008 C 
ATOM      4  C   UNL     1     -11.929  -2.068  -1.128  0.00  0.00    +0.037 C 
ATOM      5  C   UNL     1     -10.487  -2.233  -0.655  0.00  0.00    -0.023 A 
ATOM      6  C   UNL     1     -10.056  -3.408  -0.156  0.00  0.00    -0.004 A 
ATOM      7  S   UNL     1      -8.353  -3.138   0.254  0.00  0.00    -0.073 S 
ATOM      8  C   UNL     1      -8.224  -1.440  -0.248  0.00  0.00    +0.117 A 
ATOM      9  C   UNL     1      -9.514  -1.141  -0.719  0.00  0.00    +0.076 A 
ATOM     10  C   UNL     1      -9.707   0.193  -1.200  0.00  0.00    +0.263 A 
ATOM     11  O   UNL     1     -10.793   0.544  -1.629  0.00  0.00    -0.267 OA
ATOM     12  N   UNL     1      -8.674   1.055  -1.172  0.00  0.00    -0.285 N 
ATOM     13  C   UNL     1      -7.451   0.680  -0.696  0.00  0.00    +0.173 A 
ATOM     14  N   UNL     1      -7.245  -0.544  -0.252  0.00  0.00    -0.216 NA
ATOM     15  C   UNL     1     -10.849  -4.668   0.015  0.00  0.00    +0.046 C 
ENDROOT
BRANCH  13  16
ATOM     16  S   UNL     1      -6.129   1.845  -0.680  0.00  0.00    -0.075 S 
BRANCH  16  17
ATOM     17  C   UNL     1      -4.816   0.821   0.029  0.00  0.00    +0.143 C 
BRANCH  17  18
ATOM     18  C   UNL     1      -3.522   1.592   0.027  0.00  0.00    +0.234 C 
ATOM     19  O   UNL     1      -3.538   2.804   0.034  0.00  0.00    -0.274 OA
ATOM     20  N   UNL     1      -2.345   0.934   0.018  0.00  0.00    -0.239 N 
ATOM     21  C   UNL     1      -1.187   1.624   0.017  0.00  0.00    +0.303 C 
ATOM     22  O   UNL     1      -1.204   2.839   0.023  0.00  0.00    -0.253 OA
ATOM     23  N   UNL     1      -0.011   0.966   0.007  0.00  0.00    -0.313 N 
ATOM     24  H   UNL     1      -2.330  -0.166   0.012  0.00  0.00    +0.159 HD
ATOM     25  H   UNL     1       0.934   1.529   0.006  0.00  0.00    +0.146 HD
ATOM     26  H   UNL     1       0.004  -0.134   0.001  0.00  0.00    +0.146 HD
ENDBRANCH  17  18
BRANCH  17  27
ATOM     27  C   UNL     1      -5.183   0.444   1.466  0.00  0.00    +0.005 C 
ATOM     28  C   UNL     1      -4.073  -0.421   2.066  0.00  0.00    +0.009 C 
ATOM     29  C   UNL     1      -5.346   1.716   2.301  0.00  0.00    +0.009 C 
ENDBRANCH  17  27
ENDBRANCH  16  17
ENDBRANCH  13  16
BRANCH  12  30
ATOM     30  C   UNL     1      -8.865   2.422  -1.663  0.00  0.00    +0.159 C 
BRANCH  30  31
ATOM     31  C   UNL     1      -8.545   2.476  -3.159  0.00  0.00    +0.138 C 
ATOM     32  C   UNL     1      -8.632   3.933  -3.660  0.00  0.00    +0.035 C 
ATOM     33  C   UNL     1      -9.292   3.763  -5.056  0.00  0.00    +0.031 C 
ATOM     34  C   UNL     1     -10.233   2.560  -4.791  0.00  0.00    +0.160 C 
ATOM     35  O   UNL     1      -9.508   1.708  -3.890  0.00  0.00    -0.375 OA
ENDBRANCH  30  31
ENDBRANCH  12  30
TORSDOF 6
