REMARK  Name = ZINC03456437
REMARK  5 active torsions:
REMARK  status: ('A' for Active; 'I' for Inactive)
REMARK    1  A    between atoms: C_1  and  C_2
REMARK    2  A    between atoms: C_3  and  C_23
REMARK    3  A    between atoms: C_7  and  N_17
REMARK    4  A    between atoms: C_9  and  C_11
REMARK    5  A    between atoms: N_17  and  C_18
REMARK                            x       y       z     vdW  Elec       q    Type
REMARK                         _______ _______ _______ _____ _____    ______ ____
ROOT
ATOM      1  C   UNL     1      -6.249   3.836   0.096  0.00  0.00    +0.045 C 
ATOM      2  C   UNL     1      -4.851   4.401   0.089  0.00  0.00    -0.028 A 
ATOM      3  C   UNL     1      -4.640   5.694   0.378  0.00  0.00    -0.008 A 
ATOM      4  S   UNL     1      -2.871   5.869   0.238  0.00  0.00    -0.073 S 
ATOM      5  C   UNL     1      -2.463   4.200  -0.203  0.00  0.00    +0.114 A 
ATOM      6  C   UNL     1      -3.718   3.551  -0.231  0.00  0.00    +0.051 A 
ATOM      7  C   UNL     1      -3.685   2.168  -0.565  0.00  0.00    +0.131 A 
ATOM      8  N   UNL     1      -2.525   1.593  -0.828  0.00  0.00    -0.212 NA
ATOM      9  C   UNL     1      -1.378   2.264  -0.779  0.00  0.00    +0.164 A 
ATOM     10  N   UNL     1      -1.348   3.554  -0.472  0.00  0.00    -0.220 NA
ATOM     11  C   UNL     1      -5.656   6.748   0.735  0.00  0.00    +0.052 C 
ENDROOT
BRANCH   9  12
ATOM     12  C   UNL     1      -0.110   1.557  -1.078  0.00  0.00    +0.037 A 
ATOM     13  C   UNL     1       1.110   2.241  -1.045  0.00  0.00    +0.014 A 
ATOM     14  C   UNL     1       2.265   1.538  -1.338  0.00  0.00    +0.020 A 
ATOM     15  C   UNL     1       2.178   0.193  -1.651  0.00  0.00    +0.111 A 
ATOM     16  N   UNL     1       1.013  -0.425  -1.674  0.00  0.00    -0.263 NA
ATOM     17  C   UNL     1      -0.113   0.202  -1.403  0.00  0.00    +0.122 A 
ENDBRANCH   9  12
BRANCH   7  18
ATOM     18  N   UNL     1      -4.857   1.435  -0.621  0.00  0.00    -0.326 N 
ATOM     19  H   UNL     1      -5.713   1.879  -0.517  0.00  0.00    +0.148 HD
BRANCH  18  20
ATOM     20  C   UNL     1      -4.805  -0.013  -0.839  0.00  0.00    +0.072 C 
ATOM     21  C   UNL     1      -4.777  -0.320  -2.350  0.00  0.00    +0.022 C 
ATOM     22  C   UNL     1      -5.640  -1.599  -2.494  0.00  0.00    +0.002 C 
ATOM     23  C   UNL     1      -6.777  -1.363  -1.468  0.00  0.00    +0.002 C 
ATOM     24  C   UNL     1      -6.075  -0.676  -0.278  0.00  0.00    +0.022 C 
ENDBRANCH  18  20
ENDBRANCH   7  18
TORSDOF 3
