REMARK  Name = ZINC00275052
REMARK  4 active torsions:
REMARK  status: ('A' for Active; 'I' for Inactive)
REMARK    1  A    between atoms: C_3  and  N_18
REMARK    2  A    between atoms: C_6  and  C_7
REMARK    3  A    between atoms: N_9  and  N_10
REMARK    4  A    between atoms: N_10  and  C_11
REMARK                            x       y       z     vdW  Elec       q    Type
REMARK                         _______ _______ _______ _____ _____    ______ ____
ROOT
ATOM      1  C   UNL     1      -1.187   1.625   0.023  0.00  0.00    +0.260 C 
ATOM      2  O   UNL     1      -1.203   2.840   0.026  0.00  0.00    -0.269 OA
ATOM      3  N   UNL     1      -0.011   0.966   0.013  0.00  0.00    -0.233 N 
ATOM      4  H   UNL     1       0.002  -0.004   0.010  0.00  0.00    +0.173 HD
ENDROOT
BRANCH   1  10
ATOM      5  C   UNL     1      -2.438  -0.528   0.021  0.00  0.00    +0.015 A 
ATOM      6  C   UNL     1      -3.622  -1.229   0.034  0.00  0.00    +0.023 A 
ATOM      7  C   UNL     1      -4.836  -0.547   0.044  0.00  0.00    +0.025 A 
ATOM      8  C   UNL     1      -4.856   0.845   0.048  0.00  0.00    +0.023 A 
ATOM      9  C   UNL     1      -3.675   1.551   0.041  0.00  0.00    +0.015 A 
ATOM     10  C   UNL     1      -2.455   0.870   0.030  0.00  0.00    +0.038 A 
BRANCH   7  11
ATOM     11  N   UNL     1      -6.031  -1.258   0.051  0.00  0.00    -0.358 N 
ATOM     12  H   UNL     1      -6.877  -0.785   0.058  0.00  0.00    +0.142 HD
ATOM     13  H   UNL     1      -6.018  -2.228   0.048  0.00  0.00    +0.142 HD
ENDBRANCH   7  11
ENDBRANCH   1  10
BRANCH   3  14
ATOM     14  N   UNL     1       1.193   1.683  -0.000  0.00  0.00    -0.268 N 
ATOM     15  H   UNL     1       1.181   2.650  -0.072  0.00  0.00    +0.170 HD
BRANCH  14  16
ATOM     16  C   UNL     1       2.380   1.021   0.088  0.00  0.00    +0.025 C 
ATOM     17  C   UNL     1       2.389  -0.330   0.079  0.00  0.00    +0.066 C 
ATOM     18  C   UNL     1       3.581  -1.057   0.156  0.00  0.00    +0.158 C 
ATOM     19  O   UNL     1       3.548  -2.271   0.141  0.00  0.00    -0.293 OA
ATOM     20  C   UNL     1       4.907  -0.348   0.262  0.00  0.00    +0.079 C 
ATOM     21  C   UNL     1       4.804   1.013  -0.435  0.00  0.00    +0.014 C 
ATOM     22  C   UNL     1       3.659   1.808   0.199  0.00  0.00    +0.052 C 
ENDBRANCH  14  16
ENDBRANCH   3  14
TORSDOF 4
