REMARK  Name = ZINC39609012
REMARK  7 active torsions:
REMARK  status: ('A' for Active; 'I' for Inactive)
REMARK    1  A    between atoms: C_1  and  C_2
REMARK    2  A    between atoms: C_2  and  C_8
REMARK    3  A    between atoms: C_12  and  C_21
REMARK    4  A    between atoms: N_23  and  C_24
REMARK    5  A    between atoms: C_29  and  O_31
REMARK    6  A    between atoms: O_31  and  C_32
REMARK    7  A    between atoms: C_32  and  C_33
REMARK                            x       y       z     vdW  Elec       q    Type
REMARK                         _______ _______ _______ _____ _____    ______ ____
ROOT
ATOM      1  C   UNL     1      -1.304  -0.575   0.034  0.00  0.00    +0.222 C 
ATOM      2  O   UNL     1      -0.130  -0.274   0.057  0.00  0.00    -0.275 OA
ATOM      3  N   UNL     1      -2.084  -0.170  -0.989  0.00  0.00    -0.300 N 
ATOM      4  C   UNL     1      -1.671   0.555  -2.213  0.00  0.00    +0.121 C 
ATOM      5  C   UNL     1      -2.511  -0.079  -3.344  0.00  0.00    +0.100 C 
ATOM      6  C   UNL     1      -3.741  -0.670  -2.635  0.00  0.00    -0.004 C 
ATOM      7  C   UNL     1      -3.546  -0.356  -1.145  0.00  0.00    +0.115 C 
ATOM      8  C   UNL     1      -5.017  -0.012  -3.153  0.00  0.00    -0.010 C 
ATOM      9  C   UNL     1      -6.229  -0.656  -2.476  0.00  0.00    -0.082 C 
ATOM     10  N   UNL     1      -6.246  -2.095  -2.765  0.00  0.00    +0.379 N 
ATOM     11  C   UNL     1      -5.061  -2.737  -2.183  0.00  0.00    -0.082 C 
ATOM     12  C   UNL     1      -3.799  -2.180  -2.848  0.00  0.00    -0.010 C 
ATOM     13  H   UNL     1      -7.078  -2.507  -2.369  0.00  0.00    -0.086 HD
ATOM     14  H   UNL     1      -6.247  -2.236  -3.764  0.00  0.00    -0.086 HD
ENDROOT
BRANCH   1  16
ATOM     15  C   UNL     1      -2.349  -2.753   0.595  0.00  0.00    +0.021 C 
ATOM     16  C   UNL     1      -1.892  -1.402   1.148  0.00  0.00    +0.044 C 
ATOM     17  C   UNL     1      -3.091  -0.666   1.751  0.00  0.00    +0.016 C 
ATOM     18  C   UNL     1      -2.634   0.685   2.305  0.00  0.00    +0.001 C 
ATOM     19  C   UNL     1      -1.575   0.462   3.387  0.00  0.00    +0.000 C 
ATOM     20  C   UNL     1      -0.377  -0.274   2.784  0.00  0.00    +0.001 C 
ATOM     21  C   UNL     1      -0.834  -1.625   2.230  0.00  0.00    +0.016 C 
ENDBRANCH   1  16
BRANCH   5  22
ATOM     22  C   UNL     1      -1.727  -1.166  -4.033  0.00  0.00    +0.218 C 
ATOM     23  O   UNL     1      -0.838  -1.741  -3.442  0.00  0.00    -0.275 OA
ATOM     24  N   UNL     1      -2.014  -1.500  -5.307  0.00  0.00    -0.310 N 
ATOM     25  H   UNL     1      -2.675  -0.994  -5.804  0.00  0.00    +0.149 HD
BRANCH  24  26
ATOM     26  C   UNL     1      -1.328  -2.629  -5.941  0.00  0.00    +0.102 C 
ATOM     27  C   UNL     1       0.046  -2.182  -6.468  0.00  0.00    +0.025 C 
ATOM     28  C   UNL     1       0.030  -2.413  -7.993  0.00  0.00    +0.004 C 
ATOM     29  C   UNL     1      -1.048  -3.505  -8.200  0.00  0.00    +0.033 C 
ATOM     30  C   UNL     1      -2.133  -3.118  -7.163  0.00  0.00    +0.139 C 
BRANCH  30  31
ATOM     31  O   UNL     1      -2.926  -4.255  -6.818  0.00  0.00    -0.370 OA
BRANCH  31  32
ATOM     32  C   UNL     1      -4.136  -4.369  -7.569  0.00  0.00    +0.195 C 
BRANCH  32  33
ATOM     33  C   UNL     1      -4.889  -5.597  -7.125  0.00  0.00    -0.022 A 
ATOM     34  C   UNL     1      -4.656  -6.811  -7.743  0.00  0.00    +0.006 A 
ATOM     35  C   UNL     1      -5.347  -7.938  -7.335  0.00  0.00    +0.000 A 
ATOM     36  C   UNL     1      -6.270  -7.849  -6.310  0.00  0.00    +0.000 A 
ATOM     37  C   UNL     1      -6.502  -6.635  -5.692  0.00  0.00    +0.000 A 
ATOM     38  C   UNL     1      -5.808  -5.510  -6.096  0.00  0.00    +0.006 A 
ENDBRANCH  32  33
ENDBRANCH  31  32
ENDBRANCH  30  31
ENDBRANCH  24  26
ENDBRANCH   5  22
TORSDOF 6
