REMARK  Name = ZINC35097880
REMARK  11 active torsions:
REMARK  status: ('A' for Active; 'I' for Inactive)
REMARK    1  A    between atoms: C_1  and  C_2
REMARK    2  A    between atoms: C_2  and  C_3
REMARK    3  A    between atoms: C_3  and  C_5
REMARK    4  A    between atoms: C_3  and  C_6
REMARK    5  A    between atoms: C_6  and  C_8
REMARK    6  A    between atoms: C_6  and  N_24
REMARK    7  A    between atoms: C_14  and  C_17
REMARK    8  A    between atoms: N_20  and  C_21
REMARK    9  A    between atoms: C_21  and  C_22
REMARK   10  A    between atoms: C_21  and  C_23
REMARK   11  A    between atoms: C_25  and  C_27
REMARK                            x       y       z     vdW  Elec       q    Type
REMARK                         _______ _______ _______ _____ _____    ______ ____
ROOT
ATOM      1  C   UNL     1       0.626  -2.054  -1.335  0.00  0.00    +0.162 C 
ENDROOT
BRANCH   1   2
ATOM      2  C   UNL     1      -0.816  -2.489  -1.380  0.00  0.00    +0.236 C 
ATOM      3  O   UNL     1      -1.288  -3.120  -0.458  0.00  0.00    -0.274 OA
ATOM      4  N   UNL     1      -1.582  -2.175  -2.444  0.00  0.00    -0.297 N 
ATOM      5  C   UNL     1      -0.998  -1.502  -3.613  0.00  0.00    +0.127 C 
ATOM      6  C   UNL     1      -1.790  -0.217  -3.885  0.00  0.00    +0.128 C 
ATOM      7  N   UNL     1      -3.224  -0.543  -3.897  0.00  0.00    -0.280 N 
ATOM      8  C   UNL     1      -3.807  -1.216  -2.728  0.00  0.00    +0.092 C 
ATOM      9  C   UNL     1      -3.014  -2.506  -2.458  0.00  0.00    +0.130 C 
ATOM     10  C   UNL     1      -3.727  -0.292  -1.510  0.00  0.00    +0.030 C 
ATOM     11  C   UNL     1      -3.989  -0.230  -4.961  0.00  0.00    +0.303 C 
ATOM     12  O   UNL     1      -5.148  -0.595  -5.005  0.00  0.00    -0.253 OA
ATOM     13  N   UNL     1      -3.470   0.489  -5.976  0.00  0.00    -0.297 N 
ATOM     14  H   UNL     1      -2.528   0.719  -5.976  0.00  0.00    +0.150 HD
BRANCH  13  15
ATOM     15  C   UNL     1      -4.330   0.923  -7.080  0.00  0.00    +0.068 C 
ATOM     16  C   UNL     1      -5.024   2.233  -6.702  0.00  0.00    +0.027 C 
ATOM     17  C   UNL     1      -3.479   1.140  -8.333  0.00  0.00    +0.027 C 
ENDBRANCH  13  15
ENDBRANCH   1   2
BRANCH   1  18
ATOM     18  N   UNL     1       1.377  -2.943  -0.445  0.00  0.00    -0.300 N 
ATOM     19  C   UNL     1       2.705  -3.098  -0.611  0.00  0.00    +0.245 C 
ATOM     20  O   UNL     1       3.281  -2.501  -1.499  0.00  0.00    -0.270 OA
ATOM     21  H   UNL     1       0.917  -3.420   0.264  0.00  0.00    +0.150 HD
BRANCH  19  22
ATOM     22  C   UNL     1       3.462  -3.995   0.288  0.00  0.00    +0.038 A 
ATOM     23  C   UNL     1       2.803  -4.687   1.305  0.00  0.00    +0.014 A 
ATOM     24  C   UNL     1       3.514  -5.523   2.141  0.00  0.00    +0.022 A 
ATOM     25  C   UNL     1       4.880  -5.676   1.973  0.00  0.00    +0.059 A 
ATOM     26  C   UNL     1       5.541  -4.992   0.965  0.00  0.00    +0.060 A 
ATOM     27  C   UNL     1       4.838  -4.158   0.118  0.00  0.00    +0.034 A 
ATOM     28 CL   UNL     1       7.253  -5.190   0.761  0.00  0.00    -0.082 Cl
ATOM     29 CL   UNL     1       5.769  -6.729   3.029  0.00  0.00    -0.082 Cl
ENDBRANCH  19  22
ENDBRANCH   1  18
BRANCH   1  30
ATOM     30  C   UNL     1       0.711  -0.619  -0.812  0.00  0.00    +0.015 C 
ATOM     31  C   UNL     1       2.172  -0.166  -0.799  0.00  0.00    +0.010 C 
BRANCH  30  33
ATOM     32  C   UNL     1       0.114   0.895   1.084  0.00  0.00    +0.004 C 
ATOM     33  C   UNL     1       0.145  -0.559   0.608  0.00  0.00    +0.002 C 
ENDBRANCH  30  33
ENDBRANCH   1  30
TORSDOF 6
