REMARK  Name = ZINC06822222
REMARK  15 active torsions:
REMARK  status: ('A' for Active; 'I' for Inactive)
REMARK    1  A    between atoms: C_1  and  C_2
REMARK    2  A    between atoms: C_2  and  C_3
REMARK    3  A    between atoms: C_6  and  N_9
REMARK    4  A    between atoms: N_9  and  C_10
REMARK    5  A    between atoms: C_10  and  C_12
REMARK    6  A    between atoms: C_10  and  C_18
REMARK    7  A    between atoms: C_15  and  C_17
REMARK    8  A    between atoms: N_20  and  C_21
REMARK    9  A    between atoms: C_21  and  C_22
REMARK   10  A    between atoms: C_22  and  O_24
REMARK   11  A    between atoms: O_24  and  C_25
REMARK   12  A    between atoms: C_25  and  C_26
REMARK   13  A    between atoms: C_27  and  C_29
REMARK   14  A    between atoms: C_30  and  N_37
REMARK   15  A    between atoms: C_31  and  C_34
REMARK                            x       y       z     vdW  Elec       q    Type
REMARK                         _______ _______ _______ _____ _____    ______ ____
ROOT
ATOM      1  N   UNL     1      -3.834   1.574  -0.213  0.00  0.00    -0.248 N 
ATOM      2  C   UNL     1      -4.598   0.891  -1.089  0.00  0.00    +0.262 C 
ATOM      3  O   UNL     1      -4.077   0.255  -1.985  0.00  0.00    -0.269 OA
ENDROOT
BRANCH   1   7
ATOM      4  C   UNL     1      -5.620   4.008   2.656  0.00  0.00    -0.048 A 
ATOM      5  C   UNL     1      -5.339   4.514   1.401  0.00  0.00    +0.005 A 
ATOM      6  C   UNL     1      -4.746   3.710   0.447  0.00  0.00    +0.024 A 
ATOM      7  C   UNL     1      -4.433   2.391   0.750  0.00  0.00    +0.038 A 
ATOM      8  C   UNL     1      -4.723   1.884   2.011  0.00  0.00    +0.024 A 
ATOM      9  C   UNL     1      -5.310   2.695   2.962  0.00  0.00    +0.005 A 
BRANCH   4  11
ATOM     10  C   UNL     1      -7.788   4.772   3.587  0.00  0.00    +0.009 C 
ATOM     11  C   UNL     1      -6.266   4.888   3.695  0.00  0.00    +0.032 C 
ENDBRANCH   4  11
ENDBRANCH   1   7
BRANCH   2  12
ATOM     12  C   UNL     1      -6.057   0.916  -0.961  0.00  0.00    +0.116 A 
ATOM     13  C   UNL     1      -7.021   0.216  -1.689  0.00  0.00    +0.076 A 
ATOM     14  C   UNL     1      -8.320   0.506  -1.272  0.00  0.00    +0.155 A 
ATOM     15  N   UNL     1      -8.505   1.361  -0.290  0.00  0.00    -0.203 NA
ATOM     16  S   UNL     1      -7.075   1.842   0.169  0.00  0.00    +0.019 S 
BRANCH  14  17
ATOM     17  C   UNL     1      -9.474  -0.139  -1.925  0.00  0.00    +0.262 C 
ATOM     18  O   UNL     1      -9.295  -0.928  -2.833  0.00  0.00    -0.269 OA
ATOM     19  N   UNL     1     -10.726   0.147  -1.516  0.00  0.00    -0.324 N 
ATOM     20  H   UNL     1     -10.868   0.777  -0.792  0.00  0.00    +0.145 HD
ATOM     21  H   UNL     1     -11.485  -0.277  -1.946  0.00  0.00    +0.145 HD
ENDBRANCH  14  17
BRANCH  13  22
ATOM     22  N   UNL     1      -6.720  -0.670  -2.714  0.00  0.00    -0.355 N 
ATOM     23  H   UNL     1      -5.795  -0.832  -2.960  0.00  0.00    +0.142 HD
ATOM     24  H   UNL     1      -7.434  -1.128  -3.185  0.00  0.00    +0.142 HD
ENDBRANCH  13  22
ENDBRANCH   2  12
BRANCH   1  25
ATOM     25  C   UNL     1      -2.374   1.459  -0.271  0.00  0.00    +0.233 C 
BRANCH  25  26
ATOM     26  C   UNL     1      -1.848   1.058   1.083  0.00  0.00    +0.135 A 
ATOM     27  C   UNL     1      -0.962   0.075   1.323  0.00  0.00    +0.047 A 
ATOM     28  C   UNL     1      -0.750   0.047   2.721  0.00  0.00    +0.045 A 
ATOM     29  C   UNL     1      -1.526   1.009   3.252  0.00  0.00    +0.102 A 
ATOM     30  O   UNL     1      -2.188   1.619   2.256  0.00  0.00    -0.462 OA
ATOM     31  C   UNL     1      -1.633   1.346   4.717  0.00  0.00    +0.086 C 
ENDBRANCH  25  26
BRANCH  25  32
ATOM     32  C   UNL     1      -1.782   2.786  -0.667  0.00  0.00    +0.242 C 
ATOM     33  O   UNL     1      -2.507   3.735  -0.881  0.00  0.00    -0.273 OA
ATOM     34  N   UNL     1      -0.446   2.920  -0.785  0.00  0.00    -0.303 N 
ATOM     35  H   UNL     1       0.134   2.161  -0.614  0.00  0.00    +0.149 HD
BRANCH  34  36
ATOM     36  C   UNL     1       0.131   4.208  -1.176  0.00  0.00    +0.225 C 
BRANCH  36  37
ATOM     37  C   UNL     1       1.631   4.089  -1.241  0.00  0.00    +0.324 C 
ATOM     38  O   UNL     1       2.165   3.035  -0.986  0.00  0.00    -0.249 OA
BRANCH  37  39
ATOM     39  O   UNL     1       2.375   5.153  -1.582  0.00  0.00    -0.464 OA
BRANCH  39  40
ATOM     40  C   UNL     1       3.814   4.965  -1.623  0.00  0.00    +0.229 C 
ATOM     41  C   UNL     1       4.489   6.278  -2.028  0.00  0.00    +0.048 C 
ENDBRANCH  39  40
ENDBRANCH  37  39
ENDBRANCH  36  37
ENDBRANCH  34  36
ENDBRANCH  25  32
ENDBRANCH   1  25
TORSDOF 12
