REMARK  Name = ZINC01617171
REMARK  6 active torsions:
REMARK  status: ('A' for Active; 'I' for Inactive)
REMARK    1  A    between atoms: C_1  and  O_2
REMARK    2  A    between atoms: O_2  and  C_3
REMARK    3  A    between atoms: C_8  and  O_9
REMARK    4  A    between atoms: O_9  and  C_10
REMARK    5  A    between atoms: C_15  and  C_19
REMARK    6  A    between atoms: C_19  and  C_20
REMARK                            x       y       z     vdW  Elec       q    Type
REMARK                         _______ _______ _______ _____ _____    ______ ____
ROOT
ATOM      1  C   UNL     1       3.675   3.333   0.338  0.00  0.00    +0.162 A 
ATOM      2  C   UNL     1       2.702   3.436   1.319  0.00  0.00    +0.054 A 
ATOM      3  C   UNL     1       1.535   2.704   1.216  0.00  0.00    -0.022 A 
ATOM      4  C   UNL     1       1.355   1.839   0.139  0.00  0.00    +0.042 A 
ATOM      5  C   UNL     1       2.318   1.744  -0.850  0.00  0.00    +0.073 A 
ATOM      6  C   UNL     1       3.481   2.492  -0.753  0.00  0.00    +0.163 A 
ATOM      7  N   UNL     1       0.185   1.067   0.089  0.00  0.00    -0.269 N 
ATOM      8  C   UNL     1      -1.015   1.621   0.040  0.00  0.00    +0.304 C 
ATOM      9  O   UNL     1      -1.608   1.428  -1.003  0.00  0.00    -0.253 OA
ATOM     10  N   UNL     1      -1.675   2.339   0.914  0.00  0.00    -0.296 N 
ATOM     11  C   UNL     1      -1.603   3.777   1.100  0.00  0.00    +0.079 C 
ATOM     12  C   UNL     1      -0.346   4.147   1.893  0.00  0.00    +0.027 C 
ATOM     13  C   UNL     1       0.438   2.876   2.235  0.00  0.00    +0.039 C 
ATOM     14  H   UNL     1       0.257   0.100   0.086  0.00  0.00    +0.156 HD
ATOM     15  H   UNL     1      -2.281   1.858   1.500  0.00  0.00    +0.151 HD
ENDROOT
BRANCH   1  17
ATOM     16  C   UNL     1       4.957   4.899   1.589  0.00  0.00    +0.277 C 
ATOM     17  O   UNL     1       4.824   4.056   0.443  0.00  0.00    -0.491 OA
ENDBRANCH   1  17
BRANCH   6  18
ATOM     18  O   UNL     1       4.430   2.405  -1.724  0.00  0.00    -0.491 OA
ATOM     19  C   UNL     1       4.163   1.522  -2.815  0.00  0.00    +0.277 C 
ENDBRANCH   6  18
BRANCH  11  20
ATOM     20  C   UNL     1      -1.561   4.463  -0.266  0.00  0.00    +0.057 C 
BRANCH  20  21
ATOM     21  C   UNL     1      -1.654   5.956  -0.082  0.00  0.00    -0.042 A 
ATOM     22  C   UNL     1      -0.502   6.720  -0.052  0.00  0.00    +0.007 A 
ATOM     23  C   UNL     1      -0.582   8.090   0.116  0.00  0.00    +0.050 A 
ATOM     24  C   UNL     1      -1.817   8.701   0.255  0.00  0.00    +0.166 A 
ATOM     25  C   UNL     1      -2.978   7.931   0.225  0.00  0.00    +0.166 A 
ATOM     26  C   UNL     1      -2.890   6.559   0.051  0.00  0.00    +0.053 A 
ATOM     27  O   UNL     1      -4.053   8.757   0.382  0.00  0.00    -0.453 OA
ATOM     28  C   UNL     1      -3.521   9.984   0.915  0.00  0.00    +0.466 C 
ATOM     29  O   UNL     1      -2.166  10.009   0.430  0.00  0.00    -0.453 OA
ENDBRANCH  20  21
ENDBRANCH  11  20
TORSDOF 4
