REMARK  Name = ZINC20378824
REMARK  10 active torsions:
REMARK  status: ('A' for Active; 'I' for Inactive)
REMARK    1  A    between atoms: C_1  and  C_2
REMARK    2  A    between atoms: C_2  and  C_3
REMARK    3  A    between atoms: C_3  and  C_5
REMARK    4  A    between atoms: C_3  and  N_6
REMARK    5  A    between atoms: C_9  and  O_10
REMARK    6  A    between atoms: C_11  and  O_12
REMARK    7  A    between atoms: N_13  and  C_14
REMARK    8  A    between atoms: C_20  and  O_22
REMARK    9  A    between atoms: O_22  and  C_23
REMARK   10  A    between atoms: C_23  and  C_24
REMARK                            x       y       z     vdW  Elec       q    Type
REMARK                         _______ _______ _______ _____ _____    ______ ____
ROOT
ATOM      1  N   UNL     1      -2.082  -0.162   1.273  0.00  0.00    -0.275 NA
ATOM      2  C   UNL     1      -3.153   0.579   1.260  0.00  0.00    +0.132 C 
ATOM      3  C   UNL     1      -4.055   1.147   2.302  0.00  0.00    +0.132 C 
ATOM      4  C   UNL     1      -4.811   1.729   1.176  0.00  0.00    +0.188 C 
ATOM      5  C   UNL     1      -3.975   1.209   0.209  0.00  0.00    +0.188 C 
ATOM      6  N   UNL     1      -4.137   1.135   3.603  0.00  0.00    -0.275 NA
ENDROOT
BRANCH   6   7
ATOM      7  C   UNL     1      -5.224   1.851   4.274  0.00  0.00    +0.109 C 
ATOM      8  C   UNL     1      -4.636   2.917   5.202  0.00  0.00    +0.046 C 
ATOM      9  C   UNL     1      -5.776   3.687   5.876  0.00  0.00    +0.113 C 
ATOM     10  N   UNL     1      -6.664   2.726   6.546  0.00  0.00    -0.267 N 
ATOM     11  C   UNL     1      -7.213   1.608   5.767  0.00  0.00    +0.113 C 
ATOM     12  C   UNL     1      -6.056   0.862   5.094  0.00  0.00    +0.046 C 
ATOM     13  C   UNL     1      -6.968   2.868   7.852  0.00  0.00    +0.403 C 
ATOM     14  O   UNL     1      -6.507   3.796   8.486  0.00  0.00    -0.226 OA
BRANCH  13  15
ATOM     15  O   UNL     1      -7.782   1.980   8.453  0.00  0.00    -0.451 OA
BRANCH  15  16
ATOM     16  C   UNL     1      -8.062   2.192   9.839  0.00  0.00    +0.230 C 
ATOM     17  C   UNL     1      -8.997   1.091  10.344  0.00  0.00    +0.048 C 
ENDBRANCH  15  16
ENDBRANCH  13  15
ENDBRANCH   6   7
BRANCH   1  18
ATOM     18  C   UNL     1      -1.433  -0.534   0.013  0.00  0.00    +0.103 C 
ATOM     19  C   UNL     1      -1.416  -2.058  -0.121  0.00  0.00    +0.032 C 
BRANCH  18  21
ATOM     20  C   UNL     1      -0.019   1.526   0.010  0.00  0.00    +0.006 C 
ATOM     21  C   UNL     1       0.002  -0.004   0.002  0.00  0.00    +0.023 C 
ENDBRANCH  18  21
ENDBRANCH   1  18
BRANCH   4  22
ATOM     22  O   UNL     1      -5.923   2.501   1.115  0.00  0.00    -0.502 OA
ATOM     23  H   UNL     1      -6.191   2.734   0.216  0.00  0.00    +0.292 HD
ENDBRANCH   4  22
BRANCH   5  24
ATOM     24  O   UNL     1      -3.928   1.258  -1.144  0.00  0.00    -0.502 OA
ATOM     25  H   UNL     1      -4.641   1.774  -1.544  0.00  0.00    +0.292 HD
ENDBRANCH   5  24
TORSDOF 7
