REMARK  Name = ZINC22791967
REMARK  10 active torsions:
REMARK  status: ('A' for Active; 'I' for Inactive)
REMARK    1  A    between atoms: C_1  and  C_2
REMARK    2  A    between atoms: C_2  and  C_3
REMARK    3  A    between atoms: C_4  and  C_34
REMARK    4  A    between atoms: C_6  and  C_8
REMARK    5  A    between atoms: C_11  and  C_13
REMARK    6  A    between atoms: C_13  and  N_14
REMARK    7  A    between atoms: N_17  and  C_20
REMARK    8  A    between atoms: C_20  and  C_21
REMARK    9  A    between atoms: C_27  and  C_33
REMARK   10  A    between atoms: C_28  and  C_32
REMARK                            x       y       z     vdW  Elec       q    Type
REMARK                         _______ _______ _______ _____ _____    ______ ____
ROOT
ATOM      1  N   UNL     1       0.335  -4.046  -8.476  0.00  0.00    -0.297 NA
ATOM      2  C   UNL     1       1.490  -4.954  -8.450  0.00  0.00    +0.066 C 
ATOM      3  C   UNL     1       0.996  -6.402  -8.434  0.00  0.00    -0.063 C 
ATOM      4  N   UNL     1       0.180  -6.654  -9.629  0.00  0.00    +0.386 N 
ATOM      5  C   UNL     1      -0.983  -5.757  -9.629  0.00  0.00    -0.063 C 
ATOM      6  C   UNL     1      -0.505  -4.303  -9.654  0.00  0.00    +0.066 C 
ATOM      7  H   UNL     1       0.734  -6.486 -10.456  0.00  0.00    -0.081 HD
ENDROOT
BRANCH   1   8
ATOM      8  C   UNL     1       0.767  -2.643  -8.434  0.00  0.00    +0.182 C 
BRANCH   8  12
ATOM      9  C   UNL     1       1.737  -1.797  -5.044  0.00  0.00    +0.255 A 
ATOM     10  N   UNL     1       2.879  -2.154  -5.590  0.00  0.00    -0.107 NA
ATOM     11  N   UNL     1       2.678  -2.485  -6.817  0.00  0.00    -0.111 NA
ATOM     12  C   UNL     1       1.413  -2.356  -7.102  0.00  0.00    +0.232 A 
ATOM     13  O   UNL     1       0.786  -1.925  -5.993  0.00  0.00    -0.418 OA
BRANCH   9  17
ATOM     14  C   UNL     1       0.707  -0.490  -1.238  0.00  0.00    -0.007 A 
ATOM     15  C   UNL     1       2.027  -0.761  -1.417  0.00  0.00    -0.040 A 
ATOM     16  C   UNL     1       2.463  -1.200  -2.646  0.00  0.00    +0.024 A 
ATOM     17  C   UNL     1       1.534  -1.350  -3.659  0.00  0.00    +0.076 A 
ATOM     18  S   UNL     1       0.021  -0.865  -2.843  0.00  0.00    -0.088 S 
ATOM     19  C   UNL     1       3.002  -0.581  -0.283  0.00  0.00    +0.044 C 
BRANCH  14  21
ATOM     20  C   UNL     1      -0.019   1.526   0.010  0.00  0.00    +0.009 C 
ATOM     21  C   UNL     1       0.002  -0.004   0.002  0.00  0.00    +0.039 C 
ENDBRANCH  14  21
ENDBRANCH   9  17
ENDBRANCH   8  12
ENDBRANCH   1   8
BRANCH   4  22
ATOM     22  C   UNL     1      -0.279  -8.050  -9.623  0.00  0.00    -0.003 C 
BRANCH  22  23
ATOM     23  C   UNL     1      -1.012  -8.343 -10.907  0.00  0.00    +0.094 A 
ATOM     24  N   UNL     1      -1.530  -9.582 -11.112  0.00  0.00    -0.312 N 
ATOM     25  H   UNL     1      -1.421 -10.261 -10.428  0.00  0.00    +0.170 HD
ATOM     26  C   UNL     1      -2.192  -9.885 -12.243  0.00  0.00    +0.260 A 
ATOM     27  O   UNL     1      -2.651 -11.002 -12.411  0.00  0.00    -0.267 OA
ATOM     28  C   UNL     1      -2.348  -8.876 -13.248  0.00  0.00    +0.075 A 
ATOM     29  C   UNL     1      -3.012  -8.953 -14.536  0.00  0.00    -0.026 A 
ATOM     30  C   UNL     1      -3.038  -7.868 -15.326  0.00  0.00    -0.008 A 
ATOM     31  S   UNL     1      -2.156  -6.644 -14.377  0.00  0.00    -0.073 S 
ATOM     32  C   UNL     1      -1.778  -7.625 -12.947  0.00  0.00    +0.116 A 
ATOM     33  N   UNL     1      -1.143  -7.400 -11.801  0.00  0.00    -0.229 NA
ATOM     34  C   UNL     1      -3.663  -7.721 -16.690  0.00  0.00    +0.052 C 
ATOM     35  C   UNL     1      -3.664 -10.237 -14.981  0.00  0.00    +0.045 C 
ENDBRANCH  22  23
ENDBRANCH   4  22
TORSDOF 6
