REMARK  Name = ZINC05130270
REMARK  7 active torsions:
REMARK  status: ('A' for Active; 'I' for Inactive)
REMARK    1  A    between atoms: C_1  and  O_2
REMARK    2  A    between atoms: O_2  and  C_3
REMARK    3  A    between atoms: C_6  and  C_10
REMARK    4  A    between atoms: C_8  and  O_9
REMARK    5  A    between atoms: C_13  and  C_24
REMARK    6  A    between atoms: C_19  and  N_23
REMARK    7  A    between atoms: C_20  and  C_21
REMARK                            x       y       z     vdW  Elec       q    Type
REMARK                         _______ _______ _______ _____ _____    ______ ____
ROOT
ATOM      1  C   UNL     1      -4.987  -2.627   0.035  0.00  0.00    +0.102 C 
ATOM      2  C   UNL     1      -5.764  -2.224   1.262  0.00  0.00    +0.054 A 
ATOM      3  C   UNL     1      -5.568  -2.565   2.558  0.00  0.00    +0.074 A 
ATOM      4  N   UNL     1      -6.537  -1.941   3.292  0.00  0.00    -0.273 N 
ATOM      5  H   UNL     1      -6.651  -1.997   4.253  0.00  0.00    +0.189 HD
ATOM      6  N   UNL     1      -7.340  -1.204   2.407  0.00  0.00    -0.135 NA
ATOM      7  C   UNL     1      -6.883  -1.370   1.199  0.00  0.00    +0.245 A 
ATOM      8  O   UNL     1      -7.333  -0.859   0.021  0.00  0.00    -0.421 OA
ATOM      9  C   UNL     1      -6.853  -1.400  -1.116  0.00  0.00    +0.201 C 
ATOM     10  C   UNL     1      -5.782  -2.221  -1.180  0.00  0.00    +0.098 C 
ENDROOT
BRANCH   3  11
ATOM     11  C   UNL     1      -4.502  -3.447   3.082  0.00  0.00    +0.000 A 
ATOM     12  C   UNL     1      -4.205  -4.647   2.435  0.00  0.00    +0.011 A 
ATOM     13  C   UNL     1      -3.211  -5.466   2.928  0.00  0.00    +0.020 A 
ATOM     14  C   UNL     1      -2.508  -5.100   4.063  0.00  0.00    +0.041 A 
ATOM     15  C   UNL     1      -2.798  -3.910   4.710  0.00  0.00    +0.020 A 
ATOM     16  C   UNL     1      -3.787  -3.080   4.222  0.00  0.00    +0.011 A 
ATOM     17 CL   UNL     1      -1.258  -6.135   4.678  0.00  0.00    -0.084 Cl
ENDBRANCH   3  11
BRANCH   1  21
ATOM     18  C   UNL     1      -1.201  -0.638   0.010  0.00  0.00    +0.161 A 
ATOM     19  C   UNL     1      -2.374   0.099   0.019  0.00  0.00    +0.050 A 
ATOM     20  C   UNL     1      -3.596  -0.546   0.027  0.00  0.00    +0.008 A 
ATOM     21  C   UNL     1      -3.652  -1.928   0.026  0.00  0.00    -0.031 A 
ATOM     22  C   UNL     1      -2.485  -2.669   0.017  0.00  0.00    +0.053 A 
ATOM     23  C   UNL     1      -1.257  -2.028   0.003  0.00  0.00    +0.159 A 
BRANCH  18  25
ATOM     24  C   UNL     1      -0.017   1.425   0.010  0.00  0.00    +0.277 C 
ATOM     25  O   UNL     1       0.002  -0.004   0.002  0.00  0.00    -0.491 OA
ENDBRANCH  18  25
BRANCH  23  26
ATOM     26  O   UNL     1      -0.108  -2.756  -0.012  0.00  0.00    -0.503 OA
ATOM     27  H   UNL     1       0.232  -2.972   0.867  0.00  0.00    +0.292 HD
ENDBRANCH  23  26
ENDBRANCH   1  21
BRANCH   9  28
ATOM     28  N   UNL     1      -7.496  -1.097  -2.290  0.00  0.00    -0.328 N 
ATOM     29  H   UNL     1      -8.269  -0.510  -2.282  0.00  0.00    +0.145 HD
ATOM     30  H   UNL     1      -7.178  -1.468  -3.127  0.00  0.00    +0.145 HD
ENDBRANCH   9  28
BRANCH  10  31
ATOM     31  C   UNL     1      -5.384  -2.728  -2.459  0.00  0.00    +0.101 C 
ATOM     32  N   UNL     1      -5.068  -3.131  -3.473  0.00  0.00    -0.191 NA
ENDBRANCH  10  31
TORSDOF 6
