REMARK  Name = ZINC08917897
REMARK  11 active torsions:
REMARK  status: ('A' for Active; 'I' for Inactive)
REMARK    1  A    between atoms: C_1  and  C_2
REMARK    2  A    between atoms: N_6  and  O_7
REMARK    3  A    between atoms: O_7  and  C_8
REMARK    4  A    between atoms: C_8  and  C_9
REMARK    5  A    between atoms: N_11  and  C_12
REMARK    6  A    between atoms: C_12  and  C_13
REMARK    7  A    between atoms: C_13  and  C_14
REMARK    8  A    between atoms: C_17  and  O_20
REMARK    9  A    between atoms: C_31  and  C_40
REMARK   10  A    between atoms: C_36  and  C_37
REMARK   11  A    between atoms: C_36  and  O_39
REMARK                            x       y       z     vdW  Elec       q    Type
REMARK                         _______ _______ _______ _____ _____    ______ ____
ROOT
ATOM      1  C   UNL     1      -4.874   1.450  -0.379  0.00  0.00    +0.016 C 
ATOM      2  C   UNL     1      -3.546   2.116  -0.011  0.00  0.00    -0.007 C 
ATOM      3  C   UNL     1      -3.814   3.521   0.532  0.00  0.00    +0.017 C 
ATOM      4  C   UNL     1      -4.507   4.351  -0.554  0.00  0.00    +0.059 C 
ATOM      5  C   UNL     1      -3.635   4.368  -1.785  0.00  0.00    +0.080 C 
ATOM      6  N   UNL     1      -3.688   5.369  -2.605  0.00  0.00    -0.089 NA
ATOM      7  C   UNL     1      -2.728   3.245  -2.052  0.00  0.00    +0.026 C 
ATOM      8  C   UNL     1      -2.672   2.203  -1.237  0.00  0.00    -0.062 C 
ATOM      9  C   UNL     1      -1.725   1.061  -1.513  0.00  0.00    +0.031 C 
ATOM     10  C   UNL     1      -0.755   0.903  -0.351  0.00  0.00    +0.008 C 
ATOM     11  C   UNL     1      -1.325   1.431   0.961  0.00  0.00    -0.003 C 
ATOM     12  C   UNL     1      -2.834   1.279   1.042  0.00  0.00    +0.002 C 
ATOM     13  C   UNL     1      -3.176  -0.205   0.896  0.00  0.00    +0.005 C 
ATOM     14  C   UNL     1      -2.607  -0.940   2.108  0.00  0.00    +0.011 C 
ATOM     15  C   UNL     1      -1.088  -0.783   2.195  0.00  0.00    +0.011 C 
ATOM     16  C   UNL     1      -0.667   0.694   2.091  0.00  0.00    +0.002 C 
ATOM     17  C   UNL     1      -1.095   1.284   3.447  0.00  0.00    +0.008 C 
ATOM     18  C   UNL     1      -0.732   0.167   4.453  0.00  0.00    +0.049 C 
ATOM     19  C   UNL     1      -0.690  -1.176   3.645  0.00  0.00    +0.132 C 
ATOM     20  C   UNL     1      -0.373  -1.649   1.156  0.00  0.00    +0.015 C 
ENDROOT
BRANCH  19  21
ATOM     21  C   UNL     1       0.668  -1.745   3.660  0.00  0.00    -0.070 C 
ATOM     22  C   UNL     1       1.751  -2.198   3.671  0.00  0.00    +0.007 C 
ENDBRANCH  19  21
BRANCH  19  23
ATOM     23  O   UNL     1      -1.624  -2.120   4.172  0.00  0.00    -0.376 OA
ATOM     24  H   UNL     1      -1.429  -2.404   5.075  0.00  0.00    +0.211 HD
ENDBRANCH  19  23
BRANCH   6  25
ATOM     25  O   UNL     1      -2.869   5.382  -3.760  0.00  0.00    -0.384 OA
BRANCH  25  26
ATOM     26  C   UNL     1      -3.030   6.546  -4.574  0.00  0.00    +0.358 C 
BRANCH  26  27
ATOM     27  C   UNL     1      -2.116   6.455  -5.768  0.00  0.00    +0.253 C 
ATOM     28  O   UNL     1      -1.397   5.488  -5.909  0.00  0.00    -0.272 OA
ATOM     29  N   UNL     1      -2.097   7.447  -6.680  0.00  0.00    -0.312 N 
ATOM     30  H   UNL     1      -2.672   8.220  -6.567  0.00  0.00    +0.149 HD
BRANCH  29  31
ATOM     31  C   UNL     1      -1.208   7.358  -7.841  0.00  0.00    +0.109 C 
BRANCH  31  32
ATOM     32  C   UNL     1      -1.381   8.604  -8.712  0.00  0.00    +0.054 C 
BRANCH  32  33
ATOM     33  C   UNL     1      -0.467   8.512  -9.906  0.00  0.00    -0.046 A 
ATOM     34  C   UNL     1       0.814   9.028  -9.836  0.00  0.00    +0.007 A 
ATOM     35  C   UNL     1       1.656   8.941 -10.928  0.00  0.00    +0.045 A 
ATOM     36  C   UNL     1       1.212   8.345 -12.099  0.00  0.00    +0.117 A 
ATOM     37  C   UNL     1      -0.076   7.833 -12.169  0.00  0.00    +0.045 A 
ATOM     38  C   UNL     1      -0.912   7.918 -11.073  0.00  0.00    +0.007 A 
BRANCH  36  39
ATOM     39  O   UNL     1       2.037   8.262 -13.176  0.00  0.00    -0.507 OA
ATOM     40  H   UNL     1       1.980   9.020 -13.774  0.00  0.00    +0.292 HD
ENDBRANCH  36  39
ENDBRANCH  32  33
ENDBRANCH  31  32
ENDBRANCH  29  31
ENDBRANCH  26  27
ENDBRANCH  25  26
ENDBRANCH   6  25
TORSDOF 9
