REMARK  Name = ZINC08122856
REMARK  8 active torsions:
REMARK  status: ('A' for Active; 'I' for Inactive)
REMARK    1  A    between atoms: C_1  and  C_2
REMARK    2  A    between atoms: C_7  and  N_8
REMARK    3  A    between atoms: C_9  and  C_11
REMARK    4  A    between atoms: C_14  and  S_17
REMARK    5  A    between atoms: S_17  and  N_20
REMARK    6  A    between atoms: N_20  and  C_21
REMARK    7  A    between atoms: N_20  and  O_22
REMARK    8  A    between atoms: O_22  and  C_23
REMARK                            x       y       z     vdW  Elec       q    Type
REMARK                         _______ _______ _______ _____ _____    ______ ____
ROOT
ATOM      1  C   UNL     1      -0.166   0.040   4.857  0.00  0.00    +0.037 A 
ATOM      2  C   UNL     1      -0.190   1.436   4.864  0.00  0.00    +0.015 A 
ATOM      3  C   UNL     1      -0.292   2.114   6.061  0.00  0.00    +0.029 A 
ATOM      4  C   UNL     1      -0.370   1.414   7.252  0.00  0.00    +0.108 A 
ATOM      5  C   UNL     1      -0.346   0.031   7.252  0.00  0.00    +0.029 A 
ATOM      6  C   UNL     1      -0.250  -0.660   6.061  0.00  0.00    +0.015 A 
ENDROOT
BRANCH   1   8
ATOM      7  N   UNL     1       0.025  -0.014   2.417  0.00  0.00    -0.281 N 
ATOM      8  C   UNL     1      -0.056  -0.693   3.578  0.00  0.00    +0.248 C 
ATOM      9  O   UNL     1      -0.040  -1.909   3.574  0.00  0.00    -0.270 OA
ATOM     10  H   UNL     1       0.078   0.955   2.424  0.00  0.00    +0.155 HD
BRANCH   7  17
ATOM     11  C   UNL     1      -1.268   1.182   0.183  0.00  0.00    +0.045 C 
ATOM     12  C   UNL     1      -0.586  -0.158   0.085  0.00  0.00    -0.029 A 
ATOM     13  C   UNL     1      -0.572  -0.841  -1.116  0.00  0.00    +0.008 A 
ATOM     14  C   UNL     1       0.052  -2.070  -1.208  0.00  0.00    +0.039 A 
ATOM     15  C   UNL     1       0.666  -2.623  -0.095  0.00  0.00    +0.125 A 
ATOM     16  C   UNL     1       0.655  -1.944   1.110  0.00  0.00    +0.062 A 
ATOM     17  C   UNL     1       0.033  -0.706   1.201  0.00  0.00    +0.039 A 
ATOM     18  F   UNL     1       1.275  -3.825  -0.188  0.00  0.00    -0.205 F 
ENDBRANCH   7  17
ENDBRANCH   1   8
BRANCH   4  19
ATOM     19  S   UNL     1      -0.500   2.288   8.777  0.00  0.00    +0.082 S 
ATOM     20  O   UNL     1      -0.009   1.418   9.787  0.00  0.00    -0.151 OA
ATOM     21  O   UNL     1       0.047   3.580   8.552  0.00  0.00    -0.151 OA
BRANCH  19  22
ATOM     22  N   UNL     1      -2.114   2.504   9.081  0.00  0.00    -0.058 NA
ATOM     23  C   UNL     1      -2.831   1.555   9.937  0.00  0.00    +0.166 C 
BRANCH  22  24
ATOM     24  O   UNL     1      -2.800   3.605   8.515  0.00  0.00    -0.280 OA
ATOM     25  C   UNL     1      -3.376   3.336   7.235  0.00  0.00    +0.223 C 
ENDBRANCH  22  24
ENDBRANCH  19  22
ENDBRANCH   4  19
TORSDOF 5
