REMARK  Name = ZINC00663557
REMARK  7 active torsions:
REMARK  status: ('A' for Active; 'I' for Inactive)
REMARK    1  A    between atoms: C_1  and  C_2
REMARK    2  A    between atoms: C_5  and  C_8
REMARK    3  A    between atoms: C_8  and  N_9
REMARK    4  A    between atoms: C_19  and  C_32
REMARK    5  A    between atoms: C_20  and  N_31
REMARK    6  A    between atoms: C_27  and  C_29
REMARK    7  A    between atoms: C_27  and  C_30
REMARK                            x       y       z     vdW  Elec       q    Type
REMARK                         _______ _______ _______ _____ _____    ______ ____
ROOT
ATOM      1  N   UNL     1       2.156   4.085   0.005  0.00  0.00    -0.265 N 
ATOM      2  C   UNL     1       1.128   3.159   0.009  0.00  0.00    +0.041 A 
ATOM      3  C   UNL     1       1.190   1.764   0.000  0.00  0.00    +0.024 A 
ATOM      4  C   UNL     1      -0.013   1.076   0.008  0.00  0.00    +0.002 A 
ATOM      5  C   UNL     1      -1.228   1.728   0.017  0.00  0.00    +0.000 A 
ATOM      6  C   UNL     1      -1.305   3.117   0.031  0.00  0.00    +0.007 A 
ATOM      7  C   UNL     1      -0.112   3.808   0.025  0.00  0.00    -0.001 A 
ATOM      8  C   UNL     1       0.182   5.276   0.034  0.00  0.00    +0.144 C 
ATOM      9  C   UNL     1       1.695   5.353   0.019  0.00  0.00    +0.241 C 
ATOM     10  O   UNL     1       2.365   6.364   0.021  0.00  0.00    -0.274 OA
ATOM     11  C   UNL     1      -0.380   5.947  -1.185  0.00  0.00    +0.110 C 
ATOM     12  C   UNL     1      -1.490   6.721  -1.085  0.00  0.00    +0.199 C 
ATOM     13  O   UNL     1      -2.113   6.900   0.090  0.00  0.00    -0.445 OA
ATOM     14  C   UNL     1      -1.456   6.685   1.244  0.00  0.00    +0.116 C 
ATOM     15  C   UNL     1      -0.349   5.918   1.289  0.00  0.00    +0.058 C 
ATOM     16  C   UNL     1       0.338   5.695   2.497  0.00  0.00    +0.165 C 
ATOM     17  O   UNL     1       1.321   4.981   2.500  0.00  0.00    -0.292 OA
ATOM     18  C   UNL     1      -0.122   6.324   3.784  0.00  0.00    +0.086 C 
ATOM     19  C   UNL     1      -0.851   7.634   3.461  0.00  0.00    -0.021 C 
ATOM     20  C   UNL     1      -2.000   7.324   2.500  0.00  0.00    +0.081 C 
ATOM     21  C   UNL     1       0.121   8.614   2.801  0.00  0.00    +0.012 C 
ATOM     22  C   UNL     1      -1.407   8.248   4.747  0.00  0.00    +0.012 C 
ENDROOT
BRANCH  12  23
ATOM     23  N   UNL     1      -1.985   7.333  -2.209  0.00  0.00    -0.328 N 
ATOM     24  H   UNL     1      -1.543   7.210  -3.064  0.00  0.00    +0.145 HD
ATOM     25  H   UNL     1      -2.778   7.889  -2.149  0.00  0.00    +0.145 HD
ENDBRANCH  12  23
BRANCH  11  26
ATOM     26  C   UNL     1       0.255   5.769  -2.456  0.00  0.00    +0.102 C 
ATOM     27  N   UNL     1       0.759   5.628  -3.464  0.00  0.00    -0.191 NA
ENDBRANCH  11  26
BRANCH   1  28
ATOM     28  C   UNL     1       3.577   3.730  -0.014  0.00  0.00    +0.148 C 
BRANCH  28  33
ATOM     29  C   UNL     1       5.386   3.308  -5.486  0.00  0.00    +0.044 C 
ATOM     30  C   UNL     1       4.914   3.418  -4.059  0.00  0.00    -0.050 A 
ATOM     31  C   UNL     1       4.988   4.630  -3.398  0.00  0.00    +0.003 A 
ATOM     32  C   UNL     1       4.555   4.731  -2.089  0.00  0.00    +0.005 A 
ATOM     33  C   UNL     1       4.049   3.620  -1.441  0.00  0.00    -0.030 A 
ATOM     34  C   UNL     1       3.980   2.407  -2.099  0.00  0.00    +0.005 A 
ATOM     35  C   UNL     1       4.408   2.307  -3.410  0.00  0.00    +0.003 A 
ENDBRANCH  28  33
ENDBRANCH   1  28
TORSDOF 4
