REMARK  Name = ZINC36394904
REMARK  11 active torsions:
REMARK  status: ('A' for Active; 'I' for Inactive)
REMARK    1  A    between atoms: C_1  and  C_2
REMARK    2  A    between atoms: C_4  and  C_15
REMARK    3  A    between atoms: C_5  and  C_14
REMARK    4  A    between atoms: N_6  and  C_7
REMARK    5  A    between atoms: N_17  and  C_18
REMARK    6  A    between atoms: C_18  and  C_19
REMARK    7  A    between atoms: C_24  and  O_25
REMARK    8  A    between atoms: O_25  and  C_26
REMARK    9  A    between atoms: C_26  and  C_27
REMARK   10  A    between atoms: N_29  and  C_30
REMARK   11  A    between atoms: C_30  and  C_31
REMARK                            x       y       z     vdW  Elec       q    Type
REMARK                         _______ _______ _______ _____ _____    ______ ____
ROOT
ATOM      1  C   UNL     1       0.046  -4.499  -3.617  0.00  0.00    +0.143 C 
ENDROOT
BRANCH   1   2
ATOM      2  C   UNL     1       0.035  -4.116  -5.074  0.00  0.00    +0.011 A 
ATOM      3  C   UNL     1      -1.147  -4.151  -5.789  0.00  0.00    +0.009 A 
ATOM      4  C   UNL     1      -1.158  -3.800  -7.126  0.00  0.00    +0.001 A 
ATOM      5  C   UNL     1       0.013  -3.413  -7.751  0.00  0.00    +0.004 A 
ATOM      6  C   UNL     1       1.197  -3.376  -7.041  0.00  0.00    +0.046 A 
ATOM      7  C   UNL     1       1.210  -3.722  -5.697  0.00  0.00    +0.126 A 
BRANCH   7   8
ATOM      8  O   UNL     1       2.373  -3.681  -4.995  0.00  0.00    -0.482 OA
BRANCH   8   9
ATOM      9  C   UNL     1       3.543  -3.266  -5.702  0.00  0.00    +0.324 C 
BRANCH   9  10
ATOM     10  C   UNL     1       4.726  -3.282  -4.768  0.00  0.00    +0.251 C 
ATOM     11  O   UNL     1       4.580  -3.616  -3.611  0.00  0.00    -0.272 OA
ATOM     12  N   UNL     1       5.945  -2.926  -5.218  0.00  0.00    -0.310 N 
ATOM     13  H   UNL     1       6.061  -2.659  -6.143  0.00  0.00    +0.149 HD
BRANCH  12  14
ATOM     14  C   UNL     1       7.095  -2.941  -4.310  0.00  0.00    +0.135 C 
BRANCH  14  15
ATOM     15  C   UNL     1       8.348  -2.497  -5.067  0.00  0.00    +0.135 C 
ATOM     16  C   UNL     1       9.585  -2.626  -4.152  0.00  0.00    +0.035 C 
ATOM     17  C   UNL     1      10.401  -1.357  -4.521  0.00  0.00    +0.031 C 
ATOM     18  C   UNL     1       9.261  -0.348  -4.809  0.00  0.00    +0.160 C 
ATOM     19  O   UNL     1       8.227  -1.120  -5.442  0.00  0.00    -0.375 OA
ENDBRANCH  14  15
ENDBRANCH  12  14
ENDBRANCH   9  10
ENDBRANCH   8   9
ENDBRANCH   7   8
ENDBRANCH   1   2
BRANCH   1  22
ATOM     20  C   UNL     1       0.041  -3.386  -1.449  0.00  0.00    +0.246 C 
ATOM     21  O   UNL     1       0.058  -4.481  -0.920  0.00  0.00    -0.270 OA
ATOM     22  N   UNL     1       0.034  -3.288  -2.793  0.00  0.00    -0.307 N 
ATOM     23  H   UNL     1       0.021  -2.414  -3.215  0.00  0.00    +0.149 HD
BRANCH  20  27
ATOM     24  C   UNL     1      -0.018   1.503   0.010  0.00  0.00    +0.064 C 
ATOM     25  C   UNL     1       0.002  -0.004   0.002  0.00  0.00    +0.022 A 
ATOM     26  C   UNL     1       0.008  -0.780  -1.096  0.00  0.00    +0.036 A 
ATOM     27  C   UNL     1       0.029  -2.168  -0.621  0.00  0.00    +0.058 A 
ATOM     28  C   UNL     1       0.034  -2.104   0.745  0.00  0.00    +0.033 A 
ATOM     29  N   UNL     1       0.024  -0.805   1.109  0.00  0.00    -0.317 N 
ATOM     30  C   UNL     1       0.054  -3.282   1.684  0.00  0.00    +0.064 C 
BRANCH  29  31
ATOM     31  C   UNL     1       0.030  -0.343   2.433  0.00  0.00    +0.047 A 
ATOM     32  C   UNL     1       1.133  -0.574   3.244  0.00  0.00    +0.029 A 
ATOM     33  C   UNL     1       1.139  -0.118   4.548  0.00  0.00    +0.040 A 
ATOM     34  C   UNL     1       0.044   0.568   5.046  0.00  0.00    +0.124 A 
ATOM     35  C   UNL     1      -1.057   0.800   4.239  0.00  0.00    +0.040 A 
ATOM     36  C   UNL     1      -1.063   0.351   2.933  0.00  0.00    +0.029 A 
ATOM     37  F   UNL     1       0.051   1.013   6.322  0.00  0.00    -0.205 F 
ENDBRANCH  29  31
ENDBRANCH  20  27
ENDBRANCH   1  22
TORSDOF 9
