REMARK  Name = ZINC40985922
REMARK  10 active torsions:
REMARK  status: ('A' for Active; 'I' for Inactive)
REMARK    1  A    between atoms: C_1  and  C_2
REMARK    2  A    between atoms: C_2  and  C_3
REMARK    3  A    between atoms: C_6  and  C_9
REMARK    4  A    between atoms: C_9  and  C_11
REMARK    5  A    between atoms: C_9  and  N_31
REMARK    6  A    between atoms: C_11  and  N_12
REMARK    7  A    between atoms: C_13  and  C_15
REMARK    8  A    between atoms: C_18  and  S_22
REMARK    9  A    between atoms: S_22  and  C_23
REMARK   10  A    between atoms: C_23  and  C_24
REMARK                            x       y       z     vdW  Elec       q    Type
REMARK                         _______ _______ _______ _____ _____    ______ ____
ROOT
ATOM      1  N   UNL     1       1.572  -4.043  -4.657  0.00  0.00    -0.312 N 
ATOM      2  C   UNL     1       1.484  -5.384  -4.559  0.00  0.00    +0.248 C 
ATOM      3  O   UNL     1       2.493  -6.062  -4.576  0.00  0.00    -0.270 OA
ATOM      4  H   UNL     1       0.767  -3.502  -4.644  0.00  0.00    +0.149 HD
ENDROOT
BRANCH   2   5
ATOM      5  C   UNL     1       0.164  -6.029  -4.432  0.00  0.00    +0.092 A 
ATOM      6  C   UNL     1      -1.010  -5.265  -4.417  0.00  0.00    +0.129 A 
ATOM      7  N   UNL     1      -2.172  -5.880  -4.302  0.00  0.00    -0.229 NA
ATOM      8  C   UNL     1      -2.237  -7.202  -4.202  0.00  0.00    +0.190 A 
ATOM      9  N   UNL     1      -1.149  -7.962  -4.212  0.00  0.00    -0.209 NA
ATOM     10  C   UNL     1       0.051  -7.424  -4.329  0.00  0.00    +0.146 A 
ATOM     11 CL   UNL     1       1.468  -8.427  -4.349  0.00  0.00    -0.061 Cl
BRANCH   8  12
ATOM     12  S   UNL     1      -3.815  -7.971  -4.050  0.00  0.00    -0.081 S 
BRANCH  12  13
ATOM     13  C   UNL     1      -3.433  -9.742  -3.944  0.00  0.00    +0.112 C 
BRANCH  13  14
ATOM     14  C   UNL     1      -4.713 -10.525  -3.809  0.00  0.00    -0.037 A 
ATOM     15  C   UNL     1      -5.230 -10.793  -2.555  0.00  0.00    +0.007 A 
ATOM     16  C   UNL     1      -6.404 -11.511  -2.430  0.00  0.00    +0.038 A 
ATOM     17  C   UNL     1      -7.062 -11.962  -3.562  0.00  0.00    +0.123 A 
ATOM     18  C   UNL     1      -6.543 -11.694  -4.817  0.00  0.00    +0.038 A 
ATOM     19  C   UNL     1      -5.372 -10.971  -4.940  0.00  0.00    +0.007 A 
ATOM     20  F   UNL     1      -8.210 -12.665  -3.441  0.00  0.00    -0.205 F 
ENDBRANCH  13  14
ENDBRANCH  12  13
ENDBRANCH   8  12
ENDBRANCH   2   5
BRANCH   1  21
ATOM     21  C   UNL     1       2.884  -3.402  -4.783  0.00  0.00    +0.094 C 
BRANCH  21  22
ATOM     22  C   UNL     1       2.715  -1.882  -4.741  0.00  0.00    -0.020 C 
BRANCH  22  26
ATOM     23  C   UNL     1       1.281  -0.717  -0.889  0.00  0.00    -0.048 A 
ATOM     24  C   UNL     1       0.403  -0.818  -1.952  0.00  0.00    +0.004 A 
ATOM     25  C   UNL     1       0.867  -1.195  -3.199  0.00  0.00    +0.002 A 
ATOM     26  C   UNL     1       2.209  -1.470  -3.382  0.00  0.00    -0.059 A 
ATOM     27  C   UNL     1       3.087  -1.368  -2.320  0.00  0.00    +0.002 A 
ATOM     28  C   UNL     1       2.624  -0.987  -1.074  0.00  0.00    +0.004 A 
BRANCH  23  30
ATOM     29  C   UNL     1       0.837   1.217   0.597  0.00  0.00    +0.009 C 
ATOM     30  C   UNL     1       0.775  -0.306   0.469  0.00  0.00    +0.032 C 
ENDBRANCH  23  30
ENDBRANCH  22  26
BRANCH  22  31
ATOM     31  N   UNL     1       4.010  -1.238  -4.997  0.00  0.00    +0.385 N 
ATOM     32  C   UNL     1       4.486  -1.571  -6.364  0.00  0.00    -0.078 C 
ATOM     33  C   UNL     1       5.488  -0.432  -6.678  0.00  0.00    -0.020 C 
ATOM     34  C   UNL     1       4.820   0.804  -6.033  0.00  0.00    -0.020 C 
ATOM     35  C   UNL     1       3.862   0.234  -4.970  0.00  0.00    -0.078 C 
ATOM     36  H   UNL     1       4.687  -1.532  -4.310  0.00  0.00    -0.081 HD
ENDBRANCH  22  31
ENDBRANCH  21  22
ENDBRANCH   1  21
TORSDOF 9
