REMARK  Name = ZINC19497026
REMARK  7 active torsions:
REMARK  status: ('A' for Active; 'I' for Inactive)
REMARK    1  A    between atoms: C_1  and  C_2
REMARK    2  A    between atoms: C_10  and  C_15
REMARK    3  A    between atoms: C_15  and  C_17
REMARK    4  A    between atoms: C_15  and  N_18
REMARK    5  A    between atoms: N_18  and  C_19
REMARK    6  A    between atoms: C_19  and  C_20
REMARK    7  A    between atoms: C_23  and  N_26
REMARK                            x       y       z     vdW  Elec       q    Type
REMARK                         _______ _______ _______ _____ _____    ______ ____
ROOT
ATOM      1  C   UNL     1       3.870   2.751   2.412  0.00  0.00    +0.098 C 
ATOM      2  C   UNL     1       3.428   4.117   2.940  0.00  0.00    +0.030 C 
ENDROOT
BRANCH   1  12
ATOM      3  C   UNL     1       5.427   2.707  -6.249  0.00  0.00    +0.007 C 
ATOM      4  C   UNL     1       4.768   2.190  -4.969  0.00  0.00    -0.011 C 
ATOM      5  C   UNL     1       3.386   2.831  -4.810  0.00  0.00    +0.022 C 
ATOM      6  C   UNL     1       2.758   2.357  -3.498  0.00  0.00    +0.108 C 
ATOM      7  N   UNL     1       3.625   2.733  -2.374  0.00  0.00    -0.301 N 
ATOM      8  C   UNL     1       4.941   2.091  -2.481  0.00  0.00    +0.108 C 
ATOM      9  C   UNL     1       5.635   2.557  -3.762  0.00  0.00    +0.022 C 
ATOM     10  C   UNL     1       3.024   2.435  -1.163  0.00  0.00    +0.199 A 
ATOM     11  N   UNL     1       3.668   2.710  -0.038  0.00  0.00    -0.330 N 
ATOM     12  C   UNL     1       3.125   2.439   1.139  0.00  0.00    +0.041 A 
ATOM     13  C   UNL     1       1.868   1.867   1.188  0.00  0.00    +0.095 A 
ATOM     14  C   UNL     1       1.216   1.590  -0.012  0.00  0.00    +0.275 A 
ATOM     15  N   UNL     1       1.821   1.883  -1.157  0.00  0.00    -0.177 NA
ATOM     16  O   UNL     1      -0.016   1.025  -0.011  0.00  0.00    -0.266 OA
ATOM     17  H   UNL     1       4.667   3.168  -0.090  0.00  0.00    +0.168 HD
ENDBRANCH   1  12
BRANCH   1  18
ATOM     18  N   UNL     1       5.314   2.775   2.141  0.00  0.00    -0.304 NA
ATOM     19  H   UNL     1       5.557   2.018   1.380  0.00  0.00    +0.123 HD
BRANCH  18  20
ATOM     20  C   UNL     1       6.083   2.483   3.358  0.00  0.00    +0.117 C 
BRANCH  20  21
ATOM     21  C   UNL     1       7.556   2.517   3.041  0.00  0.00    -0.033 A 
ATOM     22  C   UNL     1       8.202   1.362   2.640  0.00  0.00    +0.007 A 
ATOM     23  C   UNL     1       9.551   1.390   2.345  0.00  0.00    +0.024 A 
ATOM     24  C   UNL     1      10.261   2.578   2.461  0.00  0.00    +0.036 A 
ATOM     25  C   UNL     1       9.610   3.736   2.869  0.00  0.00    +0.024 A 
ATOM     26  C   UNL     1       8.260   3.701   3.158  0.00  0.00    +0.007 A 
BRANCH  24  27
ATOM     27  N   UNL     1      11.628   2.610   2.166  0.00  0.00    -0.271 N 
ATOM     28  C   UNL     1      12.441   3.831   2.138  0.00  0.00    +0.114 C 
ATOM     29  C   UNL     1      13.724   3.454   1.363  0.00  0.00    +0.029 C 
ATOM     30  C   UNL     1      13.798   1.928   1.600  0.00  0.00    +0.098 C 
ATOM     31  C   UNL     1      12.367   1.524   1.879  0.00  0.00    +0.220 C 
ATOM     32  O   UNL     1      11.947   0.387   1.845  0.00  0.00    -0.275 OA
ENDBRANCH  24  27
ENDBRANCH  20  21
ENDBRANCH  18  20
ENDBRANCH   1  18
TORSDOF 5
