REMARK  Name = ZINC39656792
REMARK  9 active torsions:
REMARK  status: ('A' for Active; 'I' for Inactive)
REMARK    1  A    between atoms: C_1  and  C_2
REMARK    2  A    between atoms: C_2  and  C_4
REMARK    3  A    between atoms: C_2  and  N_11
REMARK    4  A    between atoms: C_12  and  C_14
REMARK    5  A    between atoms: C_25  and  C_27
REMARK    6  A    between atoms: C_29  and  O_35
REMARK    7  A    between atoms: C_31  and  O_33
REMARK    8  A    between atoms: O_33  and  C_34
REMARK    9  A    between atoms: O_35  and  C_36
REMARK                            x       y       z     vdW  Elec       q    Type
REMARK                         _______ _______ _______ _____ _____    ______ ____
ROOT
ATOM      1  C   UNL     1      -3.324  -0.494   1.280  0.00  0.00    +0.100 C 
ATOM      2  C   UNL     1      -4.442   0.236   0.502  0.00  0.00    +0.121 C 
ATOM      3  N   UNL     1      -5.655   0.059   1.335  0.00  0.00    -0.296 N 
ATOM      4  C   UNL     1      -5.170   0.206   2.729  0.00  0.00    +0.115 C 
ATOM      5  C   UNL     1      -3.805  -0.511   2.741  0.00  0.00    -0.004 C 
ATOM      6  C   UNL     1      -2.821   0.244   3.630  0.00  0.00    -0.010 C 
ATOM      7  C   UNL     1      -3.290   0.163   5.085  0.00  0.00    -0.082 C 
ATOM      8  N   UNL     1      -3.374  -1.243   5.497  0.00  0.00    +0.379 N 
ATOM      9  C   UNL     1      -4.390  -1.939   4.699  0.00  0.00    -0.082 C 
ATOM     10  C   UNL     1      -3.968  -1.948   3.227  0.00  0.00    -0.010 C 
ATOM     11  C   UNL     1      -6.914  -0.183   0.920  0.00  0.00    +0.247 C 
ATOM     12  O   UNL     1      -7.135  -0.406  -0.254  0.00  0.00    -0.270 OA
ATOM     13  H   UNL     1      -2.478  -1.687   5.360  0.00  0.00    -0.086 HD
ATOM     14  H   UNL     1      -3.624  -1.292   6.474  0.00  0.00    -0.086 HD
ENDROOT
BRANCH  11  15
ATOM     15  C   UNL     1      -8.027  -0.175   1.893  0.00  0.00    +0.044 A 
ATOM     16  C   UNL     1      -7.885   0.483   3.115  0.00  0.00    +0.059 A 
ATOM     17  C   UNL     1      -8.930   0.488   4.023  0.00  0.00    +0.124 A 
ATOM     18  C   UNL     1     -10.118  -0.161   3.720  0.00  0.00    +0.091 A 
ATOM     19  C   UNL     1     -10.265  -0.817   2.506  0.00  0.00    +0.124 A 
ATOM     20  C   UNL     1      -9.226  -0.822   1.590  0.00  0.00    +0.059 A 
BRANCH  19  21
ATOM     21  O   UNL     1     -11.430  -1.451   2.214  0.00  0.00    -0.495 OA
ATOM     22  C   UNL     1     -12.461  -1.402   3.202  0.00  0.00    +0.277 C 
ENDBRANCH  19  21
BRANCH  17  23
ATOM     23  O   UNL     1      -8.792   1.129   5.213  0.00  0.00    -0.495 OA
ATOM     24  C   UNL     1      -9.910   1.095   6.103  0.00  0.00    +0.277 C 
ENDBRANCH  17  23
ENDBRANCH  11  15
BRANCH   1  26
ATOM     25  N   UNL     1      -0.853  -0.404   1.204  0.00  0.00    -0.308 N 
ATOM     26  C   UNL     1      -2.025   0.261   1.164  0.00  0.00    +0.219 C 
ATOM     27  O   UNL     1      -2.034   1.466   1.034  0.00  0.00    -0.275 OA
ATOM     28  H   UNL     1      -0.846  -1.369   1.308  0.00  0.00    +0.149 HD
BRANCH  25  30
ATOM     29  C   UNL     1       0.747   0.539  -0.386  0.00  0.00    +0.033 C 
ATOM     30  C   UNL     1       0.409   0.330   1.091  0.00  0.00    +0.100 C 
BRANCH  30  31
ATOM     31  C   UNL     1       1.510  -0.460   1.751  0.00  0.00    -0.027 A 
ATOM     32  C   UNL     1       1.562  -1.833   1.598  0.00  0.00    +0.006 A 
ATOM     33  C   UNL     1       2.572  -2.558   2.203  0.00  0.00    +0.015 A 
ATOM     34  C   UNL     1       3.530  -1.910   2.961  0.00  0.00    +0.018 A 
ATOM     35  C   UNL     1       3.478  -0.536   3.114  0.00  0.00    +0.015 A 
ATOM     36  C   UNL     1       2.471   0.189   2.505  0.00  0.00    +0.006 A 
ATOM     37 BR   UNL     1       4.912  -2.901   3.789  0.00  0.00    -0.050 Br
ENDBRANCH  30  31
ENDBRANCH  25  30
ENDBRANCH   1  26
TORSDOF 6
