REMARK  Name = ZINC67604647
REMARK  9 active torsions:
REMARK  status: ('A' for Active; 'I' for Inactive)
REMARK    1  A    between atoms: C_1  and  C_2
REMARK    2  A    between atoms: C_2  and  C_3
REMARK    3  A    between atoms: C_2  and  C_4
REMARK    4  A    between atoms: C_2  and  C_5
REMARK    5  A    between atoms: C_12  and  N_26
REMARK    6  A    between atoms: C_13  and  C_24
REMARK    7  A    between atoms: C_14  and  C_16
REMARK    8  A    between atoms: N_19  and  C_21
REMARK    9  A    between atoms: C_21  and  C_22
REMARK                            x       y       z     vdW  Elec       q    Type
REMARK                         _______ _______ _______ _____ _____    ______ ____
ROOT
ATOM      1  C   UNL     1       1.169  -0.415  -1.436  0.00  0.00    +0.049 A 
ATOM      2  C   UNL     1       1.161  -1.720  -1.743  0.00  0.00    +0.050 A 
ATOM      3  C   UNL     1       1.884  -1.893  -2.944  0.00  0.00    +0.245 A 
ATOM      4  N   UNL     1       2.306  -0.725  -3.332  0.00  0.00    -0.135 NA
ATOM      5  N   UNL     1       1.866   0.230  -2.401  0.00  0.00    -0.277 N 
ATOM      6  H   UNL     1       2.033   1.184  -2.442  0.00  0.00    +0.189 HD
ATOM      7  O   UNL     1       2.049  -3.116  -3.517  0.00  0.00    -0.421 OA
ATOM      8  C   UNL     1       1.281  -4.124  -3.059  0.00  0.00    +0.201 C 
ATOM      9  C   UNL     1       0.557  -4.080  -1.921  0.00  0.00    +0.098 C 
ATOM     10  C   UNL     1       0.528  -2.877  -1.012  0.00  0.00    +0.104 C 
ENDROOT
BRANCH  10  11
ATOM     11  C   UNL     1       1.305  -3.170   0.245  0.00  0.00    +0.003 A 
ATOM     12  C   UNL     1       2.699  -3.227   0.357  0.00  0.00    +0.139 A 
ATOM     13  N   UNL     1       2.998  -3.505   1.600  0.00  0.00    -0.179 NA
ATOM     14  N   UNL     1       1.802  -3.635   2.319  0.00  0.00    -0.267 N 
ATOM     15  C   UNL     1       0.779  -3.420   1.466  0.00  0.00    +0.113 A 
BRANCH  14  16
ATOM     16  C   UNL     1       1.685  -3.945   3.746  0.00  0.00    +0.170 C 
BRANCH  16  17
ATOM     17  C   UNL     1       2.431  -5.219   4.047  0.00  0.00    -0.012 C 
ATOM     18  C   UNL     1       3.356  -5.233   4.974  0.00  0.00    +0.006 C 
ENDBRANCH  16  17
ENDBRANCH  14  16
ENDBRANCH  10  11
BRANCH   1  20
ATOM     19  C   UNL     1       0.660   1.742  -0.323  0.00  0.00    +0.017 C 
ATOM     20  C   UNL     1       0.516   0.221  -0.236  0.00  0.00    +0.004 C 
ATOM     21  C   UNL     1       1.193  -0.283   1.040  0.00  0.00    +0.017 C 
ATOM     22  C   UNL     1      -0.968  -0.150  -0.207  0.00  0.00    +0.017 C 
ENDBRANCH   1  20
BRANCH   8  23
ATOM     23  N   UNL     1       1.231  -5.277  -3.803  0.00  0.00    -0.328 N 
ATOM     24  H   UNL     1       1.738  -5.345  -4.627  0.00  0.00    +0.145 HD
ATOM     25  H   UNL     1       0.689  -6.024  -3.504  0.00  0.00    +0.145 HD
ENDBRANCH   8  23
BRANCH   9  26
ATOM     26  C   UNL     1      -0.218  -5.227  -1.560  0.00  0.00    +0.101 C 
ATOM     27  N   UNL     1      -0.834  -6.138  -1.273  0.00  0.00    -0.191 NA
ENDBRANCH   9  26
TORSDOF 6
