REMARK  Name = ZINC67347647
REMARK  11 active torsions:
REMARK  status: ('A' for Active; 'I' for Inactive)
REMARK    1  A    between atoms: C_1  and  C_2
REMARK    2  A    between atoms: C_2  and  O_3
REMARK    3  A    between atoms: O_3  and  C_4
REMARK    4  A    between atoms: C_6  and  N_11
REMARK    5  A    between atoms: C_9  and  C_10
REMARK    6  A    between atoms: N_14  and  C_15
REMARK    7  A    between atoms: N_14  and  C_16
REMARK    8  A    between atoms: C_16  and  C_18
REMARK    9  A    between atoms: C_16  and  C_19
REMARK   10  A    between atoms: C_22  and  S_25
REMARK   11  A    between atoms: S_25  and  N_28
REMARK                            x       y       z     vdW  Elec       q    Type
REMARK                         _______ _______ _______ _____ _____    ______ ____
ROOT
ATOM      1  N   UNL     1       0.225  -5.033   0.551  0.00  0.00    -0.269 N 
ATOM      2  C   UNL     1       0.262  -6.379   0.486  0.00  0.00    +0.307 C 
ATOM      3  O   UNL     1      -0.747  -7.025   0.693  0.00  0.00    -0.252 OA
ATOM      4  N   UNL     1       1.417  -7.008   0.190  0.00  0.00    -0.282 N 
ATOM      5  C   UNL     1       2.632  -6.228  -0.060  0.00  0.00    +0.134 C 
ATOM      6  H   UNL     1       1.011  -4.514   0.319  0.00  0.00    +0.156 HD
ENDROOT
BRANCH   1   9
ATOM      7  C   UNL     1      -2.037  -2.591   2.121  0.00  0.00    +0.125 A 
ATOM      8  C   UNL     1      -0.874  -3.231   1.723  0.00  0.00    +0.069 A 
ATOM      9  C   UNL     1      -0.947  -4.384   0.955  0.00  0.00    +0.038 A 
ATOM     10  C   UNL     1      -2.186  -4.893   0.586  0.00  0.00    +0.024 A 
ATOM     11  C   UNL     1      -3.343  -4.252   0.984  0.00  0.00    +0.009 A 
ATOM     12  C   UNL     1      -3.272  -3.107   1.754  0.00  0.00    -0.009 A 
ATOM     13  C   UNL     1      -4.537  -2.414   2.191  0.00  0.00    +0.047 C 
BRANCH   7  14
ATOM     14  O   UNL     1      -1.968  -1.462   2.874  0.00  0.00    -0.492 OA
BRANCH  14  16
ATOM     15  C   UNL     1      -0.787   0.283   4.058  0.00  0.00    +0.048 C 
ATOM     16  C   UNL     1      -0.664  -0.987   3.214  0.00  0.00    +0.225 C 
ENDBRANCH  14  16
ENDBRANCH   7  14
ENDBRANCH   1   9
BRANCH   4  17
ATOM     17  C   UNL     1       1.457  -8.470   0.119  0.00  0.00    +0.104 C 
ATOM     18  C   UNL     1       2.039  -8.899  -1.230  0.00  0.00    +0.033 C 
BRANCH  17  19
ATOM     19  C   UNL     1       2.321  -9.004   1.232  0.00  0.00    -0.027 A 
ATOM     20  C   UNL     1       1.797  -9.901   2.144  0.00  0.00    +0.007 A 
ATOM     21  C   UNL     1       2.589 -10.391   3.165  0.00  0.00    +0.029 A 
ATOM     22  C   UNL     1       3.906  -9.984   3.274  0.00  0.00    +0.105 A 
ATOM     23  C   UNL     1       4.430  -9.087   2.362  0.00  0.00    +0.029 A 
ATOM     24  C   UNL     1       3.639  -8.601   1.338  0.00  0.00    +0.007 A 
BRANCH  22  25
ATOM     25  S   UNL     1       4.916 -10.607   4.577  0.00  0.00    +0.056 S 
ATOM     26  O   UNL     1       5.950  -9.654   4.781  0.00  0.00    -0.153 OA
ATOM     27  O   UNL     1       4.035 -11.010   5.617  0.00  0.00    -0.153 OA
BRANCH  25  28
ATOM     28  N   UNL     1       5.645 -11.984   4.015  0.00  0.00    -0.204 NA
ATOM     29  H   UNL     1       5.469 -12.292   3.112  0.00  0.00    +0.144 HD
ATOM     30  H   UNL     1       6.248 -12.482   4.589  0.00  0.00    +0.144 HD
ENDBRANCH  25  28
ENDBRANCH  22  25
ENDBRANCH  17  19
ENDBRANCH   4  17
TORSDOF 7
