REMARK  Name = ZINC09440084
REMARK  7 active torsions:
REMARK  status: ('A' for Active; 'I' for Inactive)
REMARK    1  A    between atoms: C_4  and  C_7
REMARK    2  A    between atoms: C_8  and  C_27
REMARK    3  A    between atoms: C_11  and  S_13
REMARK    4  A    between atoms: S_13  and  C_14
REMARK    5  A    between atoms: C_14  and  C_15
REMARK    6  A    between atoms: N_17  and  C_18
REMARK    7  A    between atoms: C_23  and  N_24
REMARK                            x       y       z     vdW  Elec       q    Type
REMARK                         _______ _______ _______ _____ _____    ______ ____
ROOT
ATOM      1  C   UNL     1      -9.913  -0.163   0.810  0.00  0.00    +0.102 A 
ATOM      2  C   UNL     1      -9.741   1.217   0.583  0.00  0.00    +0.119 A 
ATOM      3  N   UNL     1      -8.512   1.692   0.412  0.00  0.00    -0.145 NA
ATOM      4  N   UNL     1      -7.495   0.904   0.458  0.00  0.00    -0.122 NA
ATOM      5  C   UNL     1      -7.635  -0.400   0.665  0.00  0.00    +0.210 A 
ATOM      6  N   UNL     1      -8.833  -0.941   0.844  0.00  0.00    -0.218 NA
ENDROOT
BRANCH   1  10
ATOM      7  C   UNL     1     -13.792  -1.806   1.376  0.00  0.00    +0.000 A 
ATOM      8  C   UNL     1     -12.823  -2.539   0.713  0.00  0.00    +0.001 A 
ATOM      9  C   UNL     1     -11.562  -2.010   0.526  0.00  0.00    +0.010 A 
ATOM     10  C   UNL     1     -11.265  -0.736   1.007  0.00  0.00    +0.003 A 
ATOM     11  C   UNL     1     -12.244  -0.004   1.679  0.00  0.00    +0.010 A 
ATOM     12  C   UNL     1     -13.503  -0.541   1.855  0.00  0.00    +0.001 A 
ENDBRANCH   1  10
BRANCH   2  13
ATOM     13  C   UNL     1     -10.912   2.124   0.536  0.00  0.00    +0.004 A 
ATOM     14  C   UNL     1     -12.118   1.682  -0.007  0.00  0.00    +0.010 A 
ATOM     15  C   UNL     1     -13.206   2.529  -0.044  0.00  0.00    +0.001 A 
ATOM     16  C   UNL     1     -13.100   3.818   0.447  0.00  0.00    +0.000 A 
ATOM     17  C   UNL     1     -11.905   4.264   0.982  0.00  0.00    +0.001 A 
ATOM     18  C   UNL     1     -10.811   3.424   1.029  0.00  0.00    +0.010 A 
ENDBRANCH   2  13
BRANCH   5  19
ATOM     19  S   UNL     1      -6.204  -1.428   0.710  0.00  0.00    -0.075 S 
BRANCH  19  20
ATOM     20  C   UNL     1      -4.918  -0.190   0.416  0.00  0.00    +0.173 C 
BRANCH  20  21
ATOM     21  C   UNL     1      -3.567  -0.859   0.412  0.00  0.00    +0.228 C 
ATOM     22  O   UNL     1      -3.483  -2.056   0.590  0.00  0.00    -0.275 OA
ATOM     23  N   UNL     1      -2.453  -0.128   0.210  0.00  0.00    -0.283 N 
ATOM     24  H   UNL     1      -2.513   0.838   0.144  0.00  0.00    +0.155 HD
BRANCH  23  25
ATOM     25  C   UNL     1      -1.211  -0.762   0.096  0.00  0.00    +0.064 A 
ATOM     26  C   UNL     1      -1.118  -2.005  -0.518  0.00  0.00    +0.025 A 
ATOM     27  C   UNL     1       0.109  -2.628  -0.629  0.00  0.00    +0.002 A 
ATOM     28  C   UNL     1       1.244  -2.017  -0.129  0.00  0.00    +0.002 A 
ATOM     29  C   UNL     1       1.156  -0.778   0.477  0.00  0.00    +0.034 A 
ATOM     30  C   UNL     1      -0.069  -0.151   0.596  0.00  0.00    +0.147 A 
BRANCH  30  31
ATOM     31  N   UNL     1      -0.164   1.173   1.251  0.00  0.00    +0.058 N 
ATOM     32  O   UNL     1       0.821   1.668   1.770  0.00  0.00    -0.126 OA
ATOM     33  O   UNL     1      -1.226   1.770   1.267  0.00  0.00    -0.126 OA
ENDBRANCH  30  31
ENDBRANCH  23  25
ENDBRANCH  20  21
ENDBRANCH  19  20
ENDBRANCH   5  19
TORSDOF 7
