REMARK  Name = ZINC06200743
REMARK  9 active torsions:
REMARK  status: ('A' for Active; 'I' for Inactive)
REMARK    1  A    between atoms: C_1  and  C_2
REMARK    2  A    between atoms: C_2  and  C_3
REMARK    3  A    between atoms: C_2  and  C_4
REMARK    4  A    between atoms: C_4  and  C_6
REMARK    5  A    between atoms: C_4  and  N_21
REMARK    6  A    between atoms: N_8  and  N_9
REMARK    7  A    between atoms: C_10  and  C_11
REMARK    8  A    between atoms: C_14  and  N_16
REMARK    9  A    between atoms: C_22  and  C_24
REMARK                            x       y       z     vdW  Elec       q    Type
REMARK                         _______ _______ _______ _____ _____    ______ ____
ROOT
ATOM      1  C   UNL     1      -0.014   1.209   0.009  0.00  0.00    +0.253 C 
ATOM      2  O   UNL     1       0.002  -0.004   0.002  0.00  0.00    -0.272 OA
ATOM      3  N   UNL     1      -1.191   1.867   0.018  0.00  0.00    -0.205 N 
ATOM      4  H   UNL     1      -1.204   2.837   0.023  0.00  0.00    +0.177 HD
ENDROOT
BRANCH   3   5
ATOM      5  N   UNL     1      -2.394   1.150   0.020  0.00  0.00    -0.185 NA
ATOM      6  C   UNL     1      -3.531   1.786   0.029  0.00  0.00    +0.176 C 
BRANCH   6   7
ATOM      7  C   UNL     1      -4.788   1.038   0.030  0.00  0.00    +0.150 A 
ATOM      8  C   UNL     1      -6.042   1.578   0.045  0.00  0.00    +0.053 A 
ATOM      9  C   UNL     1      -6.948   0.505   0.039  0.00  0.00    +0.066 A 
ATOM     10  C   UNL     1      -6.211  -0.638   0.029  0.00  0.00    +0.189 A 
ATOM     11  O   UNL     1      -4.909  -0.308   0.024  0.00  0.00    -0.440 OA
BRANCH  10  12
ATOM     12  N   UNL     1      -6.719  -1.928   0.026  0.00  0.00    -0.301 N 
ATOM     13  C   UNL     1      -7.514  -2.184  -1.202  0.00  0.00    +0.108 C 
ATOM     14  C   UNL     1      -7.538  -3.730  -1.294  0.00  0.00    +0.020 C 
ATOM     15  C   UNL     1      -6.123  -4.127  -0.815  0.00  0.00    +0.020 C 
ATOM     16  C   UNL     1      -5.628  -2.927   0.015  0.00  0.00    +0.108 C 
ENDBRANCH  10  12
ENDBRANCH   6   7
ENDBRANCH   3   5
BRANCH   1  17
ATOM     17  C   UNL     1       1.280   1.980   0.001  0.00  0.00    +0.163 C 
BRANCH  17  18
ATOM     18  N   UNL     1       2.407   1.044  -0.015  0.00  0.00    -0.300 N 
ATOM     19  C   UNL     1       3.606   1.423   0.469  0.00  0.00    +0.246 C 
ATOM     20  O   UNL     1       3.753   2.543   0.918  0.00  0.00    -0.270 OA
ATOM     21  H   UNL     1       2.289   0.150  -0.374  0.00  0.00    +0.150 HD
BRANCH  19  22
ATOM     22  C   UNL     1       4.742   0.479   0.453  0.00  0.00    +0.055 A 
ATOM     23  C   UNL     1       4.575  -0.810  -0.058  0.00  0.00    +0.014 A 
ATOM     24  C   UNL     1       5.641  -1.685  -0.075  0.00  0.00    +0.001 A 
ATOM     25  C   UNL     1       6.871  -1.293   0.423  0.00  0.00    +0.001 A 
ATOM     26  C   UNL     1       7.043  -0.020   0.935  0.00  0.00    +0.021 A 
ATOM     27  C   UNL     1       5.986   0.869   0.953  0.00  0.00    +0.053 A 
ATOM     28 CL   UNL     1       6.203   2.466   1.597  0.00  0.00    -0.083 Cl
ENDBRANCH  19  22
ENDBRANCH  17  18
BRANCH  17  30
ATOM     29  C   UNL     1       2.652   3.651  -1.253  0.00  0.00    +0.009 C 
ATOM     30  C   UNL     1       1.337   2.868  -1.245  0.00  0.00    +0.012 C 
ATOM     31  C   UNL     1       1.256   1.994  -2.498  0.00  0.00    +0.009 C 
ENDBRANCH  17  30
ENDBRANCH   1  17
TORSDOF 7
