REMARK  Name = ZINC32535197
REMARK  10 active torsions:
REMARK  status: ('A' for Active; 'I' for Inactive)
REMARK    1  A    between atoms: C_1  and  C_2
REMARK    2  A    between atoms: C_2  and  O_3
REMARK    3  A    between atoms: O_3  and  C_4
REMARK    4  A    between atoms: C_4  and  C_6
REMARK    5  A    between atoms: C_16  and  C_18
REMARK    6  A    between atoms: C_18  and  C_20
REMARK    7  A    between atoms: C_18  and  S_21
REMARK    8  A    between atoms: S_21  and  C_22
REMARK    9  A    between atoms: C_28  and  C_36
REMARK   10  A    between atoms: C_33  and  C_35
REMARK                            x       y       z     vdW  Elec       q    Type
REMARK                         _______ _______ _______ _____ _____    ______ ____
ROOT
ATOM      1  C   UNL     1      -0.642   4.079   0.030  0.00  0.00    +0.060 A 
ATOM      2  C   UNL     1       0.719   4.420   0.019  0.00  0.00    +0.017 A 
ATOM      3  C   UNL     1       1.686   3.471   0.005  0.00  0.00    +0.030 A 
ATOM      4  C   UNL     1       1.358   2.092   0.000  0.00  0.00    +0.080 A 
ATOM      5  C   UNL     1      -0.022   1.773   0.012  0.00  0.00    +0.042 A 
ATOM      6  C   UNL     1      -1.002   2.726   0.031  0.00  0.00    +0.032 A 
ATOM      7  S   UNL     1       0.002  -0.004   0.002  0.00  0.00    -0.052 S 
ATOM      8  C   UNL     1       1.779  -0.201  -0.016  0.00  0.00    +0.165 A 
ATOM      9  N   UNL     1       2.197   1.045  -0.013  0.00  0.00    -0.225 NA
ATOM     10  N   UNL     1       2.523  -1.367  -0.029  0.00  0.00    -0.264 N 
ATOM     11  C   UNL     1       3.869  -1.307  -0.042  0.00  0.00    +0.232 C 
ATOM     12  O   UNL     1       4.428  -0.231  -0.042  0.00  0.00    -0.274 OA
ATOM     13  H   UNL     1       2.016  -2.344  -0.029  0.00  0.00    +0.157 HD
ENDROOT
BRANCH   1  14
ATOM     14  C   UNL     1      -1.676   5.128   0.046  0.00  0.00    +0.339 C 
ATOM     15  O   UNL     1      -2.852   4.822   0.055  0.00  0.00    -0.245 OA
BRANCH  14  16
ATOM     16  O   UNL     1      -1.318   6.427   0.049  0.00  0.00    -0.461 OA
BRANCH  16  18
ATOM     17  C   UNL     1      -1.794   8.816   0.066  0.00  0.00    +0.048 C 
ATOM     18  C   UNL     1      -2.390   7.407   0.065  0.00  0.00    +0.229 C 
ENDBRANCH  16  18
ENDBRANCH  14  16
ENDBRANCH   1  14
BRANCH  11  19
ATOM     19  C   UNL     1       4.680  -2.578  -0.056  0.00  0.00    +0.137 C 
ATOM     20  C   UNL     1       4.757  -3.149   1.361  0.00  0.00    +0.029 C 
BRANCH  19  21
ATOM     21  S   UNL     1       6.351  -2.220  -0.654  0.00  0.00    -0.073 S 
BRANCH  21  22
ATOM     22  C   UNL     1       7.011  -3.853  -0.712  0.00  0.00    +0.197 A 
ATOM     23  N   UNL     1       6.329  -4.942  -0.404  0.00  0.00    -0.122 NA
ATOM     24  N   UNL     1       7.102  -5.962  -0.414  0.00  0.00    -0.129 NA
ATOM     25  C   UNL     1       8.326  -5.578  -0.724  0.00  0.00    +0.162 A 
ATOM     26  N   UNL     1       8.257  -4.246  -1.092  0.00  0.00    -0.270 N 
ATOM     27  C   UNL     1       9.342  -3.669  -1.729  0.00  0.00    +0.061 A 
ATOM     28  C   UNL     1       9.250  -2.590  -2.592  0.00  0.00    -0.026 A 
ATOM     29  C   UNL     1      10.398  -1.922  -2.988  0.00  0.00    +0.005 A 
ATOM     30  C   UNL     1      11.649  -2.365  -2.596  0.00  0.00    +0.001 A 
ATOM     31  C   UNL     1      11.764  -3.561  -1.922  0.00  0.00    +0.010 A 
ATOM     32  C   UNL     1      10.614  -4.273  -1.577  0.00  0.00    +0.002 A 
ATOM     33  C   UNL     1      10.700  -5.629  -1.031  0.00  0.00    -0.038 A 
ATOM     34  C   UNL     1       9.559  -6.264  -0.682  0.00  0.00    +0.052 A 
ATOM     35  C   UNL     1      12.024  -6.335  -0.895  0.00  0.00    +0.044 C 
ATOM     36  C   UNL     1       7.935  -2.081  -3.119  0.00  0.00    +0.046 C 
ENDBRANCH  21  22
ENDBRANCH  19  21
ENDBRANCH  11  19
TORSDOF 6
