REMARK  Name = ZINC23263604
REMARK  5 active torsions:
REMARK  status: ('A' for Active; 'I' for Inactive)
REMARK    1  A    between atoms: C_1  and  C_2
REMARK    2  A    between atoms: N_5  and  C_9
REMARK    3  A    between atoms: C_9  and  C_11
REMARK    4  A    between atoms: C_9  and  C_12
REMARK    5  A    between atoms: N_22  and  C_23
REMARK                            x       y       z     vdW  Elec       q    Type
REMARK                         _______ _______ _______ _____ _____    ______ ____
ROOT
ATOM      1  C   UNL     1      -1.252   6.647   0.108  0.00  0.00    +0.134 A 
ATOM      2  N   UNL     1      -1.300   7.942   0.184  0.00  0.00    -0.232 NA
ATOM      3  C   UNL     1      -0.188   8.682   0.425  0.00  0.00    +0.078 A 
ATOM      4  C   UNL     1      -0.239  10.075   0.501  0.00  0.00    +0.028 A 
ATOM      5  C   UNL     1       0.914  10.787   0.748  0.00  0.00    +0.002 A 
ATOM      6  C   UNL     1       2.128  10.136   0.922  0.00  0.00    +0.001 A 
ATOM      7  C   UNL     1       2.204   8.762   0.852  0.00  0.00    +0.015 A 
ATOM      8  C   UNL     1       1.048   8.023   0.603  0.00  0.00    +0.065 A 
ATOM      9  C   UNL     1       1.068   6.556   0.517  0.00  0.00    +0.266 A 
ATOM     10  O   UNL     1       2.101   5.928   0.662  0.00  0.00    -0.267 OA
ATOM     11  N   UNL     1      -0.107   5.930   0.272  0.00  0.00    -0.263 N 
ENDROOT
BRANCH  11  12
ATOM     12  C   UNL     1      -0.143   4.533   0.180  0.00  0.00    +0.051 A 
ATOM     13  C   UNL     1      -0.517   3.773   1.281  0.00  0.00    +0.027 A 
ATOM     14  C   UNL     1      -0.552   2.396   1.188  0.00  0.00    +0.017 A 
ATOM     15  C   UNL     1      -0.217   1.773  -0.001  0.00  0.00    +0.018 A 
ATOM     16  C   UNL     1       0.161   2.527  -1.098  0.00  0.00    +0.017 A 
ATOM     17  C   UNL     1       0.194   3.905  -1.012  0.00  0.00    +0.027 A 
ATOM     18 BR   UNL     1      -0.267  -0.114  -0.125  0.00  0.00    -0.050 Br
ENDBRANCH  11  12
BRANCH   1  19
ATOM     19  C   UNL     1      -2.530   5.899  -0.170  0.00  0.00    +0.120 C 
ATOM     20  C   UNL     1      -3.601   6.880  -0.649  0.00  0.00    +0.032 C 
BRANCH  19  24
ATOM     21  C   UNL     1      -5.630   2.614   1.782  0.00  0.00    -0.012 C 
ATOM     22  C   UNL     1      -4.469   3.568   2.066  0.00  0.00    -0.061 C 
ATOM     23  C   UNL     1      -4.076   4.293   0.776  0.00  0.00    +0.069 C 
ATOM     24  N   UNL     1      -2.987   5.237   1.060  0.00  0.00    -0.296 NA
ATOM     25  C   UNL     1      -3.398   6.224   2.067  0.00  0.00    +0.066 C 
ATOM     26  C   UNL     1      -3.791   5.500   3.357  0.00  0.00    -0.067 C 
ATOM     27  N   UNL     1      -4.880   4.555   3.073  0.00  0.00    +0.382 N 
ATOM     28  H   UNL     1      -5.749   5.119   2.701  0.00  0.00    -0.085 HD
ATOM     29  H   UNL     1      -5.151   4.037   4.005  0.00  0.00    -0.085 HD
ENDBRANCH  19  24
ENDBRANCH   1  19
TORSDOF 3
