REMARK  Name = ZINC09376370
REMARK  8 active torsions:
REMARK  status: ('A' for Active; 'I' for Inactive)
REMARK    1  A    between atoms: C_1  and  C_2
REMARK    2  A    between atoms: N_4  and  C_5
REMARK    3  A    between atoms: C_8  and  S_11
REMARK    4  A    between atoms: S_11  and  N_14
REMARK    5  A    between atoms: N_14  and  C_15
REMARK    6  A    between atoms: C_17  and  S_22
REMARK    7  A    between atoms: C_20  and  O_21
REMARK    8  A    between atoms: S_22  and  N_25
REMARK                            x       y       z     vdW  Elec       q    Type
REMARK                         _______ _______ _______ _____ _____    ______ ____
ROOT
ATOM      1  C   UNL     1       0.217   8.480   1.960  0.00  0.00    +0.091 A 
ATOM      2  C   UNL     1       1.445   8.413   1.320  0.00  0.00    +0.056 A 
ATOM      3  C   UNL     1       2.601   8.245   2.059  0.00  0.00    +0.107 A 
ATOM      4  C   UNL     1       2.535   8.133   3.436  0.00  0.00    +0.032 A 
ATOM      5  C   UNL     1       1.314   8.193   4.080  0.00  0.00    +0.049 A 
ATOM      6  C   UNL     1       0.151   8.366   3.347  0.00  0.00    +0.139 A 
ENDROOT
BRANCH   3   7
ATOM      7  S   UNL     1       4.162   8.167   1.244  0.00  0.00    +0.061 S 
ATOM      8  O   UNL     1       4.007   8.844   0.005  0.00  0.00    -0.153 OA
ATOM      9  O   UNL     1       5.140   8.547   2.203  0.00  0.00    -0.153 OA
BRANCH   7  10
ATOM     10  N   UNL     1       4.446   6.576   0.883  0.00  0.00    -0.172 NA
ATOM     11  C   UNL     1       5.156   5.700   1.828  0.00  0.00    +0.137 C 
ATOM     12  C   UNL     1       4.321   4.423   2.017  0.00  0.00    +0.177 C 
ATOM     13  O   UNL     1       4.023   3.864   0.735  0.00  0.00    -0.377 OA
ATOM     14  C   UNL     1       3.229   4.709  -0.102  0.00  0.00    +0.177 C 
ATOM     15  C   UNL     1       4.003   5.999  -0.396  0.00  0.00    +0.137 C 
ENDBRANCH   7  10
ENDBRANCH   3   7
BRANCH   1  16
ATOM     16  N   UNL     1      -0.955   8.655   1.215  0.00  0.00    -0.213 N 
ATOM     17  H   UNL     1      -1.678   9.196   1.568  0.00  0.00    +0.174 HD
BRANCH  16  18
ATOM     18  S   UNL     1      -1.106   7.938  -0.271  0.00  0.00    +0.072 S 
ATOM     19  O   UNL     1       0.087   8.231  -0.986  0.00  0.00    -0.150 OA
ATOM     20  O   UNL     1      -2.393   8.287  -0.761  0.00  0.00    -0.150 OA
BRANCH  18  24
ATOM     21  C   UNL     1      -1.146   3.460   0.401  0.00  0.00    +0.033 A 
ATOM     22  C   UNL     1       0.058   4.122   0.195  0.00  0.00    +0.025 A 
ATOM     23  C   UNL     1       0.066   5.487  -0.016  0.00  0.00    +0.030 A 
ATOM     24  C   UNL     1      -1.121   6.196  -0.009  0.00  0.00    +0.109 A 
ATOM     25  C   UNL     1      -2.321   5.540   0.201  0.00  0.00    +0.030 A 
ATOM     26  C   UNL     1      -2.336   4.175   0.406  0.00  0.00    +0.025 A 
BRANCH  21  30
ATOM     27  C   UNL     1      -2.144  -0.168   0.272  0.00  0.00    +0.109 C 
ATOM     28  C   UNL     1      -2.176   1.332   0.130  0.00  0.00    +0.214 C 
ATOM     29  O   UNL     1      -3.120   1.871  -0.409  0.00  0.00    -0.276 OA
ATOM     30  N   UNL     1      -1.158   2.076   0.608  0.00  0.00    -0.286 N 
ATOM     31  H   UNL     1      -0.434   1.652   1.094  0.00  0.00    +0.155 HD
ENDBRANCH  21  30
ENDBRANCH  18  24
ENDBRANCH  16  18
ENDBRANCH   1  16
BRANCH   6  32
ATOM     32  O   UNL     1      -1.051   8.424   3.980  0.00  0.00    -0.505 OA
ATOM     33  H   UNL     1      -1.482   7.565   4.087  0.00  0.00    +0.292 HD
ENDBRANCH   6  32
TORSDOF 7
