REMARK  Name = ZINC64385988
REMARK  5 active torsions:
REMARK  status: ('A' for Active; 'I' for Inactive)
REMARK    1  A    between atoms: C_3  and  C_22
REMARK    2  A    between atoms: C_5  and  N_7
REMARK    3  A    between atoms: C_8  and  C_10
REMARK    4  A    between atoms: N_12  and  N_13
REMARK    5  A    between atoms: N_13  and  C_14
REMARK                            x       y       z     vdW  Elec       q    Type
REMARK                         _______ _______ _______ _____ _____    ______ ____
ROOT
ATOM      1  N   UNL     1       1.227  -2.084  -0.021  0.00  0.00    -0.278 N 
ATOM      2  C   UNL     1       0.072  -2.771   0.088  0.00  0.00    +0.305 C 
ATOM      3  O   UNL     1      -0.987  -2.178   0.102  0.00  0.00    -0.265 OA
ATOM      4  H   UNL     1       2.068  -2.560  -0.110  0.00  0.00    +0.155 HD
ENDROOT
BRANCH   1   9
ATOM      5  C   UNL     1       2.132   1.407  -0.748  0.00  0.00    +0.002 A 
ATOM      6  C   UNL     1       1.201   2.089   0.010  0.00  0.00    +0.010 A 
ATOM      7  C   UNL     1       0.266   1.383   0.768  0.00  0.00    +0.002 A 
ATOM      8  C   UNL     1       0.275  -0.010   0.757  0.00  0.00    +0.033 A 
ATOM      9  C   UNL     1       1.214  -0.687  -0.007  0.00  0.00    +0.034 A 
ATOM     10  C   UNL     1       2.142   0.025  -0.759  0.00  0.00    +0.023 A 
BRANCH   7  11
ATOM     11  C   UNL     1      -0.732   2.113   1.581  0.00  0.00    +0.066 A 
ATOM     12  C   UNL     1      -0.859   3.470   1.681  0.00  0.00    +0.049 A 
ATOM     13  C   UNL     1      -1.920   3.737   2.547  0.00  0.00    +0.135 A 
ATOM     14  N   UNL     1      -2.420   2.599   2.958  0.00  0.00    -0.182 NA
ATOM     15  N   UNL     1      -1.698   1.556   2.364  0.00  0.00    -0.277 N 
ATOM     16  H   UNL     1      -1.857   0.607   2.489  0.00  0.00    +0.189 HD
ENDBRANCH   7  11
ENDBRANCH   1   9
BRANCH   2  17
ATOM     17  C   UNL     1       0.096  -4.261   0.192  0.00  0.00    +0.315 C 
ATOM     18  O   UNL     1       1.155  -4.853   0.178  0.00  0.00    -0.264 OA
ATOM     19  N   UNL     1      -1.059  -4.947   0.300  0.00  0.00    -0.229 N 
ATOM     20  H   UNL     1      -1.905  -4.473   0.312  0.00  0.00    +0.173 HD
BRANCH  19  21
ATOM     21  N   UNL     1      -1.037  -6.344   0.398  0.00  0.00    -0.263 N 
ATOM     22  H   UNL     1      -0.190  -6.818   0.387  0.00  0.00    +0.170 HD
BRANCH  21  23
ATOM     23  C   UNL     1      -2.235  -7.056   0.511  0.00  0.00    +0.063 A 
ATOM     24  C   UNL     1      -3.447  -6.380   0.521  0.00  0.00    +0.027 A 
ATOM     25  C   UNL     1      -4.630  -7.086   0.633  0.00  0.00    +0.022 A 
ATOM     26  C   UNL     1      -4.606  -8.466   0.736  0.00  0.00    +0.042 A 
ATOM     27  C   UNL     1      -3.400  -9.143   0.726  0.00  0.00    +0.042 A 
ATOM     28  C   UNL     1      -2.214  -8.442   0.608  0.00  0.00    +0.065 A 
ATOM     29 CL   UNL     1      -0.701  -9.293   0.588  0.00  0.00    -0.082 Cl
ATOM     30 CL   UNL     1      -6.094  -9.349   0.877  0.00  0.00    -0.083 Cl
ENDBRANCH  21  23
ENDBRANCH  19  21
ENDBRANCH   2  17
TORSDOF 5
