REMARK  Name = ZINC21655365
REMARK  9 active torsions:
REMARK  status: ('A' for Active; 'I' for Inactive)
REMARK    1  A    between atoms: C_1  and  C_2
REMARK    2  A    between atoms: C_5  and  C_8
REMARK    3  A    between atoms: C_10  and  C_13
REMARK    4  A    between atoms: N_15  and  C_25
REMARK    5  A    between atoms: C_22  and  C_24
REMARK    6  A    between atoms: C_25  and  C_26
REMARK    7  A    between atoms: N_28  and  C_29
REMARK    8  A    between atoms: C_29  and  C_30
REMARK    9  A    between atoms: C_30  and  C_31
REMARK                            x       y       z     vdW  Elec       q    Type
REMARK                         _______ _______ _______ _____ _____    ______ ____
ROOT
ATOM      1  C   UNL     1      -0.073  -2.828  -0.013  0.00  0.00    +0.103 A 
ATOM      2  C   UNL     1      -1.215  -2.057   0.003  0.00  0.00    +0.105 A 
ATOM      3  N   UNL     1      -1.174  -0.715   0.009  0.00  0.00    -0.322 N 
ATOM      4  C   UNL     1       0.002  -0.004   0.002  0.00  0.00    +0.145 A 
ATOM      5  C   UNL     1       1.234  -0.682  -0.013  0.00  0.00    +0.065 A 
ATOM      6  C   UNL     1       1.236  -2.155  -0.021  0.00  0.00    +0.203 A 
ATOM      7  O   UNL     1       2.276  -2.790  -0.035  0.00  0.00    -0.286 OA
ATOM      8  C   UNL     1       2.425   0.046  -0.021  0.00  0.00    +0.017 A 
ATOM      9  C   UNL     1       2.341   1.427  -0.013  0.00  0.00    +0.024 A 
ATOM     10  C   UNL     1       1.094   2.031   0.003  0.00  0.00    +0.041 A 
ATOM     11  N   UNL     1      -0.016   1.323   0.009  0.00  0.00    -0.234 NA
ATOM     12  C   UNL     1       1.006   3.536   0.011  0.00  0.00    +0.065 C 
ENDROOT
BRANCH   1  15
ATOM     13  C   UNL     1       0.291  -6.376  -0.035  0.00  0.00    +0.202 A 
ATOM     14  N   UNL     1       0.851  -5.148  -0.038  0.00  0.00    -0.187 NA
ATOM     15  C   UNL     1      -0.161  -4.299  -0.019  0.00  0.00    +0.264 A 
ATOM     16  O   UNL     1      -1.285  -5.033  -0.013  0.00  0.00    -0.332 OA
ATOM     17  N   UNL     1      -1.007  -6.214  -0.022  0.00  0.00    -0.056 NA
BRANCH  13  22
ATOM     18  C   UNL     1       3.099 -11.405  -0.092  0.00  0.00    +0.044 C 
ATOM     19  C   UNL     1       2.365 -10.089  -0.076  0.00  0.00    -0.050 A 
ATOM     20  C   UNL     1       0.982 -10.072  -0.062  0.00  0.00    +0.004 A 
ATOM     21  C   UNL     1       0.304  -8.870  -0.049  0.00  0.00    +0.012 A 
ATOM     22  C   UNL     1       1.015  -7.672  -0.049  0.00  0.00    +0.022 A 
ATOM     23  C   UNL     1       2.408  -7.695  -0.068  0.00  0.00    +0.012 A 
ATOM     24  C   UNL     1       3.076  -8.902  -0.077  0.00  0.00    +0.004 A 
ENDBRANCH  13  22
ENDBRANCH   1  15
BRANCH   3  25
ATOM     25  C   UNL     1      -2.439   0.024   0.026  0.00  0.00    +0.218 C 
BRANCH  25  26
ATOM     26  C   UNL     1      -2.824   0.392  -1.384  0.00  0.00    +0.233 C 
ATOM     27  O   UNL     1      -2.112   0.070  -2.311  0.00  0.00    -0.274 OA
ATOM     28  N   UNL     1      -3.960   1.081  -1.614  0.00  0.00    -0.314 N 
ATOM     29  H   UNL     1      -4.606   1.373  -0.773  0.00  0.00    +0.149 HD
BRANCH  28  30
ATOM     30  C   UNL     1      -4.334   1.439  -2.985  0.00  0.00    +0.108 C 
BRANCH  30  31
ATOM     31  C   UNL     1      -5.655   2.211  -2.967  0.00  0.00    +0.049 C 
BRANCH  31  32
ATOM     32  C   UNL     1      -6.040   2.579  -4.377  0.00  0.00    -0.072 C 
ATOM     33  C   UNL     1      -6.851   1.794  -5.010  0.00  0.00    -0.028 C 
ATOM     34  C   UNL     1      -7.316   2.023  -6.418  0.00  0.00    +0.027 C 
ATOM     35  C   UNL     1      -7.059   3.475  -6.828  0.00  0.00    +0.004 C 
ATOM     36  C   UNL     1      -5.606   3.827  -6.482  0.00  0.00    +0.005 C 
ATOM     37  C   UNL     1      -5.465   3.838  -4.957  0.00  0.00    +0.030 C 
ENDBRANCH  31  32
ENDBRANCH  30  31
ENDBRANCH  28  30
ENDBRANCH  25  26
ENDBRANCH   3  25
TORSDOF 7
