REMARK  Name = ZINC40323055
REMARK  11 active torsions:
REMARK  status: ('A' for Active; 'I' for Inactive)
REMARK    1  A    between atoms: C_1  and  N_2
REMARK    2  A    between atoms: N_2  and  C_3
REMARK    3  A    between atoms: N_2  and  C_4
REMARK    4  A    between atoms: C_4  and  C_6
REMARK    5  A    between atoms: C_4  and  C_25
REMARK    6  A    between atoms: C_6  and  N_7
REMARK    7  A    between atoms: C_8  and  C_10
REMARK    8  A    between atoms: C_13  and  S_15
REMARK    9  A    between atoms: S_15  and  C_18
REMARK   10  A    between atoms: C_28  and  O_31
REMARK   11  A    between atoms: O_31  and  C_32
REMARK                            x       y       z     vdW  Elec       q    Type
REMARK                         _______ _______ _______ _____ _____    ______ ____
ROOT
ATOM      1  N   UNL     1       0.205  -2.151   0.753  0.00  0.00    -0.310 N 
ATOM      2  C   UNL     1       0.641  -3.422   0.864  0.00  0.00    +0.279 C 
ATOM      3  O   UNL     1       0.253  -4.269   0.082  0.00  0.00    -0.267 OA
ATOM      4  H   UNL     1       0.515  -1.476   1.377  0.00  0.00    +0.149 HD
ENDROOT
BRANCH   2   5
ATOM      5  C   UNL     1       1.585  -3.783   1.928  0.00  0.00    +0.192 A 
ATOM      6  C   UNL     1       2.107  -5.024   2.149  0.00  0.00    +0.056 A 
ATOM      7  C   UNL     1       2.957  -4.912   3.260  0.00  0.00    +0.070 A 
ATOM      8  C   UNL     1       2.916  -3.623   3.664  0.00  0.00    +0.246 A 
ATOM      9  O   UNL     1       2.092  -2.945   2.856  0.00  0.00    -0.433 OA
BRANCH   8  10
ATOM     10  S   UNL     1       3.805  -2.946   5.026  0.00  0.00    +0.058 S 
ATOM     11  O   UNL     1       3.092  -1.790   5.442  0.00  0.00    -0.161 OA
ATOM     12  O   UNL     1       4.085  -4.026   5.906  0.00  0.00    -0.161 OA
BRANCH  10  13
ATOM     13  C   UNL     1       5.357  -2.385   4.408  0.00  0.00    +0.097 A 
ATOM     14  C   UNL     1       6.442  -3.242   4.384  0.00  0.00    +0.028 A 
ATOM     15  C   UNL     1       7.659  -2.803   3.899  0.00  0.00    +0.017 A 
ATOM     16  C   UNL     1       7.792  -1.506   3.438  0.00  0.00    +0.018 A 
ATOM     17  C   UNL     1       6.707  -0.648   3.462  0.00  0.00    +0.017 A 
ATOM     18  C   UNL     1       5.489  -1.090   3.943  0.00  0.00    +0.028 A 
ATOM     19 BR   UNL     1       9.458  -0.904   2.775  0.00  0.00    -0.050 Br
ENDBRANCH  10  13
ENDBRANCH   8  10
ENDBRANCH   2   5
BRANCH   1  20
ATOM     20  C   UNL     1      -0.737  -1.791  -0.309  0.00  0.00    +0.094 C 
BRANCH  20  21
ATOM     21  C   UNL     1      -1.168  -0.333  -0.135  0.00  0.00    -0.021 C 
BRANCH  21  22
ATOM     22  C   UNL     1      -1.945  -0.188   1.148  0.00  0.00    -0.059 A 
ATOM     23  C   UNL     1      -3.276  -0.557   1.194  0.00  0.00    +0.005 A 
ATOM     24  C   UNL     1      -3.991  -0.425   2.369  0.00  0.00    +0.046 A 
ATOM     25  C   UNL     1      -3.370   0.078   3.503  0.00  0.00    +0.120 A 
ATOM     26  C   UNL     1      -2.034   0.447   3.455  0.00  0.00    +0.046 A 
ATOM     27  C   UNL     1      -1.323   0.308   2.279  0.00  0.00    +0.005 A 
BRANCH  25  28
ATOM     28  O   UNL     1      -4.071   0.210   4.660  0.00  0.00    -0.495 OA
ATOM     29  C   UNL     1      -3.368   0.735   5.788  0.00  0.00    +0.277 C 
ENDBRANCH  25  28
ENDBRANCH  21  22
BRANCH  21  31
ATOM     30  C   UNL     1      -2.469   1.450  -1.076  0.00  0.00    -0.096 C 
ATOM     31  N   UNL     1      -2.014   0.066  -1.268  0.00  0.00    +0.382 N 
ATOM     32  C   UNL     1      -1.242  -0.027  -2.514  0.00  0.00    -0.096 C 
ATOM     33  H   UNL     1      -2.814  -0.547  -1.322  0.00  0.00    -0.082 HD
ENDBRANCH  21  31
ENDBRANCH  20  21
ENDBRANCH   1  20
TORSDOF 8
