REMARK  Name = ZINC02593023
REMARK  11 active torsions:
REMARK  status: ('A' for Active; 'I' for Inactive)
REMARK    1  A    between atoms: C_1  and  C_2
REMARK    2  A    between atoms: C_2  and  C_3
REMARK    3  A    between atoms: C_3  and  C_4
REMARK    4  A    between atoms: C_4  and  O_5
REMARK    5  A    between atoms: O_5  and  C_6
REMARK    6  A    between atoms: C_9  and  C_12
REMARK    7  A    between atoms: N_14  and  C_15
REMARK    8  A    between atoms: C_15  and  N_17
REMARK    9  A    between atoms: N_17  and  C_18
REMARK   10  A    between atoms: C_23  and  C_24
REMARK   11  A    between atoms: C_24  and  C_25
REMARK                            x       y       z     vdW  Elec       q    Type
REMARK                         _______ _______ _______ _____ _____    ______ ____
ROOT
ATOM      1  C   UNL     1      -0.933  -4.088   4.008  0.00  0.00    +0.250 C 
ATOM      2  O   UNL     1      -2.073  -4.510   4.019  0.00  0.00    -0.270 OA
ATOM      3  N   UNL     1      -0.658  -2.903   3.428  0.00  0.00    -0.264 N 
ATOM      4  H   UNL     1       0.251  -2.566   3.420  0.00  0.00    +0.157 HD
ENDROOT
BRANCH   1   8
ATOM      5  C   UNL     1       2.183  -6.348   5.800  0.00  0.00    +0.121 A 
ATOM      6  C   UNL     1       0.880  -6.832   5.813  0.00  0.00    +0.046 A 
ATOM      7  C   UNL     1      -0.133  -6.102   5.234  0.00  0.00    +0.016 A 
ATOM      8  C   UNL     1       0.150  -4.873   4.631  0.00  0.00    +0.037 A 
ATOM      9  C   UNL     1       1.462  -4.392   4.615  0.00  0.00    +0.016 A 
ATOM     10  C   UNL     1       2.469  -5.125   5.202  0.00  0.00    +0.046 A 
BRANCH   5  11
ATOM     11  O   UNL     1       3.180  -7.070   6.372  0.00  0.00    -0.492 OA
BRANCH  11  12
ATOM     12  C   UNL     1       4.495  -6.514   6.323  0.00  0.00    +0.229 C 
BRANCH  12  13
ATOM     13  C   UNL     1       5.476  -7.463   7.014  0.00  0.00    +0.041 C 
BRANCH  13  15
ATOM     14  C   UNL     1       7.866  -7.817   7.652  0.00  0.00    +0.004 C 
ATOM     15  C   UNL     1       6.885  -6.867   6.961  0.00  0.00    -0.000 C 
ENDBRANCH  13  15
ENDBRANCH  12  13
ENDBRANCH  11  12
ENDBRANCH   5  11
ENDBRANCH   1   8
BRANCH   3  16
ATOM     16  C   UNL     1      -1.648  -2.186   2.859  0.00  0.00    +0.141 C 
ATOM     17  S   UNL     1      -3.253  -2.780   2.874  0.00  0.00    -0.018 S 
BRANCH  16  18
ATOM     18  N   UNL     1      -1.373  -1.001   2.279  0.00  0.00    -0.296 N 
ATOM     19  H   UNL     1      -0.455  -0.693   2.215  0.00  0.00    +0.154 HD
BRANCH  18  20
ATOM     20  C   UNL     1      -2.412  -0.214   1.768  0.00  0.00    +0.036 A 
ATOM     21  C   UNL     1      -3.388  -0.788   0.964  0.00  0.00    +0.024 A 
ATOM     22  C   UNL     1      -4.411  -0.009   0.461  0.00  0.00    +0.016 A 
ATOM     23  C   UNL     1      -4.465   1.341   0.758  0.00  0.00    +0.014 A 
ATOM     24  C   UNL     1      -3.497   1.914   1.563  0.00  0.00    +0.019 A 
ATOM     25  C   UNL     1      -2.468   1.141   2.065  0.00  0.00    -0.025 A 
ATOM     26  I   UNL     1      -6.020   2.518  -0.006  0.00  0.00    -0.044 I 
BRANCH  25  27
ATOM     27  C   UNL     1      -1.411   1.767   2.938  0.00  0.00    +0.033 C 
ATOM     28  C   UNL     1      -0.205   2.155   2.081  0.00  0.00    +0.009 C 
ENDBRANCH  25  27
ENDBRANCH  18  20
ENDBRANCH  16  18
ENDBRANCH   3  16
TORSDOF 9
