REMARK  Name = ZINC00641195
REMARK  9 active torsions:
REMARK  status: ('A' for Active; 'I' for Inactive)
REMARK    1  A    between atoms: C_1  and  C_2
REMARK    2  A    between atoms: C_2  and  O_3
REMARK    3  A    between atoms: O_3  and  C_4
REMARK    4  A    between atoms: C_9  and  N_10
REMARK    5  A    between atoms: C_11  and  C_13
REMARK    6  A    between atoms: C_14  and  C_33
REMARK    7  A    between atoms: C_19  and  C_21
REMARK    8  A    between atoms: C_30  and  O_31
REMARK    9  A    between atoms: O_31  and  C_32
REMARK                            x       y       z     vdW  Elec       q    Type
REMARK                         _______ _______ _______ _____ _____    ______ ____
ROOT
ATOM      1  C   UNL     1      -0.172   1.406   0.130  0.00  0.00    +0.056 C 
ATOM      2  C   UNL     1       0.831   2.239  -0.220  0.00  0.00    +0.017 C 
ATOM      3  N   UNL     1       0.649   3.592  -0.239  0.00  0.00    -0.300 N 
ATOM      4  C   UNL     1      -0.506   4.191   0.078  0.00  0.00    +0.135 C 
ATOM      5  S   UNL     1      -0.600   5.899   0.012  0.00  0.00    -0.019 S 
ATOM      6  N   UNL     1      -1.597   3.492   0.448  0.00  0.00    -0.315 N 
ATOM      7  C   UNL     1      -1.507   2.023   0.495  0.00  0.00    +0.143 C 
ATOM      8  C   UNL     1       2.174   1.667  -0.595  0.00  0.00    +0.061 C 
ATOM      9  H   UNL     1       1.398   4.152  -0.498  0.00  0.00    +0.154 HD
ATOM     10  H   UNL     1      -2.425   3.946   0.674  0.00  0.00    +0.149 HD
ENDROOT
BRANCH   7  11
ATOM     11  C   UNL     1      -1.854   1.585   1.894  0.00  0.00    +0.027 A 
ATOM     12  C   UNL     1      -2.844   0.611   2.104  0.00  0.00    -0.009 A 
ATOM     13  C   UNL     1      -3.521   0.015   1.025  0.00  0.00    +0.009 A 
ATOM     14  C   UNL     1      -4.470  -0.930   1.265  0.00  0.00    +0.001 A 
ATOM     15  C   UNL     1      -4.779  -1.323   2.567  0.00  0.00    +0.001 A 
ATOM     16  C   UNL     1      -4.140  -0.772   3.635  0.00  0.00    +0.008 A 
ATOM     17  C   UNL     1      -3.154   0.208   3.427  0.00  0.00    -0.017 A 
ATOM     18  C   UNL     1      -2.474   0.798   4.507  0.00  0.00    +0.012 A 
ATOM     19  C   UNL     1      -1.525   1.742   4.271  0.00  0.00    +0.046 A 
ATOM     20  C   UNL     1      -1.213   2.138   2.966  0.00  0.00    +0.126 A 
BRANCH  20  21
ATOM     21  O   UNL     1      -0.259   3.084   2.762  0.00  0.00    -0.495 OA
ATOM     22  C   UNL     1       0.377   3.625   3.921  0.00  0.00    +0.277 C 
ENDBRANCH  20  21
ENDBRANCH   7  11
BRANCH   1  24
ATOM     23  N   UNL     1       0.703  -0.572   1.158  0.00  0.00    -0.279 N 
ATOM     24  C   UNL     1       0.016   0.002   0.150  0.00  0.00    +0.248 C 
ATOM     25  O   UNL     1      -0.443  -0.686  -0.744  0.00  0.00    -0.270 OA
ATOM     26  H   UNL     1       1.001  -0.035   1.909  0.00  0.00    +0.155 HD
BRANCH  23  32
ATOM     27  C   UNL     1       1.305  -2.622   2.295  0.00  0.00    +0.142 A 
ATOM     28  C   UNL     1       1.582  -3.978   2.253  0.00  0.00    +0.047 A 
ATOM     29  C   UNL     1       1.542  -4.655   1.048  0.00  0.00    +0.004 A 
ATOM     30  C   UNL     1       1.224  -3.982  -0.117  0.00  0.00    +0.002 A 
ATOM     31  C   UNL     1       0.941  -2.630  -0.083  0.00  0.00    +0.027 A 
ATOM     32  C   UNL     1       0.985  -1.943   1.121  0.00  0.00    +0.076 A 
BRANCH  27  33
ATOM     33  O   UNL     1       1.344  -1.954   3.479  0.00  0.00    -0.490 OA
BRANCH  33  35
ATOM     34  C   UNL     1       1.457  -1.836   5.891  0.00  0.00    +0.048 C 
ATOM     35  C   UNL     1       1.565  -2.734   4.656  0.00  0.00    +0.226 C 
ENDBRANCH  33  35
ENDBRANCH  27  33
ENDBRANCH  23  32
ENDBRANCH   1  24
TORSDOF 6
