REMARK  Name = ZINC39533349
REMARK  13 active torsions:
REMARK  status: ('A' for Active; 'I' for Inactive)
REMARK    1  A    between atoms: C_1  and  C_2
REMARK    2  A    between atoms: C_2  and  C_3
REMARK    3  A    between atoms: C_2  and  C_4
REMARK    4  A    between atoms: C_4  and  C_5
REMARK    5  A    between atoms: C_8  and  C_11
REMARK    6  A    between atoms: C_11  and  C_13
REMARK    7  A    between atoms: C_11  and  N_25
REMARK    8  A    between atoms: C_13  and  N_14
REMARK    9  A    between atoms: N_14  and  S_15
REMARK   10  A    between atoms: S_15  and  O_18
REMARK   11  A    between atoms: O_18  and  C_19
REMARK   12  A    between atoms: C_29  and  C_32
REMARK   13  A    between atoms: C_37  and  O_38
REMARK                            x       y       z     vdW  Elec       q    Type
REMARK                         _______ _______ _______ _____ _____    ______ ____
ROOT
ATOM      1  C   UNL     1      -0.964  -6.921  -1.325  0.00  0.00    -0.060 C 
ENDROOT
BRANCH   1   2
ATOM      2  N   UNL     1      -0.318  -7.801  -0.342  0.00  0.00    +0.381 N 
ATOM      3  C   UNL     1       1.097  -7.431  -0.209  0.00  0.00    -0.098 C 
ATOM      4  C   UNL     1       1.770  -8.348   0.815  0.00  0.00    -0.101 C 
ATOM      5  N   UNL     1       1.668  -9.742   0.365  0.00  0.00    +0.381 N 
ATOM      6  C   UNL     1       0.253 -10.112   0.232  0.00  0.00    -0.054 C 
ATOM      7  C   UNL     1      -0.420  -9.196  -0.792  0.00  0.00    -0.090 C 
ATOM      8  H   UNL     1       2.127  -9.842  -0.528  0.00  0.00    -0.085 HD
ATOM      9  H   UNL     1       2.112 -10.347   1.041  0.00  0.00    -0.085 HD
ATOM     10  H   UNL     1      -0.777  -7.702   0.551  0.00  0.00    -0.081 HD
BRANCH   6  11
ATOM     11  C   UNL     1       0.149 -11.543  -0.229  0.00  0.00    -0.022 A 
ATOM     12  C   UNL     1       1.180 -12.114  -0.951  0.00  0.00    +0.005 A 
ATOM     13  C   UNL     1       1.085 -13.426  -1.375  0.00  0.00    +0.000 A 
ATOM     14  C   UNL     1      -0.042 -14.171  -1.078  0.00  0.00    +0.004 A 
ATOM     15  C   UNL     1      -1.075 -13.605  -0.357  0.00  0.00    +0.045 A 
ATOM     16  C   UNL     1      -0.980 -12.290   0.075  0.00  0.00    +0.118 A 
BRANCH  16  17
ATOM     17  O   UNL     1      -1.993 -11.733   0.789  0.00  0.00    -0.507 OA
ATOM     18  H   UNL     1      -2.705 -11.371   0.245  0.00  0.00    +0.292 HD
ENDBRANCH  16  17
ENDBRANCH   6  11
ENDBRANCH   1   2
BRANCH   1  22
ATOM     19  C   UNL     1      -0.602  -2.858  -0.057  0.00  0.00    -0.047 A 
ATOM     20  C   UNL     1      -0.450  -3.182  -1.392  0.00  0.00    +0.004 A 
ATOM     21  C   UNL     1      -0.567  -4.496  -1.802  0.00  0.00    +0.002 A 
ATOM     22  C   UNL     1      -0.836  -5.488  -0.877  0.00  0.00    -0.063 A 
ATOM     23  C   UNL     1      -0.986  -5.165   0.458  0.00  0.00    +0.002 A 
ATOM     24  C   UNL     1      -0.865  -3.850   0.869  0.00  0.00    +0.004 A 
BRANCH  19  25
ATOM     25  C   UNL     1      -0.474  -1.425   0.391  0.00  0.00    +0.038 C 
BRANCH  25  27
ATOM     26  C   UNL     1       1.138   0.357   1.077  0.00  0.00    +0.007 C 
ATOM     27  C   UNL     1       0.985  -1.129   0.743  0.00  0.00    -0.013 C 
ATOM     28  C   UNL     1       1.399  -1.969   1.953  0.00  0.00    +0.007 C 
ENDBRANCH  25  27
ENDBRANCH  19  25
ENDBRANCH   1  22
BRANCH   1  29
ATOM     29  C   UNL     1      -2.445  -7.288  -1.442  0.00  0.00    -0.121 C 
BRANCH  29  30
ATOM     30  N   UNL     1      -3.072  -6.460  -2.476  0.00  0.00    +0.491 NA
BRANCH  30  31
ATOM     31  S   UNL     1      -4.705  -6.554  -2.733  0.00  0.00    +0.066 S 
ATOM     32  O   UNL     1      -4.994  -7.917  -3.014  0.00  0.00    -0.159 OA
ATOM     33  O   UNL     1      -5.326  -5.848  -1.668  0.00  0.00    -0.159 OA
BRANCH  31  34
ATOM     34  O   UNL     1      -5.006  -5.775  -4.006  0.00  0.00    -0.362 OA
BRANCH  34  35
ATOM     35  C   UNL     1      -4.625  -6.410  -5.146  0.00  0.00    +0.154 A 
ATOM     36  C   UNL     1      -3.320  -6.295  -5.601  0.00  0.00    +0.048 A 
ATOM     37  C   UNL     1      -2.934  -6.941  -6.760  0.00  0.00    +0.004 A 
ATOM     38  C   UNL     1      -3.849  -7.701  -7.466  0.00  0.00    +0.000 A 
ATOM     39  C   UNL     1      -5.151  -7.817  -7.014  0.00  0.00    +0.004 A 
ATOM     40  C   UNL     1      -5.539  -7.177  -5.852  0.00  0.00    +0.048 A 
ENDBRANCH  34  35
ENDBRANCH  31  34
ENDBRANCH  30  31
ENDBRANCH  29  30
ENDBRANCH   1  29
TORSDOF 11
