REMARK  Name = ZINC19862798
REMARK  8 active torsions:
REMARK  status: ('A' for Active; 'I' for Inactive)
REMARK    1  A    between atoms: C_1  and  C_2
REMARK    2  A    between atoms: C_5  and  C_8
REMARK    3  A    between atoms: C_10  and  C_30
REMARK    4  A    between atoms: C_12  and  C_14
REMARK    5  A    between atoms: N_20  and  C_25
REMARK    6  A    between atoms: C_25  and  C_26
REMARK    7  A    between atoms: N_28  and  N_29
REMARK    8  A    between atoms: C_33  and  C_36
REMARK                            x       y       z     vdW  Elec       q    Type
REMARK                         _______ _______ _______ _____ _____    ______ ____
ROOT
ATOM      1  C   UNL     1       2.481   1.070  -0.016  0.00  0.00    -0.014 A 
ATOM      2  C   UNL     1       2.524  -0.326  -0.019  0.00  0.00    +0.037 A 
ATOM      3  C   UNL     1       3.760  -0.966  -0.040  0.00  0.00    +0.072 A 
ATOM      4  N   UNL     1       4.886  -0.266  -0.047  0.00  0.00    -0.247 NA
ATOM      5  C   UNL     1       4.885   1.060  -0.040  0.00  0.00    +0.072 A 
ATOM      6  C   UNL     1       3.688   1.771  -0.024  0.00  0.00    +0.037 A 
ENDROOT
BRANCH   5   7
ATOM      7  C   UNL     1       6.173   1.794  -0.048  0.00  0.00    +0.002 A 
ATOM      8  C   UNL     1       6.186   3.183   0.065  0.00  0.00    +0.014 A 
ATOM      9  C   UNL     1       7.384   3.869   0.058  0.00  0.00    +0.048 A 
ATOM     10  C   UNL     1       8.578   3.177  -0.060  0.00  0.00    +0.143 A 
ATOM     11  C   UNL     1       8.572   1.786  -0.174  0.00  0.00    +0.079 A 
ATOM     12  C   UNL     1       7.374   1.095  -0.163  0.00  0.00    +0.037 A 
ATOM     13  N   UNL     1       9.790   1.102  -0.295  0.00  0.00    -0.256 N 
ATOM     14  C   UNL     1      10.936   1.747   0.017  0.00  0.00    +0.258 C 
ATOM     15  O   UNL     1      12.004   1.185  -0.108  0.00  0.00    -0.271 OA
ATOM     16  C   UNL     1      10.882   3.167   0.519  0.00  0.00    +0.325 C 
ATOM     17  O   UNL     1       9.764   3.841  -0.065  0.00  0.00    -0.481 OA
BRANCH  13  18
ATOM     18  C   UNL     1       9.820  -0.290  -0.750  0.00  0.00    +0.210 C 
BRANCH  18  19
ATOM     19  C   UNL     1       9.946  -0.324  -2.252  0.00  0.00    +0.244 C 
ATOM     20  O   UNL     1      10.005   0.712  -2.879  0.00  0.00    -0.273 OA
ATOM     21  N   UNL     1       9.994  -1.506  -2.897  0.00  0.00    -0.252 N 
ATOM     22  H   UNL     1       9.940  -2.446  -2.328  0.00  0.00    +0.169 HD
BRANCH  21  23
ATOM     23  N   UNL     1      10.108  -1.537  -4.258  0.00  0.00    -0.254 NA
ATOM     24  H   UNL     1      10.130  -2.583  -4.600  0.00  0.00    +0.140 HD
ATOM     25  H   UNL     1       9.247  -1.022  -4.710  0.00  0.00    +0.140 HD
ENDBRANCH  21  23
ENDBRANCH  18  19
ENDBRANCH  13  18
ENDBRANCH   5   7
BRANCH   1  30
ATOM     26  C   UNL     1      -2.554   3.865   0.048  0.00  0.00    +0.044 C 
ATOM     27  C   UNL     1      -1.236   3.134   0.031  0.00  0.00    -0.050 A 
ATOM     28  C   UNL     1      -1.216   1.751   0.017  0.00  0.00    +0.004 A 
ATOM     29  C   UNL     1      -0.013   1.076   0.008  0.00  0.00    +0.009 A 
ATOM     30  C   UNL     1       1.184   1.790   0.000  0.00  0.00    -0.018 A 
ATOM     31  C   UNL     1       1.157   3.183   0.008  0.00  0.00    +0.009 A 
ATOM     32  C   UNL     1      -0.052   3.848   0.023  0.00  0.00    +0.004 A 
ENDBRANCH   1  30
BRANCH   3  33
ATOM     33  C   UNL     1       3.817  -2.448  -0.049  0.00  0.00    +0.000 A 
ATOM     34  C   UNL     1       2.640  -3.194  -0.036  0.00  0.00    +0.010 A 
ATOM     35  C   UNL     1       2.700  -4.573  -0.049  0.00  0.00    +0.004 A 
ATOM     36  C   UNL     1       3.925  -5.215  -0.066  0.00  0.00    -0.050 A 
ATOM     37  C   UNL     1       5.097  -4.479  -0.073  0.00  0.00    +0.004 A 
ATOM     38  C   UNL     1       5.049  -3.100  -0.065  0.00  0.00    +0.010 A 
ATOM     39  C   UNL     1       3.984  -6.721  -0.075  0.00  0.00    +0.044 C 
ENDBRANCH   3  33
TORSDOF 6
