REMARK  Name = ZINC12190230
REMARK  9 active torsions:
REMARK  status: ('A' for Active; 'I' for Inactive)
REMARK    1  A    between atoms: C_1  and  N_74
REMARK    2  A    between atoms: C_2  and  C_3
REMARK    3  A    between atoms: C_2  and  N_74
REMARK    4  A    between atoms: C_6  and  O_9
REMARK    5  A    between atoms: O_9  and  C_10
REMARK    6  A    between atoms: C_10  and  C_11
REMARK    7  A    between atoms: C_18  and  C_20
REMARK    8  A    between atoms: C_34  and  C_35
REMARK    9  A    between atoms: C_34  and  N_74
REMARK                            x       y       z     vdW  Elec       q    Type
REMARK                         _______ _______ _______ _____ _____    ______ ____
ROOT
ATOM      1  C   UNL     1      -0.744  -4.724   1.436  0.00  0.00    +0.044 C 
ATOM      2  C   UNL     1      -2.137  -4.094   1.369  0.00  0.00    +0.010 C 
ATOM      3  C   UNL     1      -2.009  -2.569   1.351  0.00  0.00    +0.019 C 
ATOM      4  C   UNL     1      -1.224  -2.141   0.112  0.00  0.00    +0.108 C 
ATOM      5  N   UNL     1       0.060  -2.855   0.089  0.00  0.00    -0.297 N 
ATOM      6  C   UNL     1       0.055  -4.321   0.193  0.00  0.00    +0.115 C 
ATOM      7  C   UNL     1       1.221  -2.179  -0.020  0.00  0.00    +0.247 C 
ATOM      8  O   UNL     1       2.272  -2.784  -0.102  0.00  0.00    -0.270 OA
ENDROOT
BRANCH   7   9
ATOM      9  C   UNL     1       1.215  -0.702  -0.040  0.00  0.00    +0.038 A 
ATOM     10  C   UNL     1       2.059   0.013   0.822  0.00  0.00    +0.015 A 
ATOM     11  C   UNL     1       2.066   1.376   0.815  0.00  0.00    +0.027 A 
ATOM     12  C   UNL     1       1.231   2.078  -0.052  0.00  0.00    +0.047 A 
ATOM     13  C   UNL     1       0.377   1.371  -0.923  0.00  0.00    +0.004 A 
ATOM     14  C   UNL     1       0.373  -0.022  -0.913  0.00  0.00    +0.023 A 
ATOM     15  C   UNL     1      -0.349   2.387  -1.680  0.00  0.00    -0.019 A 
ATOM     16  C   UNL     1       0.079   3.589  -1.251  0.00  0.00    +0.020 A 
ATOM     17  N   UNL     1       1.024   3.418  -0.278  0.00  0.00    -0.358 N 
ATOM     18  H   UNL     1       1.481   4.138   0.185  0.00  0.00    +0.166 HD
ATOM     19  C   UNL     1      -0.433   4.903  -1.794  0.00  0.00    +0.053 C 
ATOM     20  C   UNL     1      -1.143   4.636  -3.126  0.00  0.00    +0.006 C 
ATOM     21  C   UNL     1      -2.150   3.496  -2.950  0.00  0.00    +0.005 C 
ATOM     22  C   UNL     1      -1.393   2.178  -2.747  0.00  0.00    +0.037 C 
ENDBRANCH   7   9
BRANCH   1  23
ATOM     23  C   UNL     1      -0.875  -6.248   1.487  0.00  0.00    +0.234 C 
BRANCH  23  24
ATOM     24  O   UNL     1       0.418  -6.831   1.664  0.00  0.00    -0.492 OA
BRANCH  24  28
ATOM     25  C   UNL     1       0.603 -10.947   1.865  0.00  0.00    -0.064 A 
ATOM     26  C   UNL     1       1.761 -10.198   1.967  0.00  0.00    +0.005 A 
ATOM     27  C   UNL     1       1.701  -8.820   1.900  0.00  0.00    +0.046 A 
ATOM     28  C   UNL     1       0.479  -8.187   1.730  0.00  0.00    +0.121 A 
ATOM     29  C   UNL     1      -0.682  -8.940   1.633  0.00  0.00    +0.046 A 
ATOM     30  C   UNL     1      -0.617 -10.319   1.694  0.00  0.00    +0.005 A 
BRANCH  25  31
ATOM     31  C   UNL     1       0.671 -12.451   1.938  0.00  0.00    -0.043 C 
BRANCH  31  33
ATOM     32  C   UNL     1       1.681 -12.439   4.138  0.00  0.00    -0.095 C 
ATOM     33  N   UNL     1       0.509 -12.867   3.347  0.00  0.00    +0.384 N 
ATOM     34  H   UNL     1      -0.333 -12.423   3.731  0.00  0.00    -0.081 HD
BRANCH  33  35
ATOM     35  C   UNL     1       0.356 -14.335   3.425  0.00  0.00    -0.019 C 
BRANCH  35  36
ATOM     36  C   UNL     1      -0.026 -14.710   4.835  0.00  0.00    +0.067 A 
ATOM     37  C   UNL     1      -1.334 -14.899   5.336  0.00  0.00    +0.065 A 
ATOM     38  C   UNL     1      -1.143 -15.219   6.638  0.00  0.00    +0.230 A 
ATOM     39  O   UNL     1       0.182 -15.207   6.841  0.00  0.00    -0.363 OA
ATOM     40  N   UNL     1       0.784 -14.928   5.830  0.00  0.00    -0.085 NA
ENDBRANCH  35  36
ENDBRANCH  33  35
ENDBRANCH  31  33
ENDBRANCH  25  31
ENDBRANCH  24  28
ENDBRANCH  23  24
ENDBRANCH   1  23
TORSDOF 8
