REMARK  Name = ZINC56145465
REMARK  6 active torsions:
REMARK  status: ('A' for Active; 'I' for Inactive)
REMARK    1  A    between atoms: C_1  and  C_2
REMARK    2  A    between atoms: C_2  and  C_4
REMARK    3  A    between atoms: C_2  and  N_15
REMARK    4  A    between atoms: N_9  and  C_10
REMARK    5  A    between atoms: N_15  and  C_16
REMARK    6  A    between atoms: C_20  and  N_22
REMARK                            x       y       z     vdW  Elec       q    Type
REMARK                         _______ _______ _______ _____ _____    ______ ____
ROOT
ATOM      1  C   UNL     1      -0.019   1.526   0.010  0.00  0.00    +0.038 C 
ATOM      2  C   UNL     1       0.002  -0.004   0.002  0.00  0.00    +0.154 C 
ENDROOT
BRANCH   2   3
ATOM      3  C   UNL     1       0.731  -0.503   1.223  0.00  0.00    +0.240 C 
ATOM      4  O   UNL     1       0.159  -1.212   2.023  0.00  0.00    -0.273 OA
ATOM      5  N   UNL     1       2.019  -0.161   1.426  0.00  0.00    -0.239 N 
ATOM      6  C   UNL     1       2.671  -0.608   2.518  0.00  0.00    +0.306 C 
ATOM      7  O   UNL     1       2.097  -1.319   3.319  0.00  0.00    -0.252 OA
ATOM      8  N   UNL     1       3.958  -0.266   2.720  0.00  0.00    -0.296 N 
ATOM      9  H   UNL     1       2.476   0.406   0.786  0.00  0.00    +0.159 HD
ATOM     10  H   UNL     1       4.416   0.302   2.081  0.00  0.00    +0.151 HD
BRANCH   8  11
ATOM     11  C   UNL     1       4.667  -0.751   3.907  0.00  0.00    +0.074 C 
ATOM     12  C   UNL     1       4.450   0.220   5.086  0.00  0.00    +0.022 C 
ATOM     13  C   UNL     1       5.811   0.228   5.827  0.00  0.00    +0.002 C 
ATOM     14  C   UNL     1       6.833   0.165   4.665  0.00  0.00    +0.002 C 
ATOM     15  C   UNL     1       6.182  -0.786   3.639  0.00  0.00    +0.022 C 
ENDBRANCH   8  11
ENDBRANCH   2   3
BRANCH   2  16
ATOM     16  N   UNL     1      -1.372  -0.511   0.012  0.00  0.00    -0.333 N 
ATOM     17  H   UNL     1      -1.794  -0.752   0.852  0.00  0.00    +0.147 HD
BRANCH  16  18
ATOM     18  C   UNL     1      -2.076  -0.648  -1.188  0.00  0.00    +0.030 A 
ATOM     19  C   UNL     1      -1.471  -0.308  -2.391  0.00  0.00    +0.026 A 
ATOM     20  C   UNL     1      -2.165  -0.443  -3.578  0.00  0.00    +0.042 A 
ATOM     21  C   UNL     1      -3.465  -0.916  -3.572  0.00  0.00    +0.145 A 
ATOM     22  C   UNL     1      -4.076  -1.257  -2.371  0.00  0.00    +0.073 A 
ATOM     23  C   UNL     1      -3.378  -1.128  -1.179  0.00  0.00    +0.049 A 
ATOM     24  F   UNL     1      -4.141  -1.046  -4.734  0.00  0.00    -0.204 F 
BRANCH  22  25
ATOM     25  N   UNL     1      -5.392  -1.735  -2.364  0.00  0.00    -0.269 N 
ATOM     26  C   UNL     1      -5.759  -3.152  -2.467  0.00  0.00    +0.114 C 
ATOM     27  C   UNL     1      -7.224  -3.235  -1.986  0.00  0.00    +0.029 C 
ATOM     28  C   UNL     1      -7.734  -1.804  -2.279  0.00  0.00    +0.098 C 
ATOM     29  C   UNL     1      -6.482  -0.955  -2.257  0.00  0.00    +0.220 C 
ATOM     30  O   UNL     1      -6.464   0.254  -2.160  0.00  0.00    -0.275 OA
ENDBRANCH  22  25
ENDBRANCH  16  18
ENDBRANCH   2  16
TORSDOF 5
