REMARK  Name = ZINC13150847
REMARK  8 active torsions:
REMARK  status: ('A' for Active; 'I' for Inactive)
REMARK    1  A    between atoms: C_3  and  C_7
REMARK    2  A    between atoms: C_7  and  C_9
REMARK    3  A    between atoms: C_7  and  N_17
REMARK    4  A    between atoms: N_11  and  C_12
REMARK    5  A    between atoms: N_17  and  C_18
REMARK    6  A    between atoms: C_25  and  C_27
REMARK    7  A    between atoms: C_27  and  N_28
REMARK    8  A    between atoms: C_29  and  C_31
REMARK                            x       y       z     vdW  Elec       q    Type
REMARK                         _______ _______ _______ _____ _____    ______ ____
ROOT
ATOM      1  N   UNL     1       4.614   1.296  -0.835  0.00  0.00    -0.254 N 
ATOM      2  C   UNL     1       5.833   1.847  -0.999  0.00  0.00    +0.238 C 
ATOM      3  O   UNL     1       6.085   2.922  -0.498  0.00  0.00    -0.274 OA
ENDROOT
BRANCH   1   4
ATOM      4  C   UNL     1       4.292   0.101  -1.491  0.00  0.00    +0.038 A 
ATOM      5  C   UNL     1       4.888  -1.090  -1.099  0.00  0.00    +0.026 A 
ATOM      6  C   UNL     1       4.568  -2.267  -1.747  0.00  0.00    +0.040 A 
ATOM      7  C   UNL     1       3.654  -2.260  -2.787  0.00  0.00    +0.124 A 
ATOM      8  C   UNL     1       3.058  -1.073  -3.180  0.00  0.00    +0.040 A 
ATOM      9  C   UNL     1       3.371   0.105  -2.530  0.00  0.00    +0.026 A 
ATOM     10  F   UNL     1       3.343  -3.412  -3.421  0.00  0.00    -0.205 F 
ENDBRANCH   1   4
BRANCH   1  11
ATOM     11  C   UNL     1       3.626   1.946   0.030  0.00  0.00    +0.199 C 
BRANCH  11  14
ATOM     12  C   UNL     1      -0.019   1.144  -0.524  0.00  0.00    +0.020 A 
ATOM     13  C   UNL     1       1.164   1.865  -0.456  0.00  0.00    +0.009 A 
ATOM     14  C   UNL     1       2.317   1.206  -0.059  0.00  0.00    +0.000 A 
ATOM     15  C   UNL     1       2.249  -0.138   0.255  0.00  0.00    +0.116 A 
ATOM     16  N   UNL     1       1.107  -0.793   0.179  0.00  0.00    -0.263 NA
ATOM     17  C   UNL     1      -0.009  -0.198  -0.195  0.00  0.00    +0.111 A 
ENDBRANCH  11  14
BRANCH  11  18
ATOM     18  C   UNL     1       4.118   1.929   1.454  0.00  0.00    +0.239 C 
ATOM     19  O   UNL     1       5.187   1.424   1.721  0.00  0.00    -0.273 OA
ATOM     20  N   UNL     1       3.368   2.476   2.432  0.00  0.00    -0.311 N 
ATOM     21  H   UNL     1       2.513   2.880   2.219  0.00  0.00    +0.149 HD
BRANCH  20  22
ATOM     22  C   UNL     1       3.846   2.460   3.817  0.00  0.00    +0.073 C 
ATOM     23  C   UNL     1       3.409   1.153   4.511  0.00  0.00    +0.022 C 
ATOM     24  C   UNL     1       3.073   1.587   5.960  0.00  0.00    +0.002 C 
ATOM     25  C   UNL     1       2.402   2.968   5.756  0.00  0.00    +0.002 C 
ATOM     26  C   UNL     1       3.206   3.614   4.609  0.00  0.00    +0.022 C 
ENDBRANCH  20  22
ENDBRANCH  11  18
ENDBRANCH   1  11
BRANCH   2  27
ATOM     27  C   UNL     1       6.883   1.127  -1.806  0.00  0.00    +0.201 C 
BRANCH  27  28
ATOM     28  N   UNL     1       8.139   1.880  -1.756  0.00  0.00    -0.302 N 
ATOM     29  C   UNL     1       9.225   1.423  -2.409  0.00  0.00    +0.251 C 
ATOM     30  O   UNL     1       9.163   0.384  -3.041  0.00  0.00    -0.270 OA
ATOM     31  H   UNL     1       8.188   2.707  -1.252  0.00  0.00    +0.150 HD
BRANCH  29  32
ATOM     32  C   UNL     1      10.481   2.176  -2.359  0.00  0.00    +0.074 A 
ATOM     33  C   UNL     1      11.698   1.887  -2.957  0.00  0.00    +0.021 A 
ATOM     34  C   UNL     1      12.707   2.792  -2.727  0.00  0.00    +0.008 A 
ATOM     35  C   UNL     1      12.455   3.876  -1.952  0.00  0.00    +0.046 A 
ATOM     36  S   UNL     1      10.841   3.707  -1.519  0.00  0.00    -0.092 S 
ENDBRANCH  29  32
ENDBRANCH  27  28
ENDBRANCH   2  27
TORSDOF 8
