REMARK  Name = ZINC64525994
REMARK  6 active torsions:
REMARK  status: ('A' for Active; 'I' for Inactive)
REMARK    1  A    between atoms: C_1  and  C_2
REMARK    2  A    between atoms: C_2  and  C_3
REMARK    3  A    between atoms: N_5  and  C_6
REMARK    4  A    between atoms: C_10  and  C_12
REMARK    5  A    between atoms: C_15  and  C_18
REMARK    6  A    between atoms: C_25  and  C_27
REMARK                            x       y       z     vdW  Elec       q    Type
REMARK                         _______ _______ _______ _____ _____    ______ ____
ROOT
ATOM      1  C   UNL     1      -4.903  -5.511  -0.137  0.00  0.00    +0.168 C 
ATOM      2  N   UNL     1      -4.021  -6.452  -0.054  0.00  0.00    -0.067 NA
ATOM      3  O   UNL     1      -4.638  -7.726  -0.070  0.00  0.00    -0.369 OA
ATOM      4  C   UNL     1      -6.051  -7.494  -0.175  0.00  0.00    +0.296 C 
ATOM      5  N   UNL     1      -6.183  -6.029  -0.211  0.00  0.00    -0.289 N 
ATOM      6  H   UNL     1      -7.009  -5.524  -0.276  0.00  0.00    +0.151 HD
ENDROOT
BRANCH   4   7
ATOM      7  C   UNL     1      -6.601  -8.118  -1.460  0.00  0.00    +0.068 C 
ATOM      8  C   UNL     1      -8.070  -7.725  -1.631  0.00  0.00    +0.012 C 
ATOM      9  C   UNL     1      -8.611  -8.322  -2.933  0.00  0.00    +0.019 C 
ATOM     10  C   UNL     1      -8.524  -9.850  -2.864  0.00  0.00    +0.108 C 
ATOM     11  N   UNL     1      -7.139 -10.231  -2.555  0.00  0.00    -0.299 N 
ATOM     12  C   UNL     1      -6.490  -9.644  -1.375  0.00  0.00    +0.116 C 
ATOM     13  C   UNL     1      -6.476 -11.104  -3.340  0.00  0.00    +0.242 C 
ATOM     14  O   UNL     1      -5.333 -11.411  -3.074  0.00  0.00    -0.273 OA
BRANCH  13  15
ATOM     15  C   UNL     1      -7.155 -11.698  -4.547  0.00  0.00    +0.190 C 
ATOM     16  C   UNL     1      -8.354 -12.516  -4.121  0.00  0.00    +0.016 C 
ATOM     17  C   UNL     1      -8.112 -13.780  -4.537  0.00  0.00    -0.004 A 
ATOM     18  C   UNL     1      -8.881 -15.026  -4.430  0.00  0.00    +0.010 A 
ATOM     19  C   UNL     1      -8.367 -16.161  -4.955  0.00  0.00    +0.001 A 
ATOM     20  C   UNL     1      -7.121 -16.178  -5.597  0.00  0.00    +0.002 A 
ATOM     21  C   UNL     1      -6.357 -15.074  -5.734  0.00  0.00    +0.026 A 
ATOM     22  C   UNL     1      -6.800 -13.824  -5.220  0.00  0.00    +0.043 A 
ATOM     23  N   UNL     1      -6.250 -12.632  -5.227  0.00  0.00    -0.370 N 
ATOM     24  H   UNL     1      -5.391 -12.406  -5.616  0.00  0.00    +0.161 HD
ENDBRANCH  13  15
ENDBRANCH   4   7
BRANCH   1  29
ATOM     25  C   UNL     1      -2.969  -2.285  -0.072  0.00  0.00    +0.034 A 
ATOM     26  C   UNL     1      -3.998  -1.354  -0.159  0.00  0.00    +0.023 A 
ATOM     27  C   UNL     1      -5.311  -1.776  -0.237  0.00  0.00    +0.002 A 
ATOM     28  C   UNL     1      -5.610  -3.123  -0.231  0.00  0.00    +0.011 A 
ATOM     29  C   UNL     1      -4.585  -4.065  -0.144  0.00  0.00    +0.020 A 
ATOM     30  C   UNL     1      -3.259  -3.640  -0.071  0.00  0.00    +0.034 A 
BRANCH  25  33
ATOM     31  C   UNL     1      -0.664  -2.565  -0.591  0.00  0.00    +0.217 C 
ATOM     32  O   UNL     1      -0.924  -3.621  -1.127  0.00  0.00    -0.275 OA
ATOM     33  N   UNL     1      -1.640  -1.854   0.008  0.00  0.00    -0.285 N 
ATOM     34  H   UNL     1      -1.421  -1.044   0.494  0.00  0.00    +0.155 HD
BRANCH  31  36
ATOM     35  C   UNL     1       1.655  -3.037  -1.333  0.00  0.00    +0.013 C 
ATOM     36  C   UNL     1       0.751  -2.047  -0.594  0.00  0.00    +0.093 C 
ENDBRANCH  31  36
ENDBRANCH  25  33
ENDBRANCH   1  29
TORSDOF 5
