REMARK  Name = ZINC13064702
REMARK  13 active torsions:
REMARK  status: ('A' for Active; 'I' for Inactive)
REMARK    1  A    between atoms: C_1  and  C_2
REMARK    2  A    between atoms: C_2  and  C_3
REMARK    3  A    between atoms: C_3  and  C_5
REMARK    4  A    between atoms: C_3  and  N_72
REMARK    5  A    between atoms: N_9  and  C_10
REMARK    6  A    between atoms: C_10  and  C_11
REMARK    7  A    between atoms: C_18  and  C_19
REMARK    8  A    between atoms: C_18  and  N_72
REMARK    9  A    between atoms: C_19  and  C_20
REMARK   10  A    between atoms: C_26  and  C_27
REMARK   11  A    between atoms: C_26  and  N_72
REMARK   12  A    between atoms: C_31  and  C_40
REMARK   13  A    between atoms: C_32  and  C_39
REMARK                            x       y       z     vdW  Elec       q    Type
REMARK                         _______ _______ _______ _____ _____    ______ ____
ROOT
ATOM      1  N   UNL     1      -0.448  -0.413   0.982  0.00  0.00    +0.389 N 
ATOM      2  H   UNL     1      -1.256   0.042   1.422  0.00  0.00    -0.080 HD
ENDROOT
BRANCH   1   3
ATOM      3  C   UNL     1      -0.496  -1.862   1.272  0.00  0.00    +0.003 C 
BRANCH   3   4
ATOM      4  C   UNL     1       0.894  -2.444   1.273  0.00  0.00    +0.138 A 
ATOM      5  N   UNL     1       1.914  -2.034   1.987  0.00  0.00    -0.115 NA
ATOM      6  N   UNL     1       2.922  -2.787   1.710  0.00  0.00    -0.023 NA
ATOM      7  N   UNL     1       2.574  -3.661   0.831  0.00  0.00    -0.044 NA
ATOM      8  N   UNL     1       1.330  -3.483   0.536  0.00  0.00    -0.226 N 
BRANCH   8   9
ATOM      9  C   UNL     1       0.542  -4.263  -0.421  0.00  0.00    +0.182 C 
BRANCH   9  10
ATOM     10  C   UNL     1       0.647  -3.636  -1.787  0.00  0.00    -0.026 A 
ATOM     11  C   UNL     1      -0.267  -2.676  -2.178  0.00  0.00    +0.008 A 
ATOM     12  C   UNL     1      -0.169  -2.097  -3.429  0.00  0.00    +0.038 A 
ATOM     13  C   UNL     1       0.839  -2.487  -4.295  0.00  0.00    +0.123 A 
ATOM     14  C   UNL     1       1.750  -3.453  -3.904  0.00  0.00    +0.038 A 
ATOM     15  C   UNL     1       1.654  -4.027  -2.651  0.00  0.00    +0.008 A 
ATOM     16  F   UNL     1       0.933  -1.925  -5.520  0.00  0.00    -0.205 F 
ENDBRANCH   9  10
ENDBRANCH   8   9
ENDBRANCH   3   4
BRANCH   3  18
ATOM     17  C   UNL     1      -2.579  -1.561   2.619  0.00  0.00    +0.002 C 
ATOM     18  C   UNL     1      -1.134  -2.062   2.648  0.00  0.00    -0.011 C 
ENDBRANCH   3  18
ENDBRANCH   1   3
BRANCH   1  19
ATOM     19  C   UNL     1       0.792   0.171   1.535  0.00  0.00    -0.073 C 
BRANCH  19  20
ATOM     20  C   UNL     1       0.748   0.073   3.061  0.00  0.00    +0.016 C 
BRANCH  20  21
ATOM     21  C   UNL     1       1.909   0.832   3.648  0.00  0.00    -0.049 A 
ATOM     22  C   UNL     1       3.111   0.188   3.877  0.00  0.00    +0.003 A 
ATOM     23  C   UNL     1       4.178   0.886   4.411  0.00  0.00    +0.000 A 
ATOM     24  C   UNL     1       4.041   2.226   4.724  0.00  0.00    +0.000 A 
ATOM     25  C   UNL     1       2.838   2.868   4.500  0.00  0.00    +0.000 A 
ATOM     26  C   UNL     1       1.772   2.172   3.961  0.00  0.00    +0.003 A 
ENDBRANCH  20  21
ENDBRANCH  19  20
ENDBRANCH   1  19
BRANCH   1  27
ATOM     27  C   UNL     1      -0.505  -0.188  -0.477  0.00  0.00    -0.037 C 
BRANCH  27  28
ATOM     28  C   UNL     1      -0.749   1.277  -0.733  0.00  0.00    +0.001 A 
ATOM     29  C   UNL     1       0.298   2.102  -0.982  0.00  0.00    +0.017 A 
ATOM     30  C   UNL     1       0.028   3.520  -1.226  0.00  0.00    -0.001 A 
ATOM     31  C   UNL     1       1.067   4.420  -1.489  0.00  0.00    +0.013 A 
ATOM     32  C   UNL     1       0.782   5.737  -1.713  0.00  0.00    -0.047 A 
ATOM     33  C   UNL     1      -0.530   6.191  -1.682  0.00  0.00    -0.046 A 
ATOM     34  C   UNL     1      -1.569   5.322  -1.425  0.00  0.00    +0.030 A 
ATOM     35  C   UNL     1      -1.303   3.977  -1.194  0.00  0.00    +0.049 A 
ATOM     36  N   UNL     1      -2.323   3.086  -0.936  0.00  0.00    -0.322 N 
ATOM     37  H   UNL     1      -3.239   3.402  -0.915  0.00  0.00    +0.169 HD
ATOM     38  C   UNL     1      -2.065   1.784  -0.718  0.00  0.00    +0.251 A 
ATOM     39  O   UNL     1      -2.992   1.024  -0.497  0.00  0.00    -0.268 OA
ATOM     40  C   UNL     1      -0.820   7.648  -1.931  0.00  0.00    +0.044 C 
ATOM     41  C   UNL     1       1.901   6.705  -1.996  0.00  0.00    +0.044 C 
ENDBRANCH  27  28
ENDBRANCH   1  27
TORSDOF 10
