REMARK  Name = ZINC04837826
REMARK  2 active torsions:
REMARK  status: ('A' for Active; 'I' for Inactive)
REMARK    1  A    between atoms: C_1  and  C_2
REMARK    2  A    between atoms: C_8  and  C_12
REMARK                            x       y       z     vdW  Elec       q    Type
REMARK                         _______ _______ _______ _____ _____    ______ ____
ROOT
ATOM      1  C   UNK     1      -0.272  -4.691  -0.333  0.00  0.00    +0.007 C 
ATOM      2  C   UNK     1       0.599  -3.486  -0.696  0.00  0.00    -0.014 C 
ATOM      3  C   UNK     1       1.021  -2.759   0.583  0.00  0.00    +0.003 C 
ATOM      4  C   UNK     1       1.905  -1.563   0.219  0.00  0.00    -0.002 C 
ATOM      5  C   UNK     1       1.138  -0.623  -0.700  0.00  0.00    -0.019 C 
ATOM      6  C   UNK     1       0.680  -1.335  -1.964  0.00  0.00    -0.002 C 
ATOM      7  C   UNK     1      -0.198  -2.533  -1.589  0.00  0.00    +0.003 C 
ATOM      8  C   UNK     1      -0.018   1.462   0.010  0.00  0.00    +0.055 C 
ATOM      9  C   UNK     1       1.430   2.035  -0.001  0.00  0.00    +0.063 C 
ATOM     10  S   UNK     1       2.203   0.807  -1.148  0.00  0.00    -0.174 S 
ATOM     11  N   UNK     1      -0.029  -0.028   0.022  0.00  0.00    +0.398 N 
ATOM     12  H   UNK     1      -0.010  -0.349   0.997  0.00  0.00    -0.083 HD
ATOM     13  H   UNK     1      -0.893  -0.353  -0.428  0.00  0.00    -0.083 HD
ENDROOT
BRANCH   8  14
ATOM     14  C   UNK     1      -0.732   1.942   1.247  0.00  0.00    +0.343 C 
ATOM     15  O   UNK     1      -1.176   1.142   2.037  0.00  0.00    -0.248 OA
ATOM     16  O   UNK     1      -0.875   3.257   1.472  0.00  0.00    -0.248 OA
ENDBRANCH   8  14
TORSDOF 1
