REMARK  Name = ZINC26804601
REMARK  5 active torsions:
REMARK  status: ('A' for Active; 'I' for Inactive)
REMARK    1  A    between atoms: C_3  and  N_8
REMARK    2  A    between atoms: C_9  and  C_11
REMARK    3  A    between atoms: C_11  and  N_20
REMARK    4  A    between atoms: C_12  and  C_13
REMARK    5  A    between atoms: C_21  and  C_23
REMARK                            x       y       z     vdW  Elec       q    Type
REMARK                         _______ _______ _______ _____ _____    ______ ____
ROOT
ATOM      1  C   UNL     1      -2.458   1.043   0.204  0.00  0.00    +0.097 C 
ATOM      2  C   UNL     1      -2.487  -0.301   0.354  0.00  0.00    +0.036 C 
ENDROOT
BRANCH   2   3
ATOM      3  C   UNL     1      -3.762  -0.984   0.624  0.00  0.00    -0.023 A 
ATOM      4  C   UNL     1      -4.831  -0.279   1.188  0.00  0.00    +0.009 A 
ATOM      5  C   UNL     1      -6.024  -0.923   1.434  0.00  0.00    +0.020 A 
ATOM      6  C   UNL     1      -6.163  -2.269   1.134  0.00  0.00    +0.041 A 
ATOM      7  C   UNL     1      -5.107  -2.974   0.580  0.00  0.00    +0.020 A 
ATOM      8  C   UNL     1      -3.910  -2.342   0.324  0.00  0.00    +0.009 A 
ATOM      9 CL   UNL     1      -7.668  -3.074   1.453  0.00  0.00    -0.084 Cl
ENDBRANCH   2   3
BRANCH   1  11
ATOM     10  N   UNL     1      -0.018   1.044   0.136  0.00  0.00    -0.280 N 
ATOM     11  C   UNL     1      -1.170   1.742   0.090  0.00  0.00    +0.262 C 
ATOM     12  O   UNL     1      -1.144   2.951  -0.045  0.00  0.00    -0.268 OA
ATOM     13  H   UNL     1      -0.043  -0.055   0.183  0.00  0.00    +0.155 HD
BRANCH  10  16
ATOM     14  C   UNL     1       2.567   3.543  -0.630  0.00  0.00    +0.003 A 
ATOM     15  C   UNL     1       1.357   2.878  -0.623  0.00  0.00    +0.023 A 
ATOM     16  C   UNL     1       1.208   1.716   0.123  0.00  0.00    +0.035 A 
ATOM     17  C   UNL     1       2.280   1.220   0.853  0.00  0.00    +0.043 A 
ATOM     18  C   UNL     1       3.491   1.887   0.838  0.00  0.00    +0.043 A 
ATOM     19  C   UNL     1       3.634   3.048   0.097  0.00  0.00    +0.020 A 
ATOM     20 CL   UNL     1       4.833   1.269   1.750  0.00  0.00    -0.083 Cl
ENDBRANCH  10  16
ENDBRANCH   1  11
BRANCH   1  21
ATOM     21  N   UNL     1      -3.653   1.768   0.156  0.00  0.00    -0.277 N 
ATOM     22  C   UNL     1      -3.870   2.767   1.034  0.00  0.00    +0.250 C 
ATOM     23  O   UNL     1      -2.992   3.100   1.806  0.00  0.00    -0.270 OA
ATOM     24  H   UNL     1      -4.415   1.522  -0.597  0.00  0.00    +0.155 HD
BRANCH  22  25
ATOM     25  C   UNL     1      -5.176   3.457   1.059  0.00  0.00    +0.055 A 
ATOM     26  C   UNL     1      -6.225   3.003   0.256  0.00  0.00    +0.016 A 
ATOM     27  C   UNL     1      -7.441   3.651   0.283  0.00  0.00    +0.021 A 
ATOM     28  C   UNL     1      -7.625   4.751   1.106  0.00  0.00    +0.042 A 
ATOM     29  C   UNL     1      -6.591   5.207   1.905  0.00  0.00    +0.040 A 
ATOM     30  C   UNL     1      -5.369   4.563   1.890  0.00  0.00    +0.054 A 
ATOM     31 CL   UNL     1      -4.075   5.132   2.898  0.00  0.00    -0.083 Cl
ATOM     32 CL   UNL     1      -9.160   5.561   1.134  0.00  0.00    -0.083 Cl
ENDBRANCH  22  25
ENDBRANCH   1  21
TORSDOF 5
