REMARK  Name = ZINC14473551
REMARK  6 active torsions:
REMARK  status: ('A' for Active; 'I' for Inactive)
REMARK    1  A    between atoms: C_1  and  C_2
REMARK    2  A    between atoms: C_2  and  C_3
REMARK    3  A    between atoms: C_3  and  N_4
REMARK    4  A    between atoms: C_5  and  C_7
REMARK    5  A    between atoms: C_20  and  C_23
REMARK    6  A    between atoms: C_25  and  N_30
REMARK                            x       y       z     vdW  Elec       q    Type
REMARK                         _______ _______ _______ _____ _____    ______ ____
ROOT
ATOM      1  C   UNL     1      -3.301  -1.131   1.446  0.00  0.00    +0.037 A 
ATOM      2  C   UNL     1      -2.962  -2.417   1.880  0.00  0.00    +0.015 A 
ATOM      3  C   UNL     1      -1.682  -2.885   1.709  0.00  0.00    +0.024 A 
ATOM      4  C   UNL     1      -0.712  -2.089   1.104  0.00  0.00    +0.031 A 
ATOM      5  C   UNL     1      -1.055  -0.804   0.658  0.00  0.00    -0.019 A 
ATOM      6  C   UNL     1      -2.333  -0.331   0.833  0.00  0.00    +0.019 A 
ATOM      7  C   UNL     1       0.002  -0.004   0.002  0.00  0.00    +0.049 C 
ATOM      8  C   UNL     1      -0.018   1.481   0.010  0.00  0.00    -0.023 C 
ATOM      9  C   UNL     1       1.234   1.922   0.001  0.00  0.00    -0.030 C 
ATOM     10  C   UNL     1       2.205   0.740   0.020  0.00  0.00    +0.033 C 
ATOM     11  C   UNL     1       1.356  -0.346   0.694  0.00  0.00    +0.029 C 
ATOM     12  C   UNL     1       1.648  -1.788   0.319  0.00  0.00    +0.106 C 
ATOM     13  N   UNL     1       0.582  -2.589   0.959  0.00  0.00    -0.336 N 
ATOM     14  H   UNL     1       0.787  -3.479   1.285  0.00  0.00    +0.147 HD
ENDROOT
BRANCH  12  15
ATOM     15  C   UNL     1       1.599  -1.957  -1.177  0.00  0.00    -0.007 A 
ATOM     16  C   UNL     1       0.437  -2.394  -1.786  0.00  0.00    +0.039 A 
ATOM     17  C   UNL     1       0.391  -2.545  -3.159  0.00  0.00    +0.127 A 
ATOM     18  C   UNL     1       1.509  -2.268  -3.924  0.00  0.00    +0.034 A 
ATOM     19  C   UNL     1       2.672  -1.836  -3.316  0.00  0.00    +0.022 A 
ATOM     20  C   UNL     1       2.718  -1.680  -1.942  0.00  0.00    +0.046 A 
ATOM     21 CL   UNL     1       4.179  -1.138  -1.178  0.00  0.00    -0.083 Cl
BRANCH  17  22
ATOM     22  N   UNL     1      -0.855  -3.007  -3.811  0.00  0.00    +0.056 N 
ATOM     23  O   UNL     1      -0.895  -3.144  -5.020  0.00  0.00    -0.126 OA
ATOM     24  O   UNL     1      -1.841  -3.251  -3.137  0.00  0.00    -0.126 OA
ENDBRANCH  17  22
ENDBRANCH  12  15
BRANCH   1  26
ATOM     25  N   UNL     1      -5.603  -1.397   2.227  0.00  0.00    -0.311 N 
ATOM     26  C   UNL     1      -4.672  -0.622   1.635  0.00  0.00    +0.244 C 
ATOM     27  O   UNL     1      -4.963   0.496   1.256  0.00  0.00    -0.270 OA
ATOM     28  H   UNL     1      -5.371  -2.289   2.529  0.00  0.00    +0.149 HD
BRANCH  25  29
ATOM     29  C   UNL     1      -6.965  -0.891   2.414  0.00  0.00    +0.104 C 
BRANCH  29  31
ATOM     30  C   UNL     1      -9.238  -1.432   3.300  0.00  0.00    +0.005 C 
ATOM     31  C   UNL     1      -7.816  -1.960   3.104  0.00  0.00    +0.015 C 
ENDBRANCH  29  31
ENDBRANCH  25  29
ENDBRANCH   1  26
TORSDOF 5
