REMARK  Name = ZINC39780404
REMARK  6 active torsions:
REMARK  status: ('A' for Active; 'I' for Inactive)
REMARK    1  A    between atoms: C_1  and  C_2
REMARK    2  A    between atoms: C_7  and  N_8
REMARK    3  A    between atoms: C_9  and  C_11
REMARK    4  A    between atoms: C_14  and  N_17
REMARK    5  A    between atoms: N_17  and  S_18
REMARK    6  A    between atoms: S_18  and  C_21
REMARK                            x       y       z     vdW  Elec       q    Type
REMARK                         _______ _______ _______ _____ _____    ______ ____
ROOT
ATOM      1  C   UNL     1      -0.488   0.314   4.701  0.00  0.00    +0.037 A 
ATOM      2  C   UNL     1      -0.499   1.708   4.812  0.00  0.00    +0.015 A 
ATOM      3  C   UNL     1      -0.494   2.297   6.055  0.00  0.00    +0.025 A 
ATOM      4  C   UNL     1      -0.476   1.508   7.202  0.00  0.00    +0.048 A 
ATOM      5  C   UNL     1      -0.464   0.120   7.095  0.00  0.00    +0.025 A 
ATOM      6  C   UNL     1      -0.476  -0.476   5.854  0.00  0.00    +0.015 A 
ENDROOT
BRANCH   1   8
ATOM      7  N   UNL     1      -0.505   0.441   2.259  0.00  0.00    -0.281 N 
ATOM      8  C   UNL     1      -0.494  -0.322   3.370  0.00  0.00    +0.248 C 
ATOM      9  O   UNL     1      -0.489  -1.534   3.275  0.00  0.00    -0.270 OA
ATOM     10  H   UNL     1      -0.435   1.406   2.332  0.00  0.00    +0.155 HD
BRANCH   7  17
ATOM     11  C   UNL     1      -1.930   1.837   0.230  0.00  0.00    +0.046 C 
ATOM     12  C   UNL     1      -1.305   0.488  -0.019  0.00  0.00    -0.027 A 
ATOM     13  C   UNL     1      -1.411  -0.102  -1.264  0.00  0.00    +0.043 A 
ATOM     14  C   UNL     1      -0.837  -1.341  -1.493  0.00  0.00    +0.124 A 
ATOM     15  C   UNL     1      -0.157  -1.991  -0.477  0.00  0.00    +0.040 A 
ATOM     16  C   UNL     1      -0.050  -1.404   0.768  0.00  0.00    +0.026 A 
ATOM     17  C   UNL     1      -0.619  -0.158   0.999  0.00  0.00    +0.037 A 
ATOM     18  F   UNL     1      -0.942  -1.918  -2.711  0.00  0.00    -0.205 F 
ENDBRANCH   7  17
ENDBRANCH   1   8
BRANCH   4  19
ATOM     19  N   UNL     1      -0.469   2.107   8.456  0.00  0.00    -0.216 N 
ATOM     20  H   UNL     1       0.123   2.854   8.634  0.00  0.00    +0.174 HD
BRANCH  19  21
ATOM     21  S   UNL     1      -1.474   1.546   9.647  0.00  0.00    +0.072 S 
ATOM     22  O   UNL     1      -1.273   0.141   9.719  0.00  0.00    -0.150 OA
ATOM     23  O   UNL     1      -1.291   2.399  10.768  0.00  0.00    -0.150 OA
BRANCH  21  24
ATOM     24  C   UNL     1      -3.128   1.790   9.092  0.00  0.00    +0.110 A 
ATOM     25  C   UNL     1      -3.760   3.087   9.302  0.00  0.00    +0.031 A 
ATOM     26  C   UNL     1      -5.024   3.341   8.901  0.00  0.00    +0.027 A 
ATOM     27  C   UNL     1      -5.793   2.292   8.234  0.00  0.00    +0.056 A 
ATOM     28  N   UNL     1      -7.001   2.207   7.736  0.00  0.00    -0.268 N 
ATOM     29  C   UNL     1      -7.172   0.942   7.226  0.00  0.00    +0.308 C 
ATOM     30  O   UNL     1      -8.183   0.537   6.692  0.00  0.00    -0.252 OA
ATOM     31  N   UNL     1      -6.026   0.206   7.412  0.00  0.00    -0.267 N 
ATOM     32  C   UNL     1      -5.144   0.960   8.018  0.00  0.00    +0.058 A 
ATOM     33  C   UNL     1      -3.770   0.772   8.479  0.00  0.00    +0.054 A 
ATOM     34  H   UNL     1      -5.894  -0.716   7.140  0.00  0.00    +0.156 HD
ATOM     35  H   UNL     1      -7.663   2.917   7.729  0.00  0.00    +0.156 HD
ENDBRANCH  21  24
ENDBRANCH  19  21
ENDBRANCH   4  19
TORSDOF 5
