REMARK  Name = ZINC10001329
REMARK  12 active torsions:
REMARK  status: ('A' for Active; 'I' for Inactive)
REMARK    1  A    between atoms: C_1  and  C_2
REMARK    2  A    between atoms: C_7  and  N_8
REMARK    3  A    between atoms: C_9  and  C_11
REMARK    4  A    between atoms: C_11  and  S_12
REMARK    5  A    between atoms: S_12  and  C_13
REMARK    6  A    between atoms: C_16  and  C_19
REMARK    7  A    between atoms: N_17  and  C_18
REMARK    8  A    between atoms: C_19  and  C_21
REMARK    9  A    between atoms: C_19  and  N_24
REMARK   10  A    between atoms: C_21  and  C_22
REMARK   11  A    between atoms: C_21  and  C_23
REMARK   12  A    between atoms: C_25  and  C_27
REMARK                            x       y       z     vdW  Elec       q    Type
REMARK                         _______ _______ _______ _____ _____    ______ ____
ROOT
ATOM      1  C   UNL     1      -6.428   2.047  -0.410  0.00  0.00    +0.192 A 
ATOM      2  N   UNL     1      -6.373   3.358  -0.391  0.00  0.00    -0.122 NA
ATOM      3  N   UNL     1      -7.557   3.847  -0.490  0.00  0.00    -0.132 NA
ATOM      4  C   UNL     1      -8.433   2.885  -0.569  0.00  0.00    +0.155 A 
ATOM      5  N   UNL     1      -7.745   1.704  -0.521  0.00  0.00    -0.308 N 
ATOM      6  C   UNL     1      -8.305   0.351  -0.577  0.00  0.00    +0.152 C 
ENDROOT
BRANCH   1   7
ATOM      7  S   UNL     1      -5.062   0.939  -0.304  0.00  0.00    -0.077 S 
BRANCH   7   8
ATOM      8  C   UNL     1      -3.702   2.127  -0.184  0.00  0.00    +0.173 C 
BRANCH   8  10
ATOM      9  N   UNL     1      -1.238   2.069   0.019  0.00  0.00    -0.285 N 
ATOM     10  C   UNL     1      -2.395   1.385  -0.081  0.00  0.00    +0.227 C 
ATOM     11  O   UNL     1      -2.383   0.172  -0.088  0.00  0.00    -0.275 OA
ATOM     12  H   UNL     1      -1.251   3.037   0.090  0.00  0.00    +0.155 HD
BRANCH   9  19
ATOM     13  C   UNL     1       0.999   3.305  -1.232  0.00  0.00    +0.046 C 
ATOM     14  C   UNL     1       1.099   1.950  -0.581  0.00  0.00    -0.028 A 
ATOM     15  C   UNL     1       2.301   1.269  -0.584  0.00  0.00    +0.025 A 
ATOM     16  C   UNL     1       2.393   0.024   0.013  0.00  0.00    +0.041 A 
ATOM     17  C   UNL     1       1.282  -0.543   0.614  0.00  0.00    +0.022 A 
ATOM     18  C   UNL     1       0.078   0.134   0.619  0.00  0.00    +0.025 A 
ATOM     19  C   UNL     1      -0.017   1.384   0.021  0.00  0.00    +0.036 A 
ATOM     20 CL   UNL     1       3.905  -0.830   0.008  0.00  0.00    -0.084 Cl
ENDBRANCH   9  19
ENDBRANCH   8  10
ENDBRANCH   7   8
ENDBRANCH   1   7
BRANCH   4  21
ATOM     21  C   UNL     1      -9.926   3.045  -0.691  0.00  0.00    +0.144 C 
BRANCH  21  22
ATOM     22  N   UNL     1     -10.388   4.061   0.258  0.00  0.00    -0.301 N 
ATOM     23  C   UNL     1     -11.660   4.038   0.703  0.00  0.00    +0.245 C 
ATOM     24  O   UNL     1     -12.424   3.175   0.318  0.00  0.00    -0.270 OA
ATOM     25  H   UNL     1      -9.778   4.750   0.566  0.00  0.00    +0.150 HD
BRANCH  23  26
ATOM     26  C   UNL     1     -12.125   5.062   1.660  0.00  0.00    +0.040 A 
ATOM     27  C   UNL     1     -11.247   6.052   2.108  0.00  0.00    +0.017 A 
ATOM     28  C   UNL     1     -11.684   7.010   2.997  0.00  0.00    +0.050 A 
ATOM     29  C   UNL     1     -12.994   6.989   3.458  0.00  0.00    +0.166 A 
ATOM     30  C   UNL     1     -13.874   6.000   3.018  0.00  0.00    +0.167 A 
ATOM     31  C   UNL     1     -13.443   5.040   2.123  0.00  0.00    +0.062 A 
ATOM     32  O   UNL     1     -15.086   6.200   3.613  0.00  0.00    -0.453 OA
ATOM     33  C   UNL     1     -14.826   7.070   4.730  0.00  0.00    +0.466 C 
ATOM     34  O   UNL     1     -13.656   7.805   4.327  0.00  0.00    -0.453 OA
ENDBRANCH  23  26
ENDBRANCH  21  22
BRANCH  21  35
ATOM     35  C   UNL     1     -10.278   3.480  -2.115  0.00  0.00    +0.011 C 
ATOM     36  C   UNL     1     -11.794   3.642  -2.239  0.00  0.00    +0.009 C 
ATOM     37  C   UNL     1      -9.596   4.814  -2.424  0.00  0.00    +0.009 C 
ENDBRANCH  21  35
ENDBRANCH   4  21
TORSDOF 8
