REMARK  Name = ZINC39327226
REMARK  9 active torsions:
REMARK  status: ('A' for Active; 'I' for Inactive)
REMARK    1  A    between atoms: C_1  and  C_2
REMARK    2  A    between atoms: C_2  and  C_3
REMARK    3  A    between atoms: C_2  and  C_4
REMARK    4  A    between atoms: C_11  and  N_27
REMARK    5  A    between atoms: C_12  and  C_25
REMARK    6  A    between atoms: C_13  and  C_15
REMARK    7  A    between atoms: C_18  and  O_21
REMARK    8  A    between atoms: O_21  and  C_22
REMARK    9  A    between atoms: C_22  and  C_24
REMARK                            x       y       z     vdW  Elec       q    Type
REMARK                         _______ _______ _______ _____ _____    ______ ____
ROOT
ATOM      1  C   UNL     1       0.872  -0.485  -1.453  0.00  0.00    +0.046 A 
ATOM      2  C   UNL     1       1.951  -1.280  -1.389  0.00  0.00    +0.049 A 
ATOM      3  C   UNL     1       2.364  -1.567  -2.709  0.00  0.00    +0.245 A 
ATOM      4  N   UNL     1       1.553  -0.959  -3.525  0.00  0.00    -0.135 NA
ATOM      5  N   UNL     1       0.597  -0.271  -2.761  0.00  0.00    -0.278 N 
ATOM      6  H   UNL     1      -0.132   0.265  -3.110  0.00  0.00    +0.189 HD
ATOM      7  O   UNL     1       3.437  -2.359  -2.972  0.00  0.00    -0.421 OA
ATOM      8  C   UNL     1       3.939  -3.084  -1.952  0.00  0.00    +0.201 C 
ATOM      9  C   UNL     1       3.629  -2.893  -0.653  0.00  0.00    +0.098 C 
ATOM     10  C   UNL     1       2.673  -1.825  -0.184  0.00  0.00    +0.101 C 
ENDROOT
BRANCH  10  11
ATOM     11  C   UNL     1       3.439  -0.719   0.495  0.00  0.00    -0.034 A 
ATOM     12  C   UNL     1       4.417  -0.030  -0.199  0.00  0.00    +0.008 A 
ATOM     13  C   UNL     1       5.120   0.984   0.421  0.00  0.00    +0.046 A 
ATOM     14  C   UNL     1       4.845   1.312   1.740  0.00  0.00    +0.132 A 
ATOM     15  C   UNL     1       3.863   0.620   2.434  0.00  0.00    +0.046 A 
ATOM     16  C   UNL     1       3.159  -0.390   1.808  0.00  0.00    +0.008 A 
BRANCH  14  17
ATOM     17  O   UNL     1       5.536   2.310   2.353  0.00  0.00    -0.426 OA
BRANCH  17  18
ATOM     18  C   UNL     1       5.319   3.570   1.944  0.00  0.00    +0.309 C 
ATOM     19  O   UNL     1       4.456   3.801   1.130  0.00  0.00    -0.251 OA
ATOM     20  C   UNL     1       6.153   4.696   2.498  0.00  0.00    +0.136 C 
ENDBRANCH  17  18
ENDBRANCH  14  17
ENDBRANCH  10  11
BRANCH   1  22
ATOM     21  C   UNL     1       0.127   1.595  -0.327  0.00  0.00    +0.014 C 
ATOM     22  C   UNL     1       0.102   0.066  -0.281  0.00  0.00    +0.031 C 
ATOM     23  C   UNL     1      -1.347  -0.423  -0.348  0.00  0.00    +0.014 C 
ENDBRANCH   1  22
BRANCH   8  24
ATOM     24  N   UNL     1       4.827  -4.085  -2.256  0.00  0.00    -0.328 N 
ATOM     25  H   UNL     1       5.073  -4.252  -3.180  0.00  0.00    +0.145 HD
ATOM     26  H   UNL     1       5.208  -4.627  -1.548  0.00  0.00    +0.145 HD
ENDBRANCH   8  24
BRANCH   9  27
ATOM     27  C   UNL     1       4.237  -3.743   0.326  0.00  0.00    +0.101 C 
ATOM     28  N   UNL     1       4.719  -4.418   1.103  0.00  0.00    -0.191 NA
ENDBRANCH   9  27
TORSDOF 6
