REMARK  Name = ZINC20291977
REMARK  8 active torsions:
REMARK  status: ('A' for Active; 'I' for Inactive)
REMARK    1  A    between atoms: C_10  and  N_11
REMARK    2  A    between atoms: C_12  and  C_14
REMARK    3  A    between atoms: C_14  and  S_15
REMARK    4  A    between atoms: S_15  and  C_16
REMARK    5  A    between atoms: N_20  and  N_21
REMARK    6  A    between atoms: N_22  and  N_23
REMARK    7  A    between atoms: C_24  and  C_25
REMARK    8  A    between atoms: C_28  and  N_31
REMARK                            x       y       z     vdW  Elec       q    Type
REMARK                         _______ _______ _______ _____ _____    ______ ____
ROOT
ATOM      1  C   UNL     1      10.060   0.052   0.356  0.00  0.00    +0.210 A 
ATOM      2  N   UNL     1      10.055   1.403   0.370  0.00  0.00    -0.119 NA
ATOM      3  N   UNL     1      11.262   1.838   0.465  0.00  0.00    -0.109 NA
ATOM      4  C   UNL     1      12.115   0.794   0.518  0.00  0.00    +0.254 A 
ATOM      5  N   UNL     1      11.362  -0.352   0.455  0.00  0.00    -0.211 N 
ATOM      6  N   UNL     1      13.445   0.863   0.617  0.00  0.00    -0.204 N 
ATOM      7  H   UNL     1      13.972   0.049   0.648  0.00  0.00    +0.177 HD
ENDROOT
BRANCH   5   8
ATOM      8  N   UNL     1      11.822  -1.639   0.481  0.00  0.00    -0.294 N 
ATOM      9  H   UNL     1      12.017  -1.972  -0.451  0.00  0.00    +0.163 HD
ATOM     10  H   UNL     1      12.636  -1.719   1.072  0.00  0.00    +0.163 HD
ENDBRANCH   5   8
BRANCH   6  11
ATOM     11  N   UNL     1      14.029   2.011   0.673  0.00  0.00    -0.188 NA
ATOM     12  C   UNL     1      15.338   2.079   0.771  0.00  0.00    +0.138 C 
BRANCH  12  13
ATOM     13  C   UNL     1      16.002   3.384   0.834  0.00  0.00    -0.005 A 
ATOM     14  C   UNL     1      15.243   4.564   0.796  0.00  0.00    +0.012 A 
ATOM     15  C   UNL     1      15.876   5.786   0.856  0.00  0.00    +0.033 A 
ATOM     16  C   UNL     1      17.256   5.852   0.953  0.00  0.00    +0.126 A 
ATOM     17  C   UNL     1      18.014   4.693   0.991  0.00  0.00    +0.033 A 
ATOM     18  C   UNL     1      17.399   3.461   0.939  0.00  0.00    +0.012 A 
BRANCH  16  19
ATOM     19  N   UNL     1      17.927   7.171   1.015  0.00  0.00    +0.056 N 
ATOM     20  O   UNL     1      17.211   8.276   0.979  0.00  0.00    -0.126 OA
ATOM     21  O   UNL     1      19.239   7.239   1.108  0.00  0.00    -0.126 OA
ENDBRANCH  16  19
ENDBRANCH  12  13
ENDBRANCH   6  11
BRANCH   1  22
ATOM     22  S   UNL     1       8.730  -0.934   0.247  0.00  0.00    -0.075 S 
BRANCH  22  23
ATOM     23  C   UNL     1       7.334   0.221   0.146  0.00  0.00    +0.173 C 
BRANCH  23  25
ATOM     24  N   UNL     1       4.871   0.098  -0.045  0.00  0.00    -0.284 N 
ATOM     25  C   UNL     1       6.047  -0.555   0.042  0.00  0.00    +0.228 C 
ATOM     26  O   UNL     1       6.068  -1.768   0.036  0.00  0.00    -0.275 OA
ATOM     27  H   UNL     1       4.858   1.065  -0.121  0.00  0.00    +0.155 HD
BRANCH  24  37
ATOM     28  C   UNL     1       0.203   0.945  -1.767  0.00  0.00    +0.001 A 
ATOM     29  C   UNL     1       1.389   1.676  -1.797  0.00  0.00    +0.001 A 
ATOM     30  C   UNL     1       2.529   1.185  -1.236  0.00  0.00    +0.010 A 
ATOM     31  C   UNL     1       2.511  -0.076  -0.618  0.00  0.00    +0.003 A 
ATOM     32  C   UNL     1       1.306  -0.819  -0.587  0.00  0.00    -0.016 A 
ATOM     33  C   UNL     1       0.149  -0.280  -1.177  0.00  0.00    +0.008 A 
ATOM     34  C   UNL     1       1.286  -2.080   0.032  0.00  0.00    +0.008 A 
ATOM     35  C   UNL     1       2.422  -2.578   0.596  0.00  0.00    +0.002 A 
ATOM     36  C   UNL     1       3.612  -1.857   0.572  0.00  0.00    +0.024 A 
ATOM     37  C   UNL     1       3.672  -0.617  -0.026  0.00  0.00    +0.041 A 
ENDBRANCH  24  37
ENDBRANCH  23  25
ENDBRANCH  22  23
ENDBRANCH   1  22
TORSDOF 8
