REMARK  Name = ZINC37526268
REMARK  9 active torsions:
REMARK  status: ('A' for Active; 'I' for Inactive)
REMARK    1  A    between atoms: C_1  and  C_2
REMARK    2  A    between atoms: C_2  and  C_3
REMARK    3  A    between atoms: C_2  and  C_4
REMARK    4  A    between atoms: C_2  and  N_5
REMARK    5  A    between atoms: N_8  and  C_9
REMARK    6  A    between atoms: N_12  and  C_15
REMARK    7  A    between atoms: C_20  and  C_21
REMARK    8  A    between atoms: N_23  and  C_24
REMARK    9  A    between atoms: C_24  and  C_25
REMARK                            x       y       z     vdW  Elec       q    Type
REMARK                         _______ _______ _______ _____ _____    ______ ____
ROOT
ATOM      1  C   UNL     1       6.871   0.797  -5.601  0.00  0.00    +0.042 A 
ATOM      2  C   UNL     1       6.244   0.640  -6.831  0.00  0.00    +0.024 A 
ATOM      3  C   UNL     1       6.932   0.910  -7.996  0.00  0.00    +0.002 A 
ATOM      4  C   UNL     1       8.250   1.337  -7.951  0.00  0.00    +0.001 A 
ATOM      5  C   UNL     1       8.888   1.498  -6.740  0.00  0.00    +0.015 A 
ATOM      6  C   UNL     1       8.204   1.234  -5.551  0.00  0.00    +0.058 A 
ENDROOT
BRANCH   1  10
ATOM      7  C   UNL     1       3.987  -0.162  -2.779  0.00  0.00    +0.077 C 
ATOM      8  C   UNL     1       4.038   1.200  -3.473  0.00  0.00    +0.041 C 
ATOM      9  C   UNL     1       5.500   1.603  -3.694  0.00  0.00    +0.107 C 
ATOM     10  N   UNL     1       6.181   0.526  -4.426  0.00  0.00    -0.329 N 
ATOM     11  C   UNL     1       6.118  -0.841  -3.893  0.00  0.00    +0.107 C 
ATOM     12  C   UNL     1       4.649  -1.216  -3.670  0.00  0.00    +0.041 C 
BRANCH   7  16
ATOM     13  N   UNL     1       0.673  -0.435  -1.210  0.00  0.00    -0.295 N 
ATOM     14  C   UNL     1       1.958  -0.092  -1.433  0.00  0.00    +0.300 C 
ATOM     15  O   UNL     1       2.544   0.617  -0.638  0.00  0.00    -0.253 OA
ATOM     16  N   UNL     1       2.592  -0.535  -2.536  0.00  0.00    -0.296 N 
ATOM     17  H   UNL     1       0.205  -1.000  -1.843  0.00  0.00    +0.151 HD
ATOM     18  H   UNL     1       2.124  -1.101  -3.170  0.00  0.00    +0.151 HD
BRANCH  13  20
ATOM     19  C   UNL     1      -0.037   1.577  -0.013  0.00  0.00    +0.031 C 
ATOM     20  C   UNL     1      -0.015   0.047  -0.010  0.00  0.00    +0.028 C 
ATOM     21  C   UNL     1       0.721  -0.450   1.236  0.00  0.00    +0.031 C 
ATOM     22  C   UNL     1      -1.451  -0.483   0.002  0.00  0.00    +0.031 C 
ENDBRANCH  13  20
ENDBRANCH   7  16
ENDBRANCH   1  10
BRANCH   6  23
ATOM     23  C   UNL     1       8.879   1.410  -4.252  0.00  0.00    +0.246 C 
ATOM     24  O   UNL     1       8.316   1.082  -3.225  0.00  0.00    -0.270 OA
ATOM     25  N   UNL     1      10.119   1.935  -4.203  0.00  0.00    -0.307 N 
ATOM     26  H   UNL     1      10.568   2.197  -5.022  0.00  0.00    +0.149 HD
BRANCH  25  27
ATOM     27  C   UNL     1      10.790   2.110  -2.913  0.00  0.00    +0.139 C 
BRANCH  27  28
ATOM     28  C   UNL     1      12.155   2.710  -3.133  0.00  0.00    -0.030 A 
ATOM     29  C   UNL     1      13.248   1.888  -3.334  0.00  0.00    +0.005 A 
ATOM     30  C   UNL     1      14.499   2.438  -3.536  0.00  0.00    +0.000 A 
ATOM     31  C   UNL     1      14.658   3.812  -3.538  0.00  0.00    +0.000 A 
ATOM     32  C   UNL     1      13.565   4.634  -3.337  0.00  0.00    +0.000 A 
ATOM     33  C   UNL     1      12.313   4.083  -3.139  0.00  0.00    +0.005 A 
ENDBRANCH  27  28
ENDBRANCH  25  27
ENDBRANCH   6  23
TORSDOF 6
