REMARK  Name = ZINC03595103
REMARK  8 active torsions:
REMARK  status: ('A' for Active; 'I' for Inactive)
REMARK    1  A    between atoms: C_1  and  C_2
REMARK    2  A    between atoms: C_2  and  C_3
REMARK    3  A    between atoms: C_2  and  C_4
REMARK    4  A    between atoms: C_4  and  N_5
REMARK    5  A    between atoms: C_9  and  C_11
REMARK    6  A    between atoms: C_11  and  N_12
REMARK    7  A    between atoms: C_15  and  C_19
REMARK    8  A    between atoms: C_15  and  C_20
REMARK                            x       y       z     vdW  Elec       q    Type
REMARK                         _______ _______ _______ _____ _____    ______ ____
ROOT
ATOM      1  N   UNL     1      -0.698   1.558   1.213  0.00  0.00    -0.215 N 
ATOM      2  C   UNL     1      -0.418   2.719   1.838  0.00  0.00    +0.251 C 
ATOM      3  O   UNL     1       0.418   3.538   1.521  0.00  0.00    -0.272 OA
ATOM      4  C   UNL     1      -1.366   2.788   3.019  0.00  0.00    +0.136 C 
ATOM      5  N   UNL     1      -2.138   1.538   2.917  0.00  0.00    -0.281 N 
ATOM      6  C   UNL     1      -1.677   0.888   1.833  0.00  0.00    +0.310 C 
ATOM      7  O   UNL     1      -2.101  -0.188   1.459  0.00  0.00    -0.252 OA
ATOM      8  C   UNL     1      -2.290   4.002   2.906  0.00  0.00    +0.047 C 
ATOM      9  H   UNL     1      -2.842   1.241   3.514  0.00  0.00    +0.152 HD
ENDROOT
BRANCH   4  10
ATOM     10  C   UNL     1      -0.593   2.830   4.312  0.00  0.00    +0.003 A 
ATOM     11  C   UNL     1      -0.706   1.793   5.219  0.00  0.00    +0.009 A 
ATOM     12  C   UNL     1       0.006   1.828   6.402  0.00  0.00    +0.020 A 
ATOM     13  C   UNL     1       0.825   2.907   6.686  0.00  0.00    +0.042 A 
ATOM     14  C   UNL     1       0.934   3.948   5.782  0.00  0.00    +0.040 A 
ATOM     15  C   UNL     1       0.225   3.909   4.594  0.00  0.00    +0.048 A 
ATOM     16 CL   UNL     1       0.361   5.216   3.459  0.00  0.00    -0.083 Cl
ATOM     17 CL   UNL     1       1.715   2.954   8.175  0.00  0.00    -0.083 Cl
ENDBRANCH   4  10
BRANCH   1  18
ATOM     18  C   UNL     1      -0.013   1.086   0.008  0.00  0.00    +0.214 C 
BRANCH  18  23
ATOM     19  N   UNL     1      -0.487   1.406  -4.765  0.00  0.00    -0.299 N 
ATOM     20  C   UNL     1      -0.940   1.719  -3.535  0.00  0.00    +0.306 C 
ATOM     21  O   UNL     1      -1.937   2.403  -3.410  0.00  0.00    -0.252 OA
ATOM     22  N   UNL     1      -0.288   1.272  -2.443  0.00  0.00    -0.239 N 
ATOM     23  C   UNL     1      -0.742   1.585  -1.213  0.00  0.00    +0.238 C 
ATOM     24  O   UNL     1      -1.736   2.268  -1.089  0.00  0.00    -0.274 OA
ATOM     25  H   UNL     1       0.308   0.860  -4.865  0.00  0.00    +0.150 HD
ATOM     26  H   UNL     1       0.507   0.726  -2.543  0.00  0.00    +0.159 HD
BRANCH  19  27
ATOM     27  C   UNL     1      -1.196   1.891  -5.952  0.00  0.00    +0.108 C 
BRANCH  27  29
ATOM     28  C   UNL     1      -0.568  -0.128  -7.283  0.00  0.00    +0.009 C 
ATOM     29  C   UNL     1      -0.480   1.398  -7.211  0.00  0.00    -0.000 C 
ATOM     30  C   UNL     1      -1.145   2.006  -8.447  0.00  0.00    +0.009 C 
ENDBRANCH  27  29
ENDBRANCH  19  27
ENDBRANCH  18  23
ENDBRANCH   1  18
TORSDOF 5
