REMARK  Name = ZINC41269217
REMARK  8 active torsions:
REMARK  status: ('A' for Active; 'I' for Inactive)
REMARK    1  A    between atoms: C_1  and  C_2
REMARK    2  A    between atoms: C_5  and  N_8
REMARK    3  A    between atoms: C_9  and  C_11
REMARK    4  A    between atoms: C_11  and  N_12
REMARK    5  A    between atoms: C_18  and  C_20
REMARK    6  A    between atoms: N_23  and  C_26
REMARK    7  A    between atoms: C_26  and  C_27
REMARK    8  A    between atoms: C_30  and  C_32
REMARK                            x       y       z     vdW  Elec       q    Type
REMARK                         _______ _______ _______ _____ _____    ______ ____
ROOT
ATOM      1  N   UNL     1       0.916  -6.927   2.197  0.00  0.00    -0.291 NA
ATOM      2  C   UNL     1       2.054  -6.452   2.996  0.00  0.00    +0.104 C 
ATOM      3  C   UNL     1       1.816  -6.792   4.471  0.00  0.00    +0.123 C 
ATOM      4  N   UNL     1       1.538  -8.232   4.580  0.00  0.00    -0.299 N 
ATOM      5  C   UNL     1       0.501  -8.808   3.709  0.00  0.00    +0.123 C 
ATOM      6  C   UNL     1       0.791  -8.389   2.264  0.00  0.00    +0.104 C 
ATOM      7  C   UNL     1       2.214  -9.003   5.454  0.00  0.00    +0.219 C 
ATOM      8  O   UNL     1       2.990  -8.496   6.236  0.00  0.00    -0.275 OA
ENDROOT
BRANCH   7   9
ATOM      9  C   UNL     1       2.006 -10.495   5.461  0.00  0.00    +0.072 C 
ATOM     10  C   UNL     1       0.655 -10.821   6.106  0.00  0.00    -0.006 C 
ATOM     11  C   UNL     1       0.486 -12.340   6.181  0.00  0.00    -0.077 C 
ATOM     12  N   UNL     1       1.567 -12.918   6.988  0.00  0.00    +0.386 N 
ATOM     13  C   UNL     1       2.860 -12.671   6.338  0.00  0.00    -0.077 C 
ATOM     14  C   UNL     1       3.121 -11.165   6.269  0.00  0.00    -0.006 C 
ATOM     15  H   UNL     1       1.566 -12.493   7.904  0.00  0.00    -0.081 HD
BRANCH  12  16
ATOM     16  C   UNL     1       1.357 -14.365   7.123  0.00  0.00    +0.021 C 
BRANCH  16  17
ATOM     17  C   UNL     1       2.396 -14.940   8.051  0.00  0.00    +0.202 A 
ATOM     18  N   UNL     1       2.286 -15.070   9.344  0.00  0.00    -0.114 NA
ATOM     19  N   UNL     1       3.361 -15.597   9.816  0.00  0.00    -0.107 NA
ATOM     20  C   UNL     1       4.200 -15.824   8.832  0.00  0.00    +0.248 A 
ATOM     21  O   UNL     1       3.601 -15.416   7.695  0.00  0.00    -0.422 OA
BRANCH  20  22
ATOM     22  C   UNL     1       5.547 -16.420   8.949  0.00  0.00    +0.041 A 
ATOM     23  C   UNL     1       6.337 -16.597   7.812  0.00  0.00    +0.013 A 
ATOM     24  C   UNL     1       7.594 -17.154   7.926  0.00  0.00    +0.004 A 
ATOM     25  C   UNL     1       8.074 -17.537   9.166  0.00  0.00    +0.038 A 
ATOM     26  C   UNL     1       7.296 -17.365  10.299  0.00  0.00    +0.124 A 
ATOM     27  C   UNL     1       6.038 -16.803  10.198  0.00  0.00    +0.051 A 
ATOM     28  F   UNL     1       7.772 -17.741  11.507  0.00  0.00    -0.205 F 
ENDBRANCH  20  22
ENDBRANCH  16  17
ENDBRANCH  12  16
ENDBRANCH   7   9
BRANCH   1  29
ATOM     29  C   UNL     1       1.023  -6.471   0.805  0.00  0.00    +0.180 C 
BRANCH  29  31
ATOM     30  N   UNL     1       0.971  -4.325  -0.424  0.00  0.00    -0.284 N 
ATOM     31  C   UNL     1       0.902  -4.970   0.757  0.00  0.00    +0.231 C 
ATOM     32  O   UNL     1       0.742  -4.341   1.782  0.00  0.00    -0.274 OA
ATOM     33  H   UNL     1       1.028  -4.831  -1.250  0.00  0.00    +0.155 HD
BRANCH  30  38
ATOM     34  C   UNL     1       0.930   1.346  -0.567  0.00  0.00    +0.044 C 
ATOM     35  C   UNL     1       0.941  -0.161  -0.529  0.00  0.00    -0.050 A 
ATOM     36  C   UNL     1       0.191  -0.832   0.419  0.00  0.00    +0.005 A 
ATOM     37  C   UNL     1       0.199  -2.213   0.456  0.00  0.00    +0.023 A 
ATOM     38  C   UNL     1       0.960  -2.926  -0.460  0.00  0.00    +0.033 A 
ATOM     39  C   UNL     1       1.712  -2.249  -1.411  0.00  0.00    +0.023 A 
ATOM     40  C   UNL     1       1.696  -0.868  -1.446  0.00  0.00    +0.005 A 
ENDBRANCH  30  38
ENDBRANCH  29  31
ENDBRANCH   1  29
TORSDOF 7
