REMARK  Name = ZINC63985883
REMARK  12 active torsions:
REMARK  status: ('A' for Active; 'I' for Inactive)
REMARK    1  A    between atoms: C_1  and  C_2
REMARK    2  A    between atoms: C_6  and  C_8
REMARK    3  A    between atoms: C_8  and  N_9
REMARK    4  A    between atoms: N_9  and  C_10
REMARK    5  A    between atoms: N_16  and  C_29
REMARK    6  A    between atoms: C_17  and  C_25
REMARK    7  A    between atoms: C_19  and  N_21
REMARK    8  A    between atoms: C_22  and  C_24
REMARK    9  A    between atoms: C_25  and  O_27
REMARK   10  A    between atoms: O_27  and  C_28
REMARK   11  A    between atoms: C_29  and  C_30
REMARK   12  A    between atoms: C_30  and  C_31
REMARK                            x       y       z     vdW  Elec       q    Type
REMARK                         _______ _______ _______ _____ _____    ______ ____
ROOT
ATOM      1  C   UNL     1       1.269  -3.482   4.440  0.00  0.00    +0.044 A 
ATOM      2  C   UNL     1       2.617  -3.773   4.646  0.00  0.00    +0.033 A 
ATOM      3  C   UNL     1       2.964  -4.555   5.731  0.00  0.00    +0.015 A 
ATOM      4  C   UNL     1       1.981  -5.032   6.587  0.00  0.00    +0.105 A 
ATOM      5  N   UNL     1       0.704  -4.730   6.353  0.00  0.00    -0.348 N 
ATOM      6  C   UNL     1       0.335  -3.984   5.334  0.00  0.00    +0.107 A 
ATOM      7  N   UNL     1       2.527  -5.797   7.615  0.00  0.00    -0.301 N 
ATOM      8  C   UNL     1       3.984  -5.864   7.477  0.00  0.00    +0.208 C 
ATOM      9  C   UNL     1       4.308  -5.040   6.221  0.00  0.00    +0.138 C 
ATOM     10  H   UNL     1       0.024  -5.068   6.957  0.00  0.00    +0.167 HD
ENDROOT
BRANCH   9  11
ATOM     11  N   UNL     1       5.169  -3.904   6.562  0.00  0.00    -0.306 N 
ATOM     12  C   UNL     1       5.917  -3.315   5.608  0.00  0.00    +0.210 C 
ATOM     13  O   UNL     1       5.878  -3.725   4.468  0.00  0.00    -0.276 OA
ATOM     14  C   UNL     1       6.802  -2.147   5.960  0.00  0.00    +0.109 C 
ATOM     15  H   UNL     1       5.199  -3.576   7.474  0.00  0.00    +0.149 HD
ENDBRANCH   9  11
BRANCH   1  16
ATOM     16  N   UNL     1       0.867  -2.694   3.355  0.00  0.00    -0.339 N 
ATOM     17  H   UNL     1       1.528  -2.348   2.735  0.00  0.00    +0.146 HD
BRANCH  16  18
ATOM     18  C   UNL     1      -0.553  -2.392   3.155  0.00  0.00    +0.137 C 
BRANCH  18  24
ATOM     19  C   UNL     1      -0.785   2.132   1.028  0.00  0.00    +0.044 C 
ATOM     20  C   UNL     1      -0.828   0.630   0.909  0.00  0.00    -0.050 A 
ATOM     21  C   UNL     1      -1.017   0.039  -0.326  0.00  0.00    +0.003 A 
ATOM     22  C   UNL     1      -1.056  -1.338  -0.435  0.00  0.00    +0.001 A 
ATOM     23  C   UNL     1      -0.906  -2.125   0.692  0.00  0.00    +0.005 A 
ATOM     24  C   UNL     1      -0.716  -1.534   1.927  0.00  0.00    -0.030 A 
ATOM     25  C   UNL     1      -0.673  -0.157   2.035  0.00  0.00    +0.008 A 
ENDBRANCH  18  24
ENDBRANCH  16  18
ENDBRANCH   1  16
BRANCH   8  26
ATOM     26  C   UNL     1       4.426  -7.294   7.296  0.00  0.00    +0.330 C 
ATOM     27  O   UNL     1       3.668  -8.104   6.818  0.00  0.00    -0.249 OA
BRANCH  26  28
ATOM     28  O   UNL     1       5.662  -7.666   7.665  0.00  0.00    -0.467 OA
ATOM     29  C   UNL     1       6.014  -9.036   7.464  0.00  0.00    +0.280 C 
ENDBRANCH  26  28
ENDBRANCH   8  26
BRANCH   7  30
ATOM     30  C   UNL     1       1.755  -6.441   8.681  0.00  0.00    +0.112 C 
BRANCH  30  31
ATOM     31  C   UNL     1       1.566  -5.458   9.838  0.00  0.00    +0.052 C 
BRANCH  31  32
ATOM     32  C   UNL     1       0.818  -6.137  10.957  0.00  0.00    -0.040 C 
ATOM     33  C   UNL     1       1.352  -6.743  12.042  0.00  0.00    -0.001 A 
ATOM     34  C   UNL     1       2.736  -6.945  12.487  0.00  0.00    +0.010 A 
ATOM     35  C   UNL     1       2.963  -7.606  13.645  0.00  0.00    +0.001 A 
ATOM     36  C   UNL     1       1.912  -8.104  14.428  0.00  0.00    +0.002 A 
ATOM     37  C   UNL     1       0.615  -7.957  14.084  0.00  0.00    +0.026 A 
ATOM     38  C   UNL     1       0.260  -7.277  12.886  0.00  0.00    +0.043 A 
ATOM     39  N   UNL     1      -0.904  -7.012  12.345  0.00  0.00    -0.380 N 
ATOM     40  C   UNL     1      -0.681  -6.273  11.097  0.00  0.00    +0.144 C 
ATOM     41  H   UNL     1      -1.768  -7.259  12.710  0.00  0.00    +0.160 HD
ENDBRANCH  31  32
ENDBRANCH  30  31
ENDBRANCH   7  30
TORSDOF 9
