REMARK  Name = ZINC06149456
REMARK  9 active torsions:
REMARK  status: ('A' for Active; 'I' for Inactive)
REMARK    1  A    between atoms: C_1  and  C_2
REMARK    2  A    between atoms: C_2  and  C_3
REMARK    3  A    between atoms: C_3  and  C_4
REMARK    4  A    between atoms: C_3  and  C_5
REMARK    5  A    between atoms: C_3  and  N_6
REMARK    6  A    between atoms: C_7  and  C_11
REMARK    7  A    between atoms: C_11  and  C_13
REMARK    8  A    between atoms: C_11  and  N_70
REMARK    9  A    between atoms: C_17  and  C_25
REMARK                            x       y       z     vdW  Elec       q    Type
REMARK                         _______ _______ _______ _____ _____    ______ ____
ROOT
ATOM      1  C   UNL     1       3.530   0.645  -0.580  0.00  0.00    +0.039 C 
ENDROOT
BRANCH   1  16
ATOM      2  C   UNL     1       3.988  -0.023   1.703  0.00  0.00    -0.058 C 
ATOM      3  C   UNL     1       4.699  -1.070   2.563  0.00  0.00    +0.088 C 
ATOM      4  N   UNL     1       6.142  -1.030   2.287  0.00  0.00    -0.313 N 
ATOM      5  C   UNL     1       6.411  -1.301   0.868  0.00  0.00    +0.088 C 
ATOM      6  C   UNL     1       5.700  -0.255   0.007  0.00  0.00    -0.058 C 
ATOM      7  C   UNL     1       6.826  -1.913   3.098  0.00  0.00    +0.162 A 
ATOM      8  N   UNL     1       6.838  -1.986   4.409  0.00  0.00    -0.225 NA
ATOM      9  C   UNL     1       7.561  -2.912   5.077  0.00  0.00    +0.080 A 
ATOM     10  C   UNL     1       7.662  -3.099   6.475  0.00  0.00    +0.029 A 
ATOM     11  C   UNL     1       8.446  -4.097   6.993  0.00  0.00    +0.002 A 
ATOM     12  C   UNL     1       9.165  -4.954   6.173  0.00  0.00    +0.001 A 
ATOM     13  C   UNL     1       9.090  -4.799   4.801  0.00  0.00    +0.017 A 
ATOM     14  C   UNL     1       8.307  -3.803   4.273  0.00  0.00    +0.041 A 
ATOM     15  S   UNL     1       7.912  -3.252   2.630  0.00  0.00    -0.052 S 
ATOM     16  N   UNL     1       4.249  -0.321   0.278  0.00  0.00    +0.391 N 
ATOM     17  H   UNL     1       3.913  -1.268   0.068  0.00  0.00    -0.080 HD
ENDBRANCH   1  16
BRANCH   1  18
ATOM     18  C   UNL     1       3.755   0.279  -2.024  0.00  0.00    +0.011 A 
ATOM     19  C   UNL     1       4.234   1.207  -2.889  0.00  0.00    +0.017 A 
ATOM     20  C   UNL     1       4.446   0.817  -4.285  0.00  0.00    -0.001 A 
ATOM     21  C   UNL     1       4.941   1.729  -5.223  0.00  0.00    +0.013 A 
ATOM     22  C   UNL     1       5.122   1.336  -6.519  0.00  0.00    -0.050 A 
ATOM     23  C   UNL     1       4.819   0.040  -6.913  0.00  0.00    +0.005 A 
ATOM     24  C   UNL     1       4.332  -0.875  -6.005  0.00  0.00    +0.026 A 
ATOM     25  C   UNL     1       4.138  -0.498  -4.680  0.00  0.00    +0.049 A 
ATOM     26  N   UNL     1       3.650  -1.392  -3.752  0.00  0.00    -0.322 N 
ATOM     27  H   UNL     1       3.432  -2.326  -4.035  0.00  0.00    +0.169 HD
ATOM     28  C   UNL     1       3.463  -1.027  -2.472  0.00  0.00    +0.251 A 
ATOM     29  O   UNL     1       3.030  -1.844  -1.678  0.00  0.00    -0.268 OA
ATOM     30  C   UNL     1       5.655   2.319  -7.529  0.00  0.00    +0.044 C 
ENDBRANCH   1  18
BRANCH   1  32
ATOM     31  N   UNL     1       1.241   1.615  -0.008  0.00  0.00    -0.225 N 
ATOM     32  C   UNL     1       2.057   0.577  -0.268  0.00  0.00    +0.143 A 
ATOM     33  N   UNL     1       1.322  -0.506  -0.198  0.00  0.00    -0.115 NA
ATOM     34  N   UNL     1       0.117  -0.151   0.090  0.00  0.00    -0.023 NA
ATOM     35  N   UNL     1       0.065   1.130   0.206  0.00  0.00    -0.043 NA
BRANCH  31  36
ATOM     36  C   UNL     1       1.618   3.030   0.025  0.00  0.00    +0.061 C 
ATOM     37  C   UNL     1       2.638   3.260   1.143  0.00  0.00    +0.036 C 
ATOM     38  C   UNL     1       2.235   3.426  -1.317  0.00  0.00    +0.036 C 
BRANCH  36  40
ATOM     39  C   UNL     1       0.768   5.361   0.321  0.00  0.00    +0.006 C 
ATOM     40  C   UNL     1       0.374   3.883   0.286  0.00  0.00    +0.026 C 
ENDBRANCH  36  40
ENDBRANCH  31  36
ENDBRANCH   1  32
TORSDOF 5
