REMARK  Name = ZINC39623301
REMARK  7 active torsions:
REMARK  status: ('A' for Active; 'I' for Inactive)
REMARK    1  A    between atoms: C_1  and  C_2
REMARK    2  A    between atoms: C_2  and  C_3
REMARK    3  A    between atoms: C_3  and  C_4
REMARK    4  A    between atoms: C_4  and  C_5
REMARK    5  A    between atoms: C_5  and  N_6
REMARK    6  A    between atoms: C_7  and  C_9
REMARK    7  A    between atoms: C_20  and  C_22
REMARK                            x       y       z     vdW  Elec       q    Type
REMARK                         _______ _______ _______ _____ _____    ______ ____
ROOT
ATOM      1  C   UNL     1       2.007  -6.832   3.239  0.00  0.00    +0.100 C 
ATOM      2  C   UNL     1       2.819  -7.020   1.938  0.00  0.00    +0.121 C 
ATOM      3  N   UNL     1       4.220  -7.188   2.393  0.00  0.00    -0.296 N 
ATOM      4  C   UNL     1       4.114  -8.021   3.614  0.00  0.00    +0.115 C 
ATOM      5  C   UNL     1       2.858  -7.494   4.336  0.00  0.00    -0.004 C 
ATOM      6  C   UNL     1       2.092  -8.648   4.975  0.00  0.00    -0.010 C 
ATOM      7  C   UNL     1       2.935  -9.252   6.101  0.00  0.00    -0.082 C 
ATOM      8  N   UNL     1       3.230  -8.220   7.103  0.00  0.00    +0.379 N 
ATOM      9  C   UNL     1       4.047  -7.159   6.502  0.00  0.00    -0.082 C 
ATOM     10  C   UNL     1       3.251  -6.465   5.392  0.00  0.00    -0.010 C 
ATOM     11  C   UNL     1       5.338  -6.694   1.823  0.00  0.00    +0.247 C 
ATOM     12  O   UNL     1       5.253  -5.919   0.891  0.00  0.00    -0.270 OA
ATOM     13  H   UNL     1       2.366  -7.826   7.442  0.00  0.00    -0.086 HD
ATOM     14  H   UNL     1       3.734  -8.634   7.873  0.00  0.00    -0.086 HD
ENDROOT
BRANCH  11  15
ATOM     15  C   UNL     1       6.665  -7.095   2.334  0.00  0.00    +0.038 A 
ATOM     16  C   UNL     1       6.806  -8.270   3.075  0.00  0.00    +0.014 A 
ATOM     17  C   UNL     1       8.047  -8.639   3.549  0.00  0.00    +0.022 A 
ATOM     18  C   UNL     1       9.154  -7.848   3.291  0.00  0.00    +0.059 A 
ATOM     19  C   UNL     1       9.021  -6.680   2.556  0.00  0.00    +0.060 A 
ATOM     20  C   UNL     1       7.785  -6.304   2.071  0.00  0.00    +0.034 A 
ATOM     21 CL   UNL     1      10.414  -5.694   2.237  0.00  0.00    -0.082 Cl
ATOM     22 CL   UNL     1      10.713  -8.319   3.892  0.00  0.00    -0.082 Cl
ENDBRANCH  11  15
BRANCH   1  24
ATOM     23  N   UNL     1       0.789  -4.958   4.300  0.00  0.00    -0.315 N 
ATOM     24  C   UNL     1       1.820  -5.365   3.533  0.00  0.00    +0.218 C 
ATOM     25  O   UNL     1       2.598  -4.552   3.080  0.00  0.00    -0.275 OA
ATOM     26  H   UNL     1       0.167  -5.609   4.662  0.00  0.00    +0.149 HD
BRANCH  23  27
ATOM     27  C   UNL     1       0.607  -3.533   4.586  0.00  0.00    +0.104 C 
BRANCH  27  28
ATOM     28  C   UNL     1      -0.627  -3.343   5.470  0.00  0.00    +0.019 C 
BRANCH  28  29
ATOM     29  C   UNL     1      -0.817  -1.855   5.768  0.00  0.00    +0.001 C 
BRANCH  29  31
ATOM     30  C   UNL     1      -2.241  -0.177   6.951  0.00  0.00    +0.004 C 
ATOM     31  C   UNL     1      -2.051  -1.665   6.652  0.00  0.00    -0.003 C 
ENDBRANCH  29  31
ENDBRANCH  28  29
ENDBRANCH  27  28
ENDBRANCH  23  27
ENDBRANCH   1  24
TORSDOF 6
