REMARK  Name = ZINC01372023
REMARK  7 active torsions:
REMARK  status: ('A' for Active; 'I' for Inactive)
REMARK    1  A    between atoms: C_3  and  O_34
REMARK    2  A    between atoms: C_6  and  C_7
REMARK    3  A    between atoms: C_7  and  C_9
REMARK    4  A    between atoms: C_7  and  N_17
REMARK    5  A    between atoms: N_11  and  C_12
REMARK    6  A    between atoms: N_17  and  C_18
REMARK    7  A    between atoms: C_25  and  C_27
REMARK                            x       y       z     vdW  Elec       q    Type
REMARK                         _______ _______ _______ _____ _____    ______ ____
ROOT
ATOM      1  C   UNL     1      -2.445   1.281   0.774  0.00  0.00    +0.197 C 
ENDROOT
BRANCH   1   7
ATOM      2  C   UNL     1      -3.544   2.903  -0.783  0.00  0.00    +0.009 A 
ATOM      3  C   UNL     1      -4.577   3.269  -1.623  0.00  0.00    +0.046 A 
ATOM      4  C   UNL     1      -5.655   2.415  -1.809  0.00  0.00    +0.117 A 
ATOM      5  C   UNL     1      -5.688   1.192  -1.156  0.00  0.00    +0.046 A 
ATOM      6  C   UNL     1      -4.649   0.828  -0.321  0.00  0.00    +0.009 A 
ATOM      7  C   UNL     1      -3.577   1.681  -0.137  0.00  0.00    -0.018 A 
BRANCH   4   8
ATOM      8  O   UNL     1      -6.676   2.776  -2.630  0.00  0.00    -0.507 OA
ATOM      9  H   UNL     1      -7.387   3.257  -2.185  0.00  0.00    +0.292 HD
ENDBRANCH   4   8
ENDBRANCH   1   7
BRANCH   1  10
ATOM     10  C   UNL     1      -2.390   2.222   1.949  0.00  0.00    +0.239 C 
ATOM     11  O   UNL     1      -1.392   2.881   2.152  0.00  0.00    -0.273 OA
ATOM     12  N   UNL     1      -3.449   2.332   2.775  0.00  0.00    -0.311 N 
ATOM     13  H   UNL     1      -4.247   1.806   2.613  0.00  0.00    +0.149 HD
BRANCH  12  14
ATOM     14  C   UNL     1      -3.395   3.248   3.918  0.00  0.00    +0.073 C 
ATOM     15  C   UNL     1      -2.791   2.529   5.142  0.00  0.00    +0.022 C 
ATOM     16  C   UNL     1      -3.595   3.086   6.343  0.00  0.00    +0.002 C 
ATOM     17  C   UNL     1      -5.029   3.204   5.770  0.00  0.00    +0.002 C 
ATOM     18  C   UNL     1      -4.818   3.676   4.317  0.00  0.00    +0.022 C 
ENDBRANCH  12  14
ENDBRANCH   1  10
BRANCH   1  19
ATOM     19  N   UNL     1      -1.180   1.343   0.038  0.00  0.00    -0.250 N 
ATOM     20  C   UNL     1      -0.047   0.886   0.605  0.00  0.00    +0.272 C 
ATOM     21  O   UNL     1      -0.088   0.338   1.690  0.00  0.00    -0.268 OA
BRANCH  19  22
ATOM     22  C   UNL     1      -1.149   1.879  -1.255  0.00  0.00    +0.038 A 
ATOM     23  C   UNL     1      -1.573   1.115  -2.334  0.00  0.00    +0.026 A 
ATOM     24  C   UNL     1      -1.546   1.648  -3.609  0.00  0.00    +0.040 A 
ATOM     25  C   UNL     1      -1.085   2.938  -3.812  0.00  0.00    +0.124 A 
ATOM     26  C   UNL     1      -0.656   3.699  -2.737  0.00  0.00    +0.040 A 
ATOM     27  C   UNL     1      -0.687   3.172  -1.461  0.00  0.00    +0.026 A 
ATOM     28  F   UNL     1      -1.054   3.454  -5.059  0.00  0.00    -0.205 F 
ENDBRANCH  19  22
BRANCH  20  29
ATOM     29  C   UNL     1       1.244   1.044  -0.093  0.00  0.00    +0.155 A 
ATOM     30  C   UNL     1       2.443   0.673   0.516  0.00  0.00    +0.098 A 
ATOM     31  C   UNL     1       3.531   0.884  -0.272  0.00  0.00    +0.117 A 
ATOM     32  S   UNL     1       2.828   1.552  -1.703  0.00  0.00    +0.026 S 
ATOM     33  N   UNL     1       1.304   1.544  -1.307  0.00  0.00    -0.203 NA
ATOM     34 CL   UNL     1       5.203   0.568   0.075  0.00  0.00    -0.073 Cl
ATOM     35 CL   UNL     1       2.536   0.004   2.115  0.00  0.00    -0.079 Cl
ENDBRANCH  20  29
ENDBRANCH   1  19
TORSDOF 7
