REMARK  Name = ZINC08441215
REMARK  6 active torsions:
REMARK  status: ('A' for Active; 'I' for Inactive)
REMARK    1  A    between atoms: C_4  and  C_7
REMARK    2  A    between atoms: C_8  and  C_9
REMARK    3  A    between atoms: N_11  and  C_12
REMARK    4  A    between atoms: C_21  and  N_24
REMARK    5  A    between atoms: C_25  and  C_27
REMARK    6  A    between atoms: C_28  and  C_29
REMARK                            x       y       z     vdW  Elec       q    Type
REMARK                         _______ _______ _______ _____ _____    ______ ____
ROOT
ATOM      1  C   UNL     1       6.189  -4.832   0.051  0.00  0.00    +0.036 A 
ATOM      2  C   UNL     1       6.179  -6.225   0.031  0.00  0.00    +0.051 A 
ATOM      3  C   UNL     1       7.360  -6.912   0.099  0.00  0.00    +0.103 A 
ATOM      4  C   UNL     1       8.595  -6.270   0.188  0.00  0.00    +0.009 A 
ATOM      5  C   UNL     1       8.587  -4.861   0.206  0.00  0.00    +0.012 A 
ATOM      6  C   UNL     1       7.405  -4.165   0.133  0.00  0.00    +0.024 A 
ATOM      7  C   UNL     1       9.785  -7.159   0.253  0.00  0.00    +0.009 A 
ATOM      8  C   UNL     1       9.524  -8.529   0.217  0.00  0.00    +0.103 A 
ATOM      9  C   UNL     1      10.518  -9.467   0.268  0.00  0.00    +0.051 A 
ATOM     10  C   UNL     1      11.848  -9.059   0.360  0.00  0.00    +0.036 A 
ATOM     11  C   UNL     1      12.138  -7.701   0.397  0.00  0.00    +0.024 A 
ATOM     12  C   UNL     1      11.135  -6.764   0.345  0.00  0.00    +0.012 A 
ATOM     13  S   UNL     1       7.756  -8.642   0.101  0.00  0.00    +0.026 S 
ATOM     14  O   UNL     1       7.275  -9.198   1.317  0.00  0.00    -0.164 OA
ATOM     15  O   UNL     1       7.437  -9.163  -1.182  0.00  0.00    -0.164 OA
ENDROOT
BRANCH   1  18
ATOM     16  C   UNL     1       3.954  -4.601  -0.729  0.00  0.00    +0.241 C 
ATOM     17  O   UNL     1       4.090  -5.616  -1.386  0.00  0.00    -0.270 OA
ATOM     18  N   UNL     1       4.991  -4.115  -0.018  0.00  0.00    -0.282 N 
ATOM     19  H   UNL     1       4.906  -3.268   0.447  0.00  0.00    +0.155 HD
BRANCH  16  21
ATOM     20  C   UNL     1       1.628  -4.394  -1.421  0.00  0.00    +0.013 C 
ATOM     21  C   UNL     1       2.665  -3.908  -0.710  0.00  0.00    +0.068 C 
BRANCH  20  25
ATOM     22  C   UNL     1      -2.108  -2.385  -1.366  0.00  0.00    +0.000 A 
ATOM     23  C   UNL     1      -1.958  -3.539  -2.115  0.00  0.00    +0.001 A 
ATOM     24  C   UNL     1      -0.747  -4.197  -2.139  0.00  0.00    +0.008 A 
ATOM     25  C   UNL     1       0.332  -3.696  -1.402  0.00  0.00    -0.025 A 
ATOM     26  C   UNL     1       0.172  -2.530  -0.647  0.00  0.00    +0.008 A 
ATOM     27  C   UNL     1      -1.046  -1.883  -0.634  0.00  0.00    +0.001 A 
ENDBRANCH  20  25
ENDBRANCH  16  21
ENDBRANCH   1  18
BRANCH  10  28
ATOM     28  N   UNL     1      12.875 -10.005   0.413  0.00  0.00    -0.282 N 
ATOM     29  C   UNL     1      12.770 -11.155  -0.281  0.00  0.00    +0.241 C 
ATOM     30  O   UNL     1      11.745 -11.408  -0.888  0.00  0.00    -0.270 OA
ATOM     31  H   UNL     1      13.665  -9.833   0.951  0.00  0.00    +0.155 HD
BRANCH  29  32
ATOM     32  C   UNL     1      13.887 -12.100  -0.306  0.00  0.00    +0.068 C 
ATOM     33  C   UNL     1      13.782 -13.251  -1.001  0.00  0.00    +0.013 C 
BRANCH  33  34
ATOM     34  C   UNL     1      14.906 -14.201  -1.026  0.00  0.00    -0.025 A 
ATOM     35  C   UNL     1      16.082 -13.917  -0.325  0.00  0.00    +0.008 A 
ATOM     36  C   UNL     1      17.131 -14.812  -0.353  0.00  0.00    +0.001 A 
ATOM     37  C   UNL     1      17.020 -15.990  -1.072  0.00  0.00    +0.000 A 
ATOM     38  C   UNL     1      15.859 -16.278  -1.768  0.00  0.00    +0.001 A 
ATOM     39  C   UNL     1      14.800 -15.395  -1.745  0.00  0.00    +0.008 A 
ENDBRANCH  33  34
ENDBRANCH  29  32
ENDBRANCH  10  28
TORSDOF 6
