REMARK  Name = ZINC16182194
REMARK  8 active torsions:
REMARK  status: ('A' for Active; 'I' for Inactive)
REMARK    1  A    between atoms: C_4  and  C_7
REMARK    2  A    between atoms: C_7  and  N_8
REMARK    3  A    between atoms: N_8  and  C_9
REMARK    4  A    between atoms: C_9  and  N_11
REMARK    5  A    between atoms: N_11  and  C_12
REMARK    6  A    between atoms: C_14  and  S_24
REMARK    7  A    between atoms: C_17  and  N_18
REMARK    8  A    between atoms: S_24  and  N_27
REMARK                            x       y       z     vdW  Elec       q    Type
REMARK                         _______ _______ _______ _____ _____    ______ ____
ROOT
ATOM      1  C   UNL     1       3.551   1.666  -0.113  0.00  0.00    +0.056 A 
ATOM      2  C   UNL     1       3.591   3.052  -0.101  0.00  0.00    +0.053 A 
ATOM      3  C   UNL     1       4.803   3.709  -0.197  0.00  0.00    +0.107 A 
ATOM      4  C   UNL     1       5.978   2.989  -0.307  0.00  0.00    +0.030 A 
ATOM      5  C   UNL     1       5.948   1.607  -0.321  0.00  0.00    +0.027 A 
ATOM      6  C   UNL     1       4.736   0.939  -0.219  0.00  0.00    +0.051 A 
ENDROOT
BRANCH   6   7
ATOM      7  N   UNL     1       4.703  -0.460  -0.227  0.00  0.00    -0.328 N 
ATOM      8  C   UNL     1       5.389  -1.009   0.950  0.00  0.00    +0.105 C 
ATOM      9  C   UNL     1       5.208  -2.528   0.984  0.00  0.00    +0.019 C 
ATOM     10  C   UNL     1       5.787  -3.135  -0.297  0.00  0.00    +0.003 C 
ATOM     11  C   UNL     1       5.090  -2.511  -1.509  0.00  0.00    +0.019 C 
ATOM     12  C   UNL     1       5.274  -0.992  -1.471  0.00  0.00    +0.105 C 
ENDBRANCH   6   7
BRANCH   3  13
ATOM     13  S   UNL     1       4.851   5.471  -0.180  0.00  0.00    +0.061 S 
ATOM     14  O   UNL     1       6.055   5.850  -0.832  0.00  0.00    -0.153 OA
ATOM     15  O   UNL     1       3.575   5.916  -0.618  0.00  0.00    -0.153 OA
BRANCH  13  16
ATOM     16  N   UNL     1       5.000   5.942   1.400  0.00  0.00    -0.172 NA
ATOM     17  C   UNL     1       3.812   6.196   2.230  0.00  0.00    +0.137 C 
ATOM     18  C   UNL     1       3.965   5.409   3.542  0.00  0.00    +0.177 C 
ATOM     19  O   UNL     1       5.229   5.723   4.131  0.00  0.00    -0.377 OA
ATOM     20  C   UNL     1       6.356   5.346   3.336  0.00  0.00    +0.177 C 
ATOM     21  C   UNL     1       6.324   6.124   2.015  0.00  0.00    +0.137 C 
ENDBRANCH  13  16
ENDBRANCH   3  13
BRANCH   1  22
ATOM     22  N   UNL     1       2.323   0.998  -0.015  0.00  0.00    -0.295 N 
ATOM     23  H   UNL     1       2.221   0.259   0.606  0.00  0.00    +0.154 HD
BRANCH  22  24
ATOM     24  C   UNL     1       1.283   1.381  -0.782  0.00  0.00    +0.135 C 
ATOM     25  S   UNL     1       1.428   2.753  -1.796  0.00  0.00    -0.019 S 
BRANCH  24  26
ATOM     26  N   UNL     1       0.130   0.685  -0.750  0.00  0.00    -0.322 N 
ATOM     27  H   UNL     1       0.048  -0.092  -0.176  0.00  0.00    +0.148 HD
BRANCH  26  28
ATOM     28  C   UNL     1      -0.998   1.099  -1.589  0.00  0.00    +0.138 C 
BRANCH  28  32
ATOM     29  C   UNL     1      -4.279  -1.569  -0.979  0.00  0.00    +0.000 A 
ATOM     30  C   UNL     1      -4.151  -0.440  -0.192  0.00  0.00    +0.000 A 
ATOM     31  C   UNL     1      -3.089   0.423  -0.389  0.00  0.00    +0.005 A 
ATOM     32  C   UNL     1      -2.155   0.158  -1.374  0.00  0.00    -0.030 A 
ATOM     33  C   UNL     1      -2.287  -0.969  -2.164  0.00  0.00    +0.005 A 
ATOM     34  C   UNL     1      -3.346  -1.835  -1.964  0.00  0.00    +0.000 A 
ENDBRANCH  28  32
ENDBRANCH  26  28
ENDBRANCH  24  26
ENDBRANCH  22  24
ENDBRANCH   1  22
TORSDOF 8
