REMARK  Name = ZINC14655029
REMARK  10 active torsions:
REMARK  status: ('A' for Active; 'I' for Inactive)
REMARK    1  A    between atoms: C_1  and  C_2
REMARK    2  A    between atoms: C_2  and  O_3
REMARK    3  A    between atoms: O_3  and  C_4
REMARK    4  A    between atoms: C_9  and  C_10
REMARK    5  A    between atoms: N_12  and  N_13
REMARK    6  A    between atoms: C_14  and  C_16
REMARK    7  A    between atoms: C_19  and  C_22
REMARK    8  A    between atoms: C_22  and  C_23
REMARK    9  A    between atoms: C_22  and  C_24
REMARK   10  A    between atoms: C_22  and  C_25
REMARK                            x       y       z     vdW  Elec       q    Type
REMARK                         _______ _______ _______ _____ _____    ______ ____
ROOT
ATOM      1  C   UNL     1       3.635  -4.865  -0.058  0.00  0.00    +0.264 C 
ATOM      2  O   UNL     1       4.676  -4.237  -0.065  0.00  0.00    -0.269 OA
ATOM      3  N   UNL     1       2.455  -4.213  -0.043  0.00  0.00    -0.230 N 
ATOM      4  H   UNL     1       1.624  -4.714  -0.037  0.00  0.00    +0.173 HD
ENDROOT
BRANCH   1  10
ATOM      5  C   UNL     1       4.886  -7.022  -0.087  0.00  0.00    +0.133 A 
ATOM      6  C   UNL     1       4.901  -8.409  -0.089  0.00  0.00    +0.047 A 
ATOM      7  C   UNL     1       3.714  -9.114  -0.081  0.00  0.00    +0.019 A 
ATOM      8  C   UNL     1       2.501  -8.443  -0.065  0.00  0.00    +0.019 A 
ATOM      9  C   UNL     1       2.468  -7.065  -0.058  0.00  0.00    +0.032 A 
ATOM     10  C   UNL     1       3.662  -6.340  -0.066  0.00  0.00    +0.081 A 
ATOM     11 BR   UNL     1       0.883  -9.424  -0.054  0.00  0.00    -0.050 Br
BRANCH   5  12
ATOM     12  O   UNL     1       6.052  -6.328  -0.100  0.00  0.00    -0.491 OA
BRANCH  12  14
ATOM     13  C   UNL     1       8.461  -6.143  -0.134  0.00  0.00    +0.048 C 
ATOM     14  C   UNL     1       7.260  -7.091  -0.122  0.00  0.00    +0.226 C 
ENDBRANCH  12  14
ENDBRANCH   5  12
ENDBRANCH   1  10
BRANCH   3  15
ATOM     15  N   UNL     1       2.429  -2.812  -0.036  0.00  0.00    -0.230 N 
ATOM     16  C   UNL     1       1.250  -2.160  -0.021  0.00  0.00    +0.260 C 
ATOM     17  O   UNL     1       0.208  -2.788  -0.014  0.00  0.00    -0.269 OA
ATOM     18  H   UNL     1       3.260  -2.312  -0.041  0.00  0.00    +0.173 HD
BRANCH  16  19
ATOM     19  C   UNL     1       1.222  -0.682  -0.013  0.00  0.00    +0.038 A 
ATOM     20  C   UNL     1       0.002  -0.004   0.002  0.00  0.00    +0.013 A 
ATOM     21  C   UNL     1      -0.017   1.375   0.010  0.00  0.00    +0.005 A 
ATOM     22  C   UNL     1       1.170   2.086   0.002  0.00  0.00    -0.042 A 
ATOM     23  C   UNL     1       2.383   1.420  -0.013  0.00  0.00    +0.005 A 
ATOM     24  C   UNL     1       2.416   0.041  -0.021  0.00  0.00    +0.013 A 
BRANCH  22  25
ATOM     25  C   UNL     1       1.142   3.593   0.010  0.00  0.00    -0.013 C 
ATOM     26  C   UNL     1       0.423   4.083   1.268  0.00  0.00    +0.015 C 
ATOM     27  C   UNL     1       2.575   4.130  -0.001  0.00  0.00    +0.015 C 
ATOM     28  C   UNL     1       0.400   4.096  -1.230  0.00  0.00    +0.015 C 
ENDBRANCH  22  25
ENDBRANCH  16  19
ENDBRANCH   3  15
TORSDOF 6
