REMARK  Name = ZINC33253703
REMARK  8 active torsions:
REMARK  status: ('A' for Active; 'I' for Inactive)
REMARK    1  A    between atoms: C_1  and  C_2
REMARK    2  A    between atoms: C_5  and  S_8
REMARK    3  A    between atoms: S_8  and  N_11
REMARK    4  A    between atoms: N_11  and  C_12
REMARK    5  A    between atoms: C_15  and  N_21
REMARK    6  A    between atoms: C_16  and  C_18
REMARK    7  A    between atoms: C_24  and  C_27
REMARK    8  A    between atoms: C_32  and  C_33
REMARK                            x       y       z     vdW  Elec       q    Type
REMARK                         _______ _______ _______ _____ _____    ______ ____
ROOT
ATOM      1  C   UNL     1       2.405  -4.609   1.214  0.00  0.00    +0.049 A 
ATOM      2  C   UNL     1       2.172  -3.421   1.903  0.00  0.00    +0.026 A 
ATOM      3  C   UNL     1       2.884  -3.128   3.047  0.00  0.00    +0.026 A 
ATOM      4  C   UNL     1       3.841  -4.016   3.521  0.00  0.00    +0.044 A 
ATOM      5  C   UNL     1       4.082  -5.216   2.831  0.00  0.00    +0.086 A 
ATOM      6  C   UNL     1       3.349  -5.507   1.675  0.00  0.00    +0.041 A 
ENDROOT
BRANCH   4   7
ATOM      7  N   UNL     1       4.558  -3.719   4.674  0.00  0.00    -0.325 N 
ATOM      8  C   UNL     1       5.828  -2.975   4.615  0.00  0.00    +0.110 C 
ATOM      9  C   UNL     1       5.644  -1.665   5.386  0.00  0.00    +0.054 C 
ATOM     10  C   UNL     1       4.957  -1.921   6.694  0.00  0.00    -0.041 C 
ATOM     11  C   UNL     1       4.262  -2.998   6.968  0.00  0.00    -0.004 C 
ATOM     12  C   UNL     1       4.077  -4.129   6.001  0.00  0.00    +0.132 C 
BRANCH  10  13
ATOM     13  C   UNL     1       5.070  -0.888   7.746  0.00  0.00    -0.019 A 
ATOM     14  C   UNL     1       6.264  -0.737   8.454  0.00  0.00    +0.008 A 
ATOM     15  C   UNL     1       6.363   0.229   9.434  0.00  0.00    +0.001 A 
ATOM     16  C   UNL     1       5.283   1.047   9.715  0.00  0.00    +0.000 A 
ATOM     17  C   UNL     1       4.098   0.903   9.017  0.00  0.00    +0.004 A 
ATOM     18  C   UNL     1       3.987  -0.056   8.031  0.00  0.00    -0.043 A 
ATOM     19  C   UNL     1       2.697  -0.208   7.267  0.00  0.00    +0.044 C 
ENDBRANCH  10  13
ENDBRANCH   4   7
BRANCH   5  20
ATOM     20  C   UNL     1       5.092  -6.163   3.325  0.00  0.00    +0.388 C 
ATOM     21  O   UNL     1       5.299  -7.207   2.721  0.00  0.00    -0.241 OA
ATOM     22  O   UNL     1       5.727  -5.907   4.339  0.00  0.00    -0.241 OA
ENDBRANCH   5  20
BRANCH   1  23
ATOM     23  N   UNL     1       1.676  -4.896   0.053  0.00  0.00    -0.216 N 
ATOM     24  H   UNL     1       2.097  -4.814  -0.817  0.00  0.00    +0.174 HD
BRANCH  23  25
ATOM     25  S   UNL     1       0.095  -5.375   0.166  0.00  0.00    +0.072 S 
ATOM     26  O   UNL     1      -0.343  -5.644  -1.159  0.00  0.00    -0.150 OA
ATOM     27  O   UNL     1      -0.556  -4.433   1.007  0.00  0.00    -0.150 OA
BRANCH  25  32
ATOM     28  C   UNL     1       0.029 -10.644   3.105  0.00  0.00    +0.044 C 
ATOM     29  C   UNL     1       0.046  -9.328   2.371  0.00  0.00    -0.050 A 
ATOM     30  C   UNL     1      -0.159  -8.148   3.062  0.00  0.00    +0.005 A 
ATOM     31  C   UNL     1      -0.144  -6.941   2.389  0.00  0.00    +0.029 A 
ATOM     32  C   UNL     1       0.077  -6.914   1.025  0.00  0.00    +0.109 A 
ATOM     33  C   UNL     1       0.282  -8.093   0.334  0.00  0.00    +0.029 A 
ATOM     34  C   UNL     1       0.272  -9.300   1.008  0.00  0.00    +0.005 A 
ENDBRANCH  25  32
ENDBRANCH  23  25
ENDBRANCH   1  23
TORSDOF 6
