REMARK  Name = ZINC08788923
REMARK  6 active torsions:
REMARK  status: ('A' for Active; 'I' for Inactive)
REMARK    1  A    between atoms: C_1  and  O_2
REMARK    2  A    between atoms: O_2  and  C_3
REMARK    3  A    between atoms: C_6  and  C_9
REMARK    4  A    between atoms: C_9  and  N_10
REMARK    5  A    between atoms: C_15  and  C_31
REMARK    6  A    between atoms: C_31  and  C_32
REMARK                            x       y       z     vdW  Elec       q    Type
REMARK                         _______ _______ _______ _____ _____    ______ ____
ROOT
ATOM      1  N   UNL     1       5.196   6.153  -0.489  0.00  0.00    -0.237 N 
ATOM      2  C   UNL     1       3.904   6.346  -0.199  0.00  0.00    +0.224 C 
ATOM      3  O   UNL     1       3.458   6.554   0.908  0.00  0.00    -0.275 OA
ATOM      4  C   UNL     1       3.088   6.266  -1.469  0.00  0.00    +0.073 C 
ATOM      5  C   UNL     1       2.207   4.999  -1.430  0.00  0.00    -0.053 C 
ATOM      6  C   UNL     1       3.815   4.571  -3.069  0.00  0.00    +0.050 C 
ATOM      7  C   UNL     1       4.154   5.978  -2.564  0.00  0.00    +0.088 C 
ATOM      8  C   UNL     1       5.450   5.939  -1.785  0.00  0.00    +0.225 C 
ATOM      9  O   UNL     1       6.547   5.744  -2.261  0.00  0.00    -0.275 OA
ATOM     10  C   UNL     1       3.010   4.620  -4.336  0.00  0.00    -0.028 A 
ATOM     11  C   UNL     1       1.789   5.168  -4.663  0.00  0.00    +0.004 A 
ATOM     12  C   UNL     1       1.297   5.046  -5.950  0.00  0.00    +0.000 A 
ATOM     13  C   UNL     1       2.035   4.374  -6.908  0.00  0.00    +0.002 A 
ATOM     14  C   UNL     1       3.258   3.823  -6.585  0.00  0.00    +0.023 A 
ATOM     15  C   UNL     1       3.760   3.940  -5.291  0.00  0.00    +0.036 A 
ATOM     16  N   UNL     1       4.950   3.475  -4.728  0.00  0.00    -0.286 N 
ATOM     17  C   UNL     1       5.058   3.801  -3.426  0.00  0.00    +0.211 C 
ATOM     18  O   UNL     1       5.978   3.528  -2.684  0.00  0.00    -0.277 OA
ATOM     19  H   UNL     1       5.622   2.976  -5.219  0.00  0.00    +0.155 HD
ATOM     20  N   UNL     1       3.066   3.953  -1.990  0.00  0.00    +0.394 N 
ATOM     21  H   UNL     1       2.495   3.180  -2.351  0.00  0.00    -0.083 HD
ATOM     22  H   UNL     1       3.707   3.598  -1.270  0.00  0.00    -0.083 HD
ENDROOT
BRANCH   1  23
ATOM     23  C   UNL     1       6.248   6.174   0.531  0.00  0.00    +0.151 C 
BRANCH  23  27
ATOM     24  C   UNL     1       7.737  10.157   0.960  0.00  0.00    +0.120 A 
ATOM     25  C   UNL     1       6.671   9.726   1.736  0.00  0.00    +0.046 A 
ATOM     26  C   UNL     1       6.191   8.439   1.595  0.00  0.00    +0.009 A 
ATOM     27  C   UNL     1       6.773   7.579   0.682  0.00  0.00    -0.029 A 
ATOM     28  C   UNL     1       7.840   8.004  -0.088  0.00  0.00    +0.009 A 
ATOM     29  C   UNL     1       8.319   9.293   0.044  0.00  0.00    +0.046 A 
BRANCH  24  31
ATOM     30  C   UNL     1       9.311  11.798   0.265  0.00  0.00    +0.277 C 
ATOM     31  O   UNL     1       8.211  11.423   1.097  0.00  0.00    -0.495 OA
ENDBRANCH  24  31
ENDBRANCH  23  27
ENDBRANCH   1  23
BRANCH   5  32
ATOM     32  C   UNL     1       1.801   4.678   0.009  0.00  0.00    +0.022 C 
BRANCH  32  33
ATOM     33  C   UNL     1       0.844   3.513   0.013  0.00  0.00    -0.024 A 
ATOM     34  C   UNL     1      -0.496   3.582   0.026  0.00  0.00    +0.087 A 
ATOM     35  N   UNL     1      -1.028   2.321   0.019  0.00  0.00    -0.360 N 
ATOM     36  H   UNL     1      -1.976   2.116   0.021  0.00  0.00    +0.165 HD
ATOM     37  C   UNL     1      -0.017   1.387   0.010  0.00  0.00    +0.047 A 
ATOM     38  C   UNL     1       1.200   2.093   0.002  0.00  0.00    +0.003 A 
ATOM     39  C   UNL     1       2.410   1.395  -0.014  0.00  0.00    +0.010 A 
ATOM     40  C   UNL     1       2.405   0.029  -0.021  0.00  0.00    +0.001 A 
ATOM     41  C   UNL     1       1.207  -0.672  -0.013  0.00  0.00    +0.002 A 
ATOM     42  C   UNL     1       0.002  -0.004   0.002  0.00  0.00    +0.026 A 
ENDBRANCH  32  33
ENDBRANCH   5  32
TORSDOF 5
