REMARK  Name = ZINC40388614
REMARK  6 active torsions:
REMARK  status: ('A' for Active; 'I' for Inactive)
REMARK    1  A    between atoms: C_1  and  C_2
REMARK    2  A    between atoms: C_5  and  N_9
REMARK    3  A    between atoms: C_7  and  C_8
REMARK    4  A    between atoms: C_10  and  C_12
REMARK    5  A    between atoms: C_28  and  C_35
REMARK    6  A    between atoms: C_31  and  C_34
REMARK                            x       y       z     vdW  Elec       q    Type
REMARK                         _______ _______ _______ _____ _____    ______ ____
ROOT
ATOM      1  C   UNL     1      -0.016  -6.342  -1.007  0.00  0.00    +0.122 C 
ATOM      2  C   UNL     1      -1.305  -6.777  -0.308  0.00  0.00    +0.114 C 
ATOM      3  C   UNL     1      -1.497  -8.261  -0.477  0.00  0.00    +0.219 C 
ATOM      4  O   UNL     1      -1.961  -8.914   0.433  0.00  0.00    -0.275 OA
ATOM      5  N   UNL     1      -1.160  -8.870  -1.627  0.00  0.00    -0.270 N 
ATOM      6  C   UNL     1      -0.533  -8.171  -2.644  0.00  0.00    +0.138 A 
ATOM      7  C   UNL     1       0.029  -6.932  -2.391  0.00  0.00    +0.069 A 
ATOM      8  C   UNL     1       0.640  -6.235  -3.439  0.00  0.00    +0.258 A 
ATOM      9  O   UNL     1       1.135  -5.135  -3.250  0.00  0.00    -0.267 OA
ATOM     10  N   UNL     1       0.671  -6.804  -4.663  0.00  0.00    -0.295 N 
ATOM     11  H   UNL     1       1.076  -6.331  -5.407  0.00  0.00    +0.172 HD
ATOM     12  C   UNL     1       0.135  -8.040  -4.854  0.00  0.00    +0.200 A 
ATOM     13  N   UNL     1      -0.442  -8.698  -3.870  0.00  0.00    -0.200 NA
ATOM     14  N   UNL     1       0.197  -8.613  -6.096  0.00  0.00    -0.301 N 
ATOM     15  C   UNL     1       0.733  -7.862  -7.240  0.00  0.00    +0.111 C 
ATOM     16  C   UNL     1       1.843  -8.690  -7.896  0.00  0.00    +0.004 C 
ATOM     17  C   UNL     1       1.299 -10.075  -8.252  0.00  0.00    +0.009 C 
ATOM     18  C   UNL     1       0.851 -10.792  -6.976  0.00  0.00    +0.004 C 
ATOM     19  C   UNL     1      -0.265  -9.991  -6.309  0.00  0.00    +0.111 C 
ATOM     20  C   UNL     1       0.338 -12.190  -7.330  0.00  0.00    +0.009 C 
ATOM     21  C   UNL     1       2.322  -7.986  -9.167  0.00  0.00    +0.009 C 
ATOM     22  H   UNL     1      -1.360  -9.811  -1.746  0.00  0.00    +0.156 HD
ENDROOT
BRANCH   1  24
ATOM     23  N   UNL     1       1.078  -4.160  -0.609  0.00  0.00    -0.285 N 
ATOM     24  C   UNL     1       0.023  -4.839  -1.101  0.00  0.00    +0.225 C 
ATOM     25  O   UNL     1      -0.896  -4.240  -1.618  0.00  0.00    -0.275 OA
ATOM     26  H   UNL     1       1.846  -4.641  -0.263  0.00  0.00    +0.155 HD
BRANCH  23  31
ATOM     27  C   UNL     1       1.031   1.513  -0.563  0.00  0.00    +0.044 C 
ATOM     28  C   UNL     1       1.043   0.006  -0.576  0.00  0.00    -0.047 A 
ATOM     29  C   UNL     1      -0.137  -0.695  -0.406  0.00  0.00    +0.005 A 
ATOM     30  C   UNL     1      -0.128  -2.076  -0.417  0.00  0.00    +0.023 A 
ATOM     31  C   UNL     1       1.067  -2.761  -0.598  0.00  0.00    +0.034 A 
ATOM     32  C   UNL     1       2.249  -2.054  -0.769  0.00  0.00    +0.027 A 
ATOM     33  C   UNL     1       2.234  -0.672  -0.762  0.00  0.00    -0.046 A 
ATOM     34  C   UNL     1       3.516   0.096  -0.953  0.00  0.00    +0.044 C 
ENDBRANCH  23  31
ENDBRANCH   1  24
TORSDOF 2
