REMARK  Name = ZINC64058280
REMARK  8 active torsions:
REMARK  status: ('A' for Active; 'I' for Inactive)
REMARK    1  A    between atoms: C_1  and  C_2
REMARK    2  A    between atoms: C_2  and  N_3
REMARK    3  A    between atoms: N_3  and  C_4
REMARK    4  A    between atoms: C_7  and  S_23
REMARK    5  A    between atoms: C_9  and  N_10
REMARK    6  A    between atoms: C_11  and  C_13
REMARK    7  A    between atoms: C_13  and  C_14
REMARK    8  A    between atoms: S_23  and  N_26
REMARK                            x       y       z     vdW  Elec       q    Type
REMARK                         _______ _______ _______ _____ _____    ______ ____
ROOT
ATOM      1  C   UNL     1       0.873  -1.875   1.396  0.00  0.00    +0.049 A 
ATOM      2  C   UNL     1       0.365  -2.784   0.480  0.00  0.00    +0.027 A 
ATOM      3  C   UNL     1       0.519  -4.141   0.696  0.00  0.00    +0.030 A 
ATOM      4  C   UNL     1       1.179  -4.595   1.823  0.00  0.00    +0.107 A 
ATOM      5  C   UNL     1       1.689  -3.696   2.740  0.00  0.00    +0.053 A 
ATOM      6  C   UNL     1       1.543  -2.333   2.530  0.00  0.00    +0.056 A 
ENDROOT
BRANCH   6   7
ATOM      7  N   UNL     1       2.064  -1.419   3.456  0.00  0.00    -0.284 N 
ATOM      8  C   UNL     1       2.063  -1.717   4.770  0.00  0.00    +0.221 C 
ATOM      9  O   UNL     1       1.686  -2.808   5.144  0.00  0.00    -0.275 OA
ATOM     10  H   UNL     1       2.425  -0.572   3.151  0.00  0.00    +0.155 HD
BRANCH   8  11
ATOM     11  C   UNL     1       2.529  -0.695   5.775  0.00  0.00    +0.129 C 
BRANCH  11  12
ATOM     12  C   UNL     1       2.429  -1.273   7.163  0.00  0.00    -0.033 C 
ATOM     13  C   UNL     1       3.415  -1.876   7.866  0.00  0.00    -0.001 A 
ATOM     14  C   UNL     1       4.821  -2.163   7.560  0.00  0.00    +0.010 A 
ATOM     15  C   UNL     1       5.578  -2.795   8.485  0.00  0.00    +0.001 A 
ATOM     16  C   UNL     1       5.054  -3.182   9.726  0.00  0.00    +0.002 A 
ATOM     17  C   UNL     1       3.772  -2.953  10.080  0.00  0.00    +0.026 A 
ATOM     18  C   UNL     1       2.886  -2.294   9.184  0.00  0.00    +0.043 A 
ATOM     19  N   UNL     1       1.622  -1.964   9.291  0.00  0.00    -0.380 N 
ATOM     20  C   UNL     1       1.207  -1.292   8.055  0.00  0.00    +0.145 C 
ATOM     21  H   UNL     1       1.056  -2.132  10.061  0.00  0.00    +0.160 HD
ENDBRANCH  11  12
ENDBRANCH   8  11
ENDBRANCH   6   7
BRANCH   4  22
ATOM     22  S   UNL     1       1.371  -6.326   2.090  0.00  0.00    +0.061 S 
ATOM     23  O   UNL     1       1.546  -6.504   3.489  0.00  0.00    -0.153 OA
ATOM     24  O   UNL     1       0.330  -6.967   1.365  0.00  0.00    -0.153 OA
BRANCH  22  25
ATOM     25  N   UNL     1       2.794  -6.778   1.374  0.00  0.00    -0.172 NA
ATOM     26  C   UNL     1       2.831  -7.213  -0.031  0.00  0.00    +0.137 C 
ATOM     27  C   UNL     1       3.929  -6.424  -0.753  0.00  0.00    +0.177 C 
ATOM     28  O   UNL     1       5.151  -6.540  -0.021  0.00  0.00    -0.377 OA
ATOM     29  C   UNL     1       5.098  -5.989   1.297  0.00  0.00    +0.177 C 
ATOM     30  C   UNL     1       4.061  -6.750   2.123  0.00  0.00    +0.137 C 
ENDBRANCH  22  25
ENDBRANCH   4  22
BRANCH   1  31
ATOM     31  N   UNL     1       0.719  -0.501   1.179  0.00  0.00    -0.343 N 
ATOM     32  H   UNL     1       1.078   0.134   1.819  0.00  0.00    +0.146 HD
BRANCH  31  34
ATOM     33  C   UNL     1      -0.015   1.508  -0.007  0.00  0.00    +0.024 C 
ATOM     34  C   UNL     1       0.014  -0.022  -0.012  0.00  0.00    +0.098 C 
ENDBRANCH  31  34
ENDBRANCH   1  31
TORSDOF 7
