REMARK  Name = ZINC00700943
REMARK  10 active torsions:
REMARK  status: ('A' for Active; 'I' for Inactive)
REMARK    1  A    between atoms: C_1  and  C_2
REMARK    2  A    between atoms: C_5  and  N_9
REMARK    3  A    between atoms: C_7  and  C_8
REMARK    4  A    between atoms: C_10  and  C_12
REMARK    5  A    between atoms: C_15  and  C_17
REMARK    6  A    between atoms: C_17  and  N_18
REMARK    7  A    between atoms: N_18  and  C_19
REMARK    8  A    between atoms: N_18  and  C_27
REMARK    9  A    between atoms: C_19  and  C_20
REMARK   10  A    between atoms: C_27  and  C_28
REMARK                            x       y       z     vdW  Elec       q    Type
REMARK                         _______ _______ _______ _____ _____    ______ ____
ROOT
ATOM      1  N   UNL     1       4.925  -1.546   1.676  0.00  0.00    +0.389 N 
ATOM      2  H   UNL     1       4.605  -2.500   1.232  0.00  0.00    -0.080 HD
ENDROOT
BRANCH   1   3
ATOM      3  C   UNL     1       6.366  -1.636   1.950  0.00  0.00    -0.014 C 
BRANCH   3   7
ATOM      4  C   UNL     1       7.187  -5.227   2.560  0.00  0.00    +0.133 A 
ATOM      5  C   UNL     1       7.199  -5.145   3.929  0.00  0.00    +0.079 A 
ATOM      6  S   UNL     1       6.828  -3.469   4.179  0.00  0.00    -0.082 S 
ATOM      7  C   UNL     1       6.684  -2.996   2.517  0.00  0.00    +0.063 A 
ATOM      8  N   UNL     1       6.915  -4.113   1.878  0.00  0.00    -0.241 NA
BRANCH   4  10
ATOM      9  N   UNL     1       7.538  -6.531   0.524  0.00  0.00    -0.280 N 
ATOM     10  C   UNL     1       7.456  -6.499   1.869  0.00  0.00    +0.267 C 
ATOM     11  O   UNL     1       7.605  -7.521   2.512  0.00  0.00    -0.268 OA
ATOM     12  H   UNL     1       7.518  -5.593  -0.051  0.00  0.00    +0.155 HD
BRANCH   9  17
ATOM     13  C   UNL     1       7.981 -11.501  -2.174  0.00  0.00    +0.044 C 
ATOM     14  C   UNL     1       7.864 -10.180  -1.457  0.00  0.00    -0.047 A 
ATOM     15  C   UNL     1       7.138 -10.095  -0.283  0.00  0.00    +0.005 A 
ATOM     16  C   UNL     1       7.034  -8.888   0.380  0.00  0.00    +0.023 A 
ATOM     17  C   UNL     1       7.647  -7.756  -0.141  0.00  0.00    +0.034 A 
ATOM     18  C   UNL     1       8.374  -7.845  -1.321  0.00  0.00    +0.027 A 
ATOM     19  C   UNL     1       8.481  -9.057  -1.975  0.00  0.00    -0.046 A 
ATOM     20  C   UNL     1       9.270  -9.154  -3.256  0.00  0.00    +0.044 C 
ENDBRANCH   9  17
ENDBRANCH   4  10
ENDBRANCH   3   7
ENDBRANCH   1   3
BRANCH   1  21
ATOM     21  C   UNL     1       4.640  -0.479   0.707  0.00  0.00    -0.042 C 
BRANCH  21  22
ATOM     22  C   UNL     1       5.107  -0.905  -0.661  0.00  0.00    -0.064 A 
ATOM     23  C   UNL     1       6.347  -0.505  -1.124  0.00  0.00    +0.003 A 
ATOM     24  C   UNL     1       6.778  -0.900  -2.376  0.00  0.00    +0.020 A 
ATOM     25  C   UNL     1       5.963  -1.687  -3.172  0.00  0.00    +0.041 A 
ATOM     26  C   UNL     1       4.720  -2.082  -2.710  0.00  0.00    +0.020 A 
ATOM     27  C   UNL     1       4.293  -1.690  -1.456  0.00  0.00    +0.003 A 
ATOM     28 CL   UNL     1       6.501  -2.178  -4.747  0.00  0.00    -0.084 Cl
ENDBRANCH  21  22
ENDBRANCH   1  21
BRANCH   1  29
ATOM     29  C   UNL     1       4.164  -1.347   2.916  0.00  0.00    -0.042 C 
BRANCH  29  30
ATOM     30  C   UNL     1       2.692  -1.504   2.633  0.00  0.00    -0.060 A 
ATOM     31  C   UNL     1       2.098  -2.748   2.740  0.00  0.00    +0.005 A 
ATOM     32  C   UNL     1       0.748  -2.897   2.480  0.00  0.00    +0.050 A 
ATOM     33  C   UNL     1      -0.012  -1.799   2.113  0.00  0.00    +0.166 A 
ATOM     34  C   UNL     1       0.586  -0.546   2.007  0.00  0.00    +0.166 A 
ATOM     35  C   UNL     1       1.939  -0.404   2.268  0.00  0.00    +0.051 A 
ATOM     36  O   UNL     1      -0.364   0.361   1.635  0.00  0.00    -0.453 OA
ATOM     37  C   UNL     1      -1.628  -0.270   1.913  0.00  0.00    +0.466 C 
ATOM     38  O   UNL     1      -1.337  -1.677   1.809  0.00  0.00    -0.453 OA
ENDBRANCH  29  30
ENDBRANCH   1  29
TORSDOF 8
