REMARK  Name = ZINC66642399
REMARK  12 active torsions:
REMARK  status: ('A' for Active; 'I' for Inactive)
REMARK    1  A    between atoms: C_1  and  C_2
REMARK    2  A    between atoms: C_5  and  C_12
REMARK    3  A    between atoms: C_8  and  C_10
REMARK    4  A    between atoms: C_8  and  C_11
REMARK    5  A    between atoms: C_12  and  C_13
REMARK    6  A    between atoms: N_15  and  C_16
REMARK    7  A    between atoms: C_16  and  C_17
REMARK    8  A    between atoms: C_17  and  C_18
REMARK    9  A    between atoms: C_18  and  C_19
REMARK   10  A    between atoms: C_21  and  C_24
REMARK   11  A    between atoms: C_24  and  C_25
REMARK   12  A    between atoms: C_24  and  C_26
REMARK                            x       y       z     vdW  Elec       q    Type
REMARK                         _______ _______ _______ _____ _____    ______ ____
ROOT
ATOM      1  C   UNL     1      -4.342  -0.152   0.136  0.00  0.00    +0.213 C 
ATOM      2  O   UNL     1      -3.824   0.803  -0.404  0.00  0.00    -0.276 OA
ATOM      3  N   UNL     1      -5.623  -0.469  -0.141  0.00  0.00    -0.315 N 
ATOM      4  H   UNL     1      -6.037  -1.232   0.291  0.00  0.00    +0.149 HD
ENDROOT
BRANCH   1   5
ATOM      5  C   UNL     1      -3.555  -0.983   1.116  0.00  0.00    +0.099 C 
BRANCH   5   9
ATOM      6  C   UNL     1      -0.019   1.524   0.010  0.00  0.00    +0.007 C 
ATOM      7  C   UNL     1       0.002  -0.004   0.002  0.00  0.00    -0.013 C 
ATOM      8  C   UNL     1      -1.412  -0.559  -0.088  0.00  0.00    +0.007 C 
ATOM      9  C   UNL     1      -2.138  -0.412   1.248  0.00  0.00    -0.002 C 
ATOM     10  C   UNL     1      -1.378  -1.199   2.313  0.00  0.00    +0.010 C 
ATOM     11  C   UNL     1       0.034  -0.651   2.488  0.00  0.00    -0.034 C 
ATOM     12  C   UNL     1       0.787  -0.561   1.172  0.00  0.00    +0.009 C 
ATOM     13  C   UNL     1       0.803  -1.619   3.413  0.00  0.00    +0.011 C 
ATOM     14  C   UNL     1      -0.015   0.710   3.188  0.00  0.00    +0.011 C 
ENDBRANCH   5   9
ENDBRANCH   1   5
BRANCH   3  15
ATOM     15  C   UNL     1      -6.388   0.339  -1.093  0.00  0.00    +0.104 C 
BRANCH  15  16
ATOM     16  C   UNL     1      -7.802  -0.231  -1.226  0.00  0.00    +0.028 C 
BRANCH  16  17
ATOM     17  C   UNL     1      -8.601   0.613  -2.220  0.00  0.00    +0.100 C 
BRANCH  17  18
ATOM     18  C   UNL     1      -9.993   0.052  -2.350  0.00  0.00    +0.227 A 
ATOM     19  N   UNL     1     -11.026   0.394  -1.631  0.00  0.00    -0.196 NA
ATOM     20  C   UNL     1     -12.103  -0.302  -2.013  0.00  0.00    +0.174 A 
ATOM     21  N   UNL     1     -11.767  -1.099  -2.986  0.00  0.00    -0.061 NA
ATOM     22  O   UNL     1     -10.385  -0.880  -3.229  0.00  0.00    -0.338 OA
BRANCH  20  23
ATOM     23  C   UNL     1     -13.480  -0.183  -1.414  0.00  0.00    +0.054 C 
ATOM     24  C   UNL     1     -14.472   0.248  -2.497  0.00  0.00    +0.015 C 
ATOM     25  C   UNL     1     -13.907  -1.536  -0.841  0.00  0.00    +0.015 C 
ENDBRANCH  20  23
ENDBRANCH  17  18
ENDBRANCH  16  17
ENDBRANCH  15  16
ENDBRANCH   3  15
TORSDOF 7
