REMARK  Name = ZINC63626138
REMARK  6 active torsions:
REMARK  status: ('A' for Active; 'I' for Inactive)
REMARK    1  A    between atoms: C_4  and  C_7
REMARK    2  A    between atoms: C_17  and  N_19
REMARK    3  A    between atoms: C_23  and  C_26
REMARK    4  A    between atoms: N_28  and  C_29
REMARK    5  A    between atoms: C_29  and  C_30
REMARK    6  A    between atoms: C_30  and  C_31
REMARK                            x       y       z     vdW  Elec       q    Type
REMARK                         _______ _______ _______ _____ _____    ______ ____
ROOT
ATOM      1  N   UNL     1       3.062  -2.557   1.320  0.00  0.00    -0.287 NA
ATOM      2  C   UNL     1       3.744  -1.969   2.480  0.00  0.00    +0.085 C 
ATOM      3  C   UNL     1       2.953  -2.282   3.751  0.00  0.00    +0.016 C 
ATOM      4  C   UNL     1       2.841  -3.800   3.917  0.00  0.00    +0.015 C 
ATOM      5  C   UNL     1       2.171  -4.393   2.675  0.00  0.00    +0.089 C 
ATOM      6  C   UNL     1       2.985  -4.019   1.434  0.00  0.00    +0.098 C 
ENDROOT
BRANCH   1  17
ATOM      7  C   UNL     1       3.648  -0.649  -0.037  0.00  0.00    -0.005 C 
ATOM      8  C   UNL     1       4.861   0.036  -0.144  0.00  0.00    +0.003 A 
ATOM      9  C   UNL     1       4.888   1.444  -0.239  0.00  0.00    +0.030 A 
ATOM     10  C   UNL     1       6.083   2.086  -0.342  0.00  0.00    +0.042 A 
ATOM     11  C   UNL     1       7.286   1.381  -0.355  0.00  0.00    +0.022 A 
ATOM     12  C   UNL     1       7.323   0.023  -0.268  0.00  0.00    +0.025 A 
ATOM     13  C   UNL     1       6.126  -0.707  -0.158  0.00  0.00    +0.041 A 
ATOM     14  N   UNL     1       6.165  -2.041  -0.071  0.00  0.00    -0.283 N 
ATOM     15  C   UNL     1       5.089  -2.796   0.033  0.00  0.00    +0.239 C 
ATOM     16  O   UNL     1       5.200  -4.006   0.108  0.00  0.00    -0.273 OA
ATOM     17  C   UNL     1       3.718  -2.161   0.066  0.00  0.00    +0.175 C 
ATOM     18 CL   UNL     1       6.111   3.818  -0.459  0.00  0.00    -0.084 Cl
ATOM     19  H   UNL     1       7.032  -2.477  -0.085  0.00  0.00    +0.155 HD
BRANCH   7  23
ATOM     20  C   UNL     1      -0.017   1.380   0.012  0.00  0.00    +0.000 A 
ATOM     21  C   UNL     1       0.274   0.511  -1.027  0.00  0.00    +0.001 A 
ATOM     22  C   UNL     1       1.476  -0.161  -1.053  0.00  0.00    +0.008 A 
ATOM     23  C   UNL     1       2.408   0.038  -0.021  0.00  0.00    -0.019 A 
ATOM     24  C   UNL     1       2.103   0.921   1.027  0.00  0.00    +0.008 A 
ATOM     25  C   UNL     1       0.895   1.583   1.034  0.00  0.00    +0.001 A 
ENDBRANCH   7  23
ENDBRANCH   1  17
BRANCH   5  26
ATOM     26  C   UNL     1       2.110  -5.894   2.804  0.00  0.00    +0.217 C 
ATOM     27  O   UNL     1       2.661  -6.596   1.982  0.00  0.00    -0.275 OA
ATOM     28  N   UNL     1       1.444  -6.455   3.832  0.00  0.00    -0.315 N 
ATOM     29  H   UNL     1       1.003  -5.893   4.489  0.00  0.00    +0.149 HD
BRANCH  28  30
ATOM     30  C   UNL     1       1.384  -7.913   3.957  0.00  0.00    +0.108 C 
BRANCH  30  31
ATOM     31  C   UNL     1       0.574  -8.286   5.200  0.00  0.00    +0.052 C 
BRANCH  31  32
ATOM     32  C   UNL     1       0.513  -9.786   5.330  0.00  0.00    -0.040 C 
ATOM     33  C   UNL     1       1.325 -10.572   6.073  0.00  0.00    -0.001 A 
ATOM     34  C   UNL     1       2.465 -10.277   6.949  0.00  0.00    +0.010 A 
ATOM     35  C   UNL     1       3.094 -11.298   7.574  0.00  0.00    +0.001 A 
ATOM     36  C   UNL     1       2.686 -12.628   7.405  0.00  0.00    +0.002 A 
ATOM     37  C   UNL     1       1.648 -12.978   6.616  0.00  0.00    +0.026 A 
ATOM     38  C   UNL     1       0.913 -11.985   5.912  0.00  0.00    +0.043 A 
ATOM     39  N   UNL     1      -0.113 -12.069   5.101  0.00  0.00    -0.380 N 
ATOM     40  C   UNL     1      -0.473 -10.717   4.660  0.00  0.00    +0.144 C 
ATOM     41  H   UNL     1      -0.562 -12.888   4.839  0.00  0.00    +0.160 HD
ENDBRANCH  31  32
ENDBRANCH  30  31
ENDBRANCH  28  30
ENDBRANCH   5  26
TORSDOF 6
