REMARK  Name = ZINC16183243
REMARK  6 active torsions:
REMARK  status: ('A' for Active; 'I' for Inactive)
REMARK    1  A    between atoms: C_3  and  C_10
REMARK    2  A    between atoms: C_5  and  N_7
REMARK    3  A    between atoms: C_12  and  C_24
REMARK    4  A    between atoms: C_14  and  C_19
REMARK    5  A    between atoms: C_14  and  O_23
REMARK    6  A    between atoms: C_24  and  C_26
REMARK                            x       y       z     vdW  Elec       q    Type
REMARK                         _______ _______ _______ _____ _____    ______ ____
ROOT
ATOM      1  C   UNL     1      -0.965   2.116   0.077  0.00  0.00    +0.120 C 
ATOM      2  C   UNL     1      -1.538   2.198   1.496  0.00  0.00    +0.144 C 
ATOM      3  C   UNL     1      -0.782   3.287   2.265  0.00  0.00    +0.243 C 
ATOM      4  N   UNL     1      -0.865   4.545   1.522  0.00  0.00    -0.264 N 
ATOM      5  C   UNL     1      -0.980   4.559   0.185  0.00  0.00    +0.302 C 
ATOM      6  O   UNL     1      -1.035   5.632  -0.384  0.00  0.00    -0.253 OA
ATOM      7  N   UNL     1      -1.038   3.437  -0.549  0.00  0.00    -0.292 N 
ATOM      8  H   UNL     1      -0.837   5.385   2.005  0.00  0.00    +0.153 HD
ATOM      9  H   UNL     1      -1.130   3.502  -1.512  0.00  0.00    +0.151 HD
ENDROOT
BRANCH   1  12
ATOM     10  C   UNL     1       2.810   2.186   0.120  0.00  0.00    +0.003 A 
ATOM     11  C   UNL     1       1.491   2.598   0.069  0.00  0.00    +0.005 A 
ATOM     12  C   UNL     1       0.472   1.667   0.140  0.00  0.00    -0.024 A 
ATOM     13  C   UNL     1       0.772   0.322   0.262  0.00  0.00    +0.038 A 
ATOM     14  C   UNL     1       2.090  -0.090   0.313  0.00  0.00    +0.127 A 
ATOM     15  C   UNL     1       3.109   0.842   0.242  0.00  0.00    +0.033 A 
BRANCH  14  16
ATOM     16  N   UNL     1       2.411  -1.529   0.443  0.00  0.00    +0.056 N 
ATOM     17  O   UNL     1       1.513  -2.350   0.505  0.00  0.00    -0.126 OA
ATOM     18  O   UNL     1       3.572  -1.893   0.488  0.00  0.00    -0.126 OA
ENDBRANCH  14  16
ENDBRANCH   1  12
BRANCH   3  19
ATOM     19  C   UNL     1      -1.413   3.467   3.647  0.00  0.00    +0.436 C 
ATOM     20  F   UNL     1      -1.494   2.226   4.288  0.00  0.00    -0.166 F 
ATOM     21  F   UNL     1      -0.624   4.335   4.410  0.00  0.00    -0.166 F 
ATOM     22  F   UNL     1      -2.697   4.005   3.508  0.00  0.00    -0.166 F 
ENDBRANCH   3  19
BRANCH   3  23
ATOM     23  O   UNL     1       0.587   2.906   2.409  0.00  0.00    -0.364 OA
ATOM     24  H   UNL     1       1.126   3.551   2.888  0.00  0.00    +0.212 HD
ENDBRANCH   3  23
BRANCH   2  25
ATOM     25  C   UNL     1      -3.003   2.543   1.430  0.00  0.00    +0.173 C 
ATOM     26  O   UNL     1      -3.349   3.666   1.129  0.00  0.00    -0.292 OA
BRANCH  25  27
ATOM     27  C   UNL     1      -4.015   1.518   1.732  0.00  0.00    +0.018 A 
ATOM     28  C   UNL     1      -3.626   0.196   1.968  0.00  0.00    +0.013 A 
ATOM     29  C   UNL     1      -4.579  -0.758   2.253  0.00  0.00    +0.020 A 
ATOM     30  C   UNL     1      -5.920  -0.412   2.298  0.00  0.00    +0.041 A 
ATOM     31  C   UNL     1      -6.312   0.896   2.060  0.00  0.00    +0.020 A 
ATOM     32  C   UNL     1      -5.370   1.861   1.778  0.00  0.00    +0.013 A 
ATOM     33 CL   UNL     1      -7.114  -1.621   2.652  0.00  0.00    -0.084 Cl
ENDBRANCH  25  27
ENDBRANCH   2  25
TORSDOF 6
