REMARK  Name = ZINC14839578
REMARK  4 active torsions:
REMARK  status: ('A' for Active; 'I' for Inactive)
REMARK    1  A    between atoms: C_3  and  N_16
REMARK    2  A    between atoms: C_5  and  S_7
REMARK    3  A    between atoms: S_7  and  N_10
REMARK    4  A    between atoms: C_17  and  C_19
REMARK                            x       y       z     vdW  Elec       q    Type
REMARK                         _______ _______ _______ _____ _____    ______ ____
ROOT
ATOM      1  C   UNL     1      -0.013   1.375  -0.180  0.00  0.00    +0.004 A 
ATOM      2  C   UNL     1       1.175   2.081  -0.183  0.00  0.00    +0.023 A 
ATOM      3  C   UNL     1       2.380   1.411  -0.019  0.00  0.00    +0.036 A 
ATOM      4  C   UNL     1       2.387   0.032   0.148  0.00  0.00    +0.052 A 
ATOM      5  C   UNL     1       1.197  -0.668   0.150  0.00  0.00    +0.114 A 
ATOM      6  C   UNL     1      -0.002   0.003  -0.014  0.00  0.00    +0.029 A 
ENDROOT
BRANCH   3   7
ATOM      7  N   UNL     1       3.583   2.123  -0.021  0.00  0.00    -0.281 N 
ATOM      8  C   UNL     1       3.627   3.374   0.478  0.00  0.00    +0.249 C 
ATOM      9  O   UNL     1       2.647   3.848   1.017  0.00  0.00    -0.270 OA
ATOM     10  H   UNL     1       4.387   1.716  -0.382  0.00  0.00    +0.155 HD
BRANCH   8  11
ATOM     11  C   UNL     1       4.868   4.169   0.370  0.00  0.00    +0.054 A 
ATOM     12  C   UNL     1       5.995   3.630  -0.254  0.00  0.00    +0.052 A 
ATOM     13  C   UNL     1       7.151   4.379  -0.351  0.00  0.00    +0.124 A 
ATOM     14  C   UNL     1       7.194   5.663   0.168  0.00  0.00    +0.039 A 
ATOM     15  C   UNL     1       6.081   6.203   0.787  0.00  0.00    +0.019 A 
ATOM     16  C   UNL     1       4.917   5.466   0.886  0.00  0.00    +0.030 A 
ATOM     17 BR   UNL     1       3.394   6.210   1.726  0.00  0.00    -0.050 Br
ATOM     18  F   UNL     1       8.242   3.859  -0.954  0.00  0.00    -0.205 F 
ENDBRANCH   8  11
ENDBRANCH   3   7
BRANCH   5  19
ATOM     19  S   UNL     1       1.205  -2.417   0.361  0.00  0.00    +0.100 S 
ATOM     20  O   UNL     1       0.002  -2.902  -0.220  0.00  0.00    -0.146 OA
ATOM     21  O   UNL     1       2.487  -2.870  -0.051  0.00  0.00    -0.146 OA
BRANCH  19  22
ATOM     22  N   UNL     1       1.098  -2.715   1.987  0.00  0.00    -0.118 NA
ATOM     23  C   UNL     1       1.084  -3.932   2.422  0.00  0.00    +0.117 C 
ATOM     24  N   UNL     1       1.158  -5.053   1.638  0.00  0.00    -0.331 N 
ATOM     25  C   UNL     1       1.600  -6.191   2.459  0.00  0.00    +0.103 C 
ATOM     26  C   UNL     1       1.059  -5.881   3.873  0.00  0.00    +0.026 C 
ATOM     27  C   UNL     1       0.991  -4.339   3.876  0.00  0.00    +0.074 C 
ATOM     28  H   UNL     1       0.952  -5.090   0.691  0.00  0.00    +0.147 HD
ENDBRANCH  19  22
ENDBRANCH   5  19
TORSDOF 4
