REMARK  Name = ZINC24177345
REMARK  8 active torsions:
REMARK  status: ('A' for Active; 'I' for Inactive)
REMARK    1  A    between atoms: C_1  and  C_2
REMARK    2  A    between atoms: C_5  and  C_9
REMARK    3  A    between atoms: C_6  and  C_8
REMARK    4  A    between atoms: N_11  and  N_12
REMARK    5  A    between atoms: C_13  and  C_15
REMARK    6  A    between atoms: C_18  and  S_21
REMARK    7  A    between atoms: S_21  and  N_24
REMARK    8  A    between atoms: N_24  and  C_25
REMARK                            x       y       z     vdW  Elec       q    Type
REMARK                         _______ _______ _______ _____ _____    ______ ____
ROOT
ATOM      1  C   UNL     1      -3.552   3.090  -2.823  0.00  0.00    +0.038 A 
ATOM      2  C   UNL     1      -2.775   4.019  -2.130  0.00  0.00    +0.015 A 
ATOM      3  C   UNL     1      -2.240   3.688  -0.902  0.00  0.00    +0.029 A 
ATOM      4  C   UNL     1      -2.473   2.437  -0.358  0.00  0.00    +0.105 A 
ATOM      5  C   UNL     1      -3.238   1.509  -1.042  0.00  0.00    +0.029 A 
ATOM      6  C   UNL     1      -3.783   1.830  -2.268  0.00  0.00    +0.015 A 
ENDROOT
BRANCH   1   8
ATOM      7  N   UNL     1      -4.879   2.539  -4.805  0.00  0.00    -0.230 N 
ATOM      8  C   UNL     1      -4.129   3.439  -4.138  0.00  0.00    +0.260 C 
ATOM      9  O   UNL     1      -3.927   4.537  -4.619  0.00  0.00    -0.269 OA
ATOM     10  H   UNL     1      -5.062   1.546  -4.370  0.00  0.00    +0.173 HD
BRANCH   7  13
ATOM     11  C   UNL     1      -6.176   1.970  -6.719  0.00  0.00    +0.260 C 
ATOM     12  O   UNL     1      -6.379   0.872  -6.238  0.00  0.00    -0.269 OA
ATOM     13  N   UNL     1      -5.426   2.870  -6.052  0.00  0.00    -0.230 N 
ATOM     14  H   UNL     1      -5.243   3.864  -6.487  0.00  0.00    +0.173 HD
BRANCH  11  19
ATOM     15  C   UNL     1      -8.421   3.328 -11.841  0.00  0.00    +0.044 C 
ATOM     16  C   UNL     1      -7.833   2.973 -10.499  0.00  0.00    -0.050 A 
ATOM     17  C   UNL     1      -7.174   3.938  -9.758  0.00  0.00    +0.004 A 
ATOM     18  C   UNL     1      -6.633   3.619  -8.530  0.00  0.00    +0.013 A 
ATOM     19  C   UNL     1      -6.753   2.319  -8.034  0.00  0.00    +0.041 A 
ATOM     20  C   UNL     1      -7.415   1.349  -8.789  0.00  0.00    -0.038 A 
ATOM     21  C   UNL     1      -7.955   1.683 -10.014  0.00  0.00    +0.007 A 
ATOM     22  C   UNL     1      -7.544  -0.058  -8.264  0.00  0.00    +0.044 C 
ENDBRANCH  11  19
ENDBRANCH   7  13
ENDBRANCH   1   8
BRANCH   4  23
ATOM     23  S   UNL     1      -1.786   2.021   1.211  0.00  0.00    +0.059 S 
ATOM     24  O   UNL     1      -1.695   0.604   1.252  0.00  0.00    -0.153 OA
ATOM     25  O   UNL     1      -0.655   2.862   1.395  0.00  0.00    -0.153 OA
BRANCH  23  26
ATOM     26  N   UNL     1      -2.893   2.459   2.362  0.00  0.00    -0.185 NA
ATOM     27  H   UNL     1      -2.712   3.359   2.967  0.00  0.00    +0.148 HD
BRANCH  26  28
ATOM     28  C   UNL     1      -4.193   1.786   2.421  0.00  0.00    +0.099 C 
ATOM     29  C   UNL     1      -5.243   2.618   1.667  0.00  0.00    +0.044 C 
ATOM     30  C   UNL     1      -6.663   2.094   1.990  0.00  0.00    +0.167 C 
ATOM     31  S   UNL     1      -6.458   1.383   3.674  0.00  0.00    -0.029 S 
ATOM     32  O   UNL     1      -6.712  -0.014   3.620  0.00  0.00    -0.174 OA
ATOM     33  O   UNL     1      -7.168   2.188   4.605  0.00  0.00    -0.174 OA
ATOM     34  C   UNL     1      -4.650   1.655   3.902  0.00  0.00    +0.186 C 
ENDBRANCH  26  28
ENDBRANCH  23  26
ENDBRANCH   4  23
TORSDOF 6
