REMARK  Name = ZINC21737554
REMARK  10 active torsions:
REMARK  status: ('A' for Active; 'I' for Inactive)
REMARK    1  A    between atoms: C_1  and  C_2
REMARK    2  A    between atoms: C_2  and  N_3
REMARK    3  A    between atoms: C_7  and  S_9
REMARK    4  A    between atoms: S_9  and  C_10
REMARK    5  A    between atoms: C_10  and  C_11
REMARK    6  A    between atoms: N_13  and  C_14
REMARK    7  A    between atoms: C_15  and  C_27
REMARK    8  A    between atoms: C_16  and  C_26
REMARK    9  A    between atoms: C_17  and  C_25
REMARK   10  A    between atoms: N_18  and  C_19
REMARK                            x       y       z     vdW  Elec       q    Type
REMARK                         _______ _______ _______ _____ _____    ______ ____
ROOT
ATOM      1  C   UNL     1       0.063  -9.455   0.784  0.00  0.00    +0.229 C 
ATOM      2  O   UNL     1      -0.679 -10.386   0.551  0.00  0.00    -0.275 OA
ATOM      3  N   UNL     1       1.173  -9.647   1.525  0.00  0.00    -0.270 N 
ATOM      4  H   UNL     1       1.720  -8.889   1.784  0.00  0.00    +0.156 HD
ENDROOT
BRANCH   3   5
ATOM      5  C   UNL     1       1.532 -10.928   1.917  0.00  0.00    +0.124 A 
ATOM      6  C   UNL     1       1.272 -12.099   1.220  0.00  0.00    +0.095 A 
ATOM      7  C   UNL     1       1.841 -13.185   2.026  0.00  0.00    -0.011 A 
ATOM      8  C   UNL     1       2.385 -12.614   3.113  0.00  0.00    +0.022 A 
ATOM      9  N   UNL     1       2.206 -11.258   3.049  0.00  0.00    -0.329 N 
ATOM     10  C   UNL     1       3.087 -13.349   4.226  0.00  0.00    +0.064 C 
ATOM     11  C   UNL     1       1.820 -14.656   1.698  0.00  0.00    +0.047 C 
BRANCH   9  12
ATOM     12  C   UNL     1       2.672 -10.302   4.057  0.00  0.00    +0.089 C 
ATOM     13  C   UNL     1       1.492  -9.457   4.541  0.00  0.00    +0.025 C 
ATOM     14  C   UNL     1       1.978  -8.458   5.594  0.00  0.00    +0.002 C 
ATOM     15  C   UNL     1       3.041  -7.546   4.979  0.00  0.00    +0.000 C 
ATOM     16  C   UNL     1       4.221  -8.391   4.494  0.00  0.00    +0.002 C 
ATOM     17  C   UNL     1       3.734  -9.389   3.442  0.00  0.00    +0.025 C 
ENDBRANCH   9  12
BRANCH   6  18
ATOM     18  C   UNL     1       0.586 -12.223  -0.032  0.00  0.00    +0.103 C 
ATOM     19  N   UNL     1       0.042 -12.321  -1.024  0.00  0.00    -0.191 NA
ENDBRANCH   6  18
ENDBRANCH   3   5
BRANCH   1  20
ATOM     20  C   UNL     1      -0.256  -8.085   0.246  0.00  0.00    +0.172 C 
BRANCH  20  21
ATOM     21  S   UNL     1      -1.718  -8.180  -0.824  0.00  0.00    -0.088 S 
BRANCH  21  26
ATOM     22  N   UNL     1      -3.211  -3.046  -3.063  0.00  0.00    -0.322 N 
ATOM     23  C   UNL     1      -2.672  -4.153  -2.419  0.00  0.00    +0.182 A 
ATOM     24  N   UNL     1      -1.625  -4.227  -1.621  0.00  0.00    -0.125 NA
ATOM     25  N   UNL     1      -1.260  -5.439  -1.082  0.00  0.00    -0.133 NA
ATOM     26  C   UNL     1      -1.958  -6.521  -1.366  0.00  0.00    +0.160 A 
ATOM     27  S   UNL     1      -3.218  -5.854  -2.443  0.00  0.00    -0.025 S 
ATOM     28  H   UNL     1      -3.998  -3.145  -3.623  0.00  0.00    +0.148 HD
BRANCH  22  30
ATOM     29  C   UNL     1      -3.374  -0.692  -3.708  0.00  0.00    +0.024 C 
ATOM     30  C   UNL     1      -2.592  -1.728  -2.899  0.00  0.00    +0.100 C 
ENDBRANCH  22  30
ENDBRANCH  21  26
ENDBRANCH  20  21
ENDBRANCH   1  20
TORSDOF 7
