REMARK  Name = ZINC05065652
REMARK  11 active torsions:
REMARK  status: ('A' for Active; 'I' for Inactive)
REMARK    1  A    between atoms: C_1  and  C_2
REMARK    2  A    between atoms: C_2  and  O_3
REMARK    3  A    between atoms: O_3  and  C_4
REMARK    4  A    between atoms: C_4  and  C_5
REMARK    5  A    between atoms: C_4  and  O_29
REMARK    6  A    between atoms: C_5  and  N_6
REMARK    7  A    between atoms: C_7  and  C_17
REMARK    8  A    between atoms: N_19  and  C_20
REMARK    9  A    between atoms: C_26  and  C_28
REMARK   10  A    between atoms: O_29  and  C_30
REMARK   11  A    between atoms: C_30  and  C_31
REMARK                            x       y       z     vdW  Elec       q    Type
REMARK                         _______ _______ _______ _____ _____    ______ ____
ROOT
ATOM      1  N   UNL     1       4.091   2.818  -0.089  0.00  0.00    -0.278 N 
ATOM      2  C   UNL     1       3.593   1.605   0.552  0.00  0.00    +0.209 C 
ATOM      3  C   UNL     1       2.164   1.808   0.981  0.00  0.00    +0.049 A 
ATOM      4  C   UNL     1       1.271   0.873   1.345  0.00  0.00    +0.025 A 
ATOM      5  C   UNL     1       0.067   1.539   1.655  0.00  0.00    +0.019 A 
ATOM      6  C   UNL     1       0.278   2.861   1.476  0.00  0.00    +0.086 A 
ATOM      7  N   UNL     1       1.560   3.034   1.060  0.00  0.00    -0.340 N 
ATOM      8  C   UNL     1       2.236   4.292   0.736  0.00  0.00    +0.217 C 
ATOM      9  C   UNL     1       3.503   4.010  -0.016  0.00  0.00    +0.236 C 
ATOM     10  O   UNL     1       4.029   4.934  -0.600  0.00  0.00    -0.274 OA
ENDROOT
BRANCH   2  11
ATOM     11  C   UNL     1       4.440   1.294   1.759  0.00  0.00    +0.240 C 
ATOM     12  O   UNL     1       5.366   2.019   2.055  0.00  0.00    -0.273 OA
ATOM     13  N   UNL     1       4.168   0.208   2.511  0.00  0.00    -0.310 N 
ATOM     14  H   UNL     1       3.428  -0.372   2.275  0.00  0.00    +0.149 HD
BRANCH  13  15
ATOM     15  C   UNL     1       4.991  -0.095   3.684  0.00  0.00    +0.076 C 
ATOM     16  C   UNL     1       4.468   0.690   4.890  0.00  0.00    +0.022 C 
ATOM     17  C   UNL     1       5.328   0.373   6.116  0.00  0.00    +0.002 C 
ATOM     18  C   UNL     1       5.259  -1.126   6.414  0.00  0.00    +0.000 C 
ATOM     19  C   UNL     1       5.781  -1.910   5.208  0.00  0.00    +0.005 C 
ATOM     20  C   UNL     1       4.922  -1.594   3.982  0.00  0.00    +0.006 C 
ATOM     21  C   UNL     1       5.444  -2.378   2.777  0.00  0.00    +0.009 C 
ENDBRANCH  13  15
ENDBRANCH   2  11
BRANCH   1  22
ATOM     22  C   UNL     1       5.328   2.716  -0.867  0.00  0.00    +0.170 C 
BRANCH  22  23
ATOM     23  C   UNL     1       4.989   2.373  -2.319  0.00  0.00    +0.267 C 
BRANCH  23  24
ATOM     24  O   UNL     1       4.295   1.125  -2.364  0.00  0.00    -0.350 OA
BRANCH  24  26
ATOM     25  C   UNL     1       3.613  -0.858  -3.567  0.00  0.00    +0.034 C 
ATOM     26  C   UNL     1       4.510   0.382  -3.566  0.00  0.00    +0.159 C 
ENDBRANCH  24  26
ENDBRANCH  23  24
BRANCH  23  27
ATOM     27  O   UNL     1       4.162   3.399  -2.871  0.00  0.00    -0.350 OA
BRANCH  27  28
ATOM     28  C   UNL     1       4.040   3.345  -4.294  0.00  0.00    +0.159 C 
ATOM     29  C   UNL     1       3.277   4.575  -4.787  0.00  0.00    +0.034 C 
ENDBRANCH  27  28
ENDBRANCH  23  27
ENDBRANCH  22  23
ENDBRANCH   1  22
TORSDOF 8
