REMARK  Name = ZINC08203682
REMARK  6 active torsions:
REMARK  status: ('A' for Active; 'I' for Inactive)
REMARK    1  A    between atoms: C_1  and  C_2
REMARK    2  A    between atoms: C_2  and  C_9
REMARK    3  A    between atoms: C_9  and  C_10
REMARK    4  A    between atoms: C_10  and  C_11
REMARK    5  A    between atoms: C_14  and  O_17
REMARK    6  A    between atoms: O_17  and  C_18
REMARK                            x       y       z     vdW  Elec       q    Type
REMARK                         _______ _______ _______ _____ _____    ______ ____
ROOT
ATOM      1  C   UNL     1       1.107   2.084   0.033  0.00  0.00    -0.047 A 
ATOM      2  C   UNL     1      -0.057   1.356   0.191  0.00  0.00    +0.007 A 
ATOM      3  C   UNL     1      -0.017  -0.025   0.174  0.00  0.00    +0.046 A 
ATOM      4  C   UNL     1       1.193  -0.681  -0.003  0.00  0.00    +0.130 A 
ATOM      5  C   UNL     1       2.360   0.053  -0.162  0.00  0.00    +0.046 A 
ATOM      6  C   UNL     1       2.314   1.433  -0.144  0.00  0.00    +0.007 A 
ENDROOT
BRANCH   1   7
ATOM      7  C   UNL     1       1.061   3.590   0.052  0.00  0.00    +0.038 C 
BRANCH   7   8
ATOM      8  C   UNL     1       1.247   4.088   1.487  0.00  0.00    +0.039 C 
BRANCH   8  10
ATOM      9  C   UNL     1      -0.164   6.118   1.029  0.00  0.00    +0.041 C 
ATOM     10  C   UNL     1       1.200   5.617   1.507  0.00  0.00    +0.110 C 
ATOM     11  C   UNL     1       1.504   6.142   2.896  0.00  0.00    +0.244 C 
ATOM     12  O   UNL     1       0.874   5.936   3.911  0.00  0.00    -0.273 OA
ATOM     13  N   UNL     1       2.620   6.887   2.768  0.00  0.00    -0.238 N 
ATOM     14  C   UNL     1       3.059   6.905   1.504  0.00  0.00    +0.307 C 
ATOM     15  O   UNL     1       4.048   7.510   1.141  0.00  0.00    -0.252 OA
ATOM     16  N   UNL     1       2.281   6.180   0.679  0.00  0.00    -0.285 N 
ATOM     17  H   UNL     1       3.052   7.353   3.501  0.00  0.00    +0.159 HD
ATOM     18  H   UNL     1       2.408   6.052  -0.274  0.00  0.00    +0.151 HD
ENDBRANCH   8  10
ENDBRANCH   7   8
ENDBRANCH   1   7
BRANCH   4  19
ATOM     19  O   UNL     1       1.235  -2.039  -0.020  0.00  0.00    -0.437 OA
BRANCH  19  20
ATOM     20  C   UNL     1       0.729  -2.677  -1.102  0.00  0.00    +0.232 A 
ATOM     21  C   UNL     1       0.633  -4.094  -1.122  0.00  0.00    +0.070 A 
ATOM     22  C   UNL     1       1.011  -5.065  -0.109  0.00  0.00    +0.023 A 
ATOM     23  C   UNL     1       0.826  -6.370  -0.352  0.00  0.00    +0.048 A 
ATOM     24  S   UNL     1       0.107  -6.393  -1.984  0.00  0.00    -0.077 S 
ATOM     25  C   UNL     1       0.086  -4.649  -2.300  0.00  0.00    +0.115 A 
ATOM     26  N   UNL     1      -0.294  -3.886  -3.306  0.00  0.00    -0.228 NA
ATOM     27  C   UNL     1      -0.175  -2.575  -3.230  0.00  0.00    +0.226 A 
ATOM     28  N   UNL     1       0.323  -1.989  -2.155  0.00  0.00    -0.201 NA
ENDBRANCH  19  20
ENDBRANCH   4  19
TORSDOF 5
