REMARK  Name = ZINC03532430
REMARK  9 active torsions:
REMARK  status: ('A' for Active; 'I' for Inactive)
REMARK    1  A    between atoms: C_1  and  C_2
REMARK    2  A    between atoms: C_2  and  C_4
REMARK    3  A    between atoms: C_2  and  S_10
REMARK    4  A    between atoms: S_10  and  C_11
REMARK    5  A    between atoms: N_24  and  C_25
REMARK    6  A    between atoms: C_25  and  C_26
REMARK    7  A    between atoms: C_26  and  C_27
REMARK    8  A    between atoms: C_27  and  C_28
REMARK    9  A    between atoms: C_27  and  C_29
REMARK                            x       y       z     vdW  Elec       q    Type
REMARK                         _______ _______ _______ _____ _____    ______ ____
ROOT
ATOM      1  C   UNL     1      -2.365  -0.093  -1.525  0.00  0.00    +0.173 A 
ATOM      2  N   UNL     1      -1.607   0.597  -2.354  0.00  0.00    -0.216 NA
ATOM      3  C   UNL     1      -2.083   1.015  -3.521  0.00  0.00    +0.117 A 
ATOM      4  C   UNL     1      -3.400   0.748  -3.931  0.00  0.00    +0.076 A 
ATOM      5  C   UNL     1      -3.781   1.274  -5.243  0.00  0.00    -0.023 A 
ATOM      6  C   UNL     1      -2.840   1.957  -5.925  0.00  0.00    -0.004 A 
ATOM      7  S   UNL     1      -1.410   1.942  -4.878  0.00  0.00    -0.073 S 
ATOM      8  C   UNL     1      -2.978   2.590  -7.276  0.00  0.00    +0.043 C 
ATOM      9  C   UNL     1      -4.243   2.034  -7.945  0.00  0.00    +0.005 C 
ATOM     10  C   UNL     1      -5.397   2.097  -6.941  0.00  0.00    +0.005 C 
ATOM     11  C   UNL     1      -5.175   1.071  -5.829  0.00  0.00    +0.037 C 
ATOM     12  C   UNL     1      -4.199  -0.003  -3.011  0.00  0.00    +0.263 A 
ATOM     13  O   UNL     1      -5.354  -0.283  -3.281  0.00  0.00    -0.267 OA
ATOM     14  N   UNL     1      -3.655  -0.402  -1.847  0.00  0.00    -0.287 N 
ENDROOT
BRANCH   1  15
ATOM     15  S   UNL     1      -1.700  -0.632   0.015  0.00  0.00    -0.075 S 
BRANCH  15  17
ATOM     16  C   UNL     1      -0.019   1.526   0.010  0.00  0.00    +0.029 C 
ATOM     17  C   UNL     1       0.002  -0.004   0.002  0.00  0.00    +0.137 C 
BRANCH  17  18
ATOM     18  C   UNL     1       0.731  -0.503   1.223  0.00  0.00    +0.233 C 
ATOM     19  O   UNL     1       0.105  -0.891   2.186  0.00  0.00    -0.274 OA
ATOM     20  N   UNL     1       2.079  -0.519   1.244  0.00  0.00    -0.239 N 
ATOM     21  C   UNL     1       2.730  -0.965   2.336  0.00  0.00    +0.303 C 
ATOM     22  O   UNL     1       2.103  -1.354   3.301  0.00  0.00    -0.253 OA
ATOM     23  N   UNL     1       4.078  -0.981   2.357  0.00  0.00    -0.313 N 
ATOM     24  H   UNL     1       2.579  -0.208   0.473  0.00  0.00    +0.159 HD
ATOM     25  H   UNL     1       4.579  -0.670   1.586  0.00  0.00    +0.146 HD
ATOM     26  H   UNL     1       4.547  -1.302   3.143  0.00  0.00    +0.146 HD
ENDBRANCH  17  18
ENDBRANCH  15  17
ENDBRANCH   1  15
BRANCH  14  27
ATOM     27  C   UNL     1      -4.465  -1.176  -0.903  0.00  0.00    +0.127 C 
BRANCH  27  28
ATOM     28  C   UNL     1      -5.193  -0.223   0.046  0.00  0.00    +0.025 C 
BRANCH  28  29
ATOM     29  C   UNL     1      -6.039  -1.031   1.032  0.00  0.00    -0.016 C 
ATOM     30  C   UNL     1      -5.121  -1.868   1.925  0.00  0.00    +0.007 C 
ATOM     31  C   UNL     1      -6.863  -0.078   1.899  0.00  0.00    +0.007 C 
ENDBRANCH  28  29
ENDBRANCH  27  28
ENDBRANCH  14  27
TORSDOF 6
