REMARK  Name = ZINC02720916
REMARK  5 active torsions:
REMARK  status: ('A' for Active; 'I' for Inactive)
REMARK    1  A    between atoms: C_4  and  N_7
REMARK    2  A    between atoms: C_8  and  C_10
REMARK    3  A    between atoms: C_10  and  S_11
REMARK    4  A    between atoms: S_11  and  C_12
REMARK    5  A    between atoms: N_26  and  C_27
REMARK                            x       y       z     vdW  Elec       q    Type
REMARK                         _______ _______ _______ _____ _____    ______ ____
ROOT
ATOM      1  C   UNL     1       2.786   3.724  -0.413  0.00  0.00    +0.177 A 
ATOM      2  N   UNL     1       1.487   3.916  -0.364  0.00  0.00    -0.221 NA
ATOM      3  C   UNL     1       0.648   2.907  -0.080  0.00  0.00    +0.104 A 
ATOM      4  C   UNL     1      -0.813   2.808   0.045  0.00  0.00    +0.026 A 
ATOM      5  C   UNL     1      -1.853   3.729  -0.087  0.00  0.00    +0.012 A 
ATOM      6  C   UNL     1      -3.146   3.327   0.094  0.00  0.00    +0.001 A 
ATOM      7  C   UNL     1      -3.434   2.006   0.409  0.00  0.00    +0.002 A 
ATOM      8  C   UNL     1      -2.424   1.081   0.544  0.00  0.00    +0.026 A 
ATOM      9  C   UNL     1      -1.098   1.468   0.358  0.00  0.00    +0.049 A 
ATOM     10  N   UNL     1       0.093   0.779   0.433  0.00  0.00    -0.349 N 
ATOM     11  H   UNL     1       0.177  -0.166   0.638  0.00  0.00    +0.166 HD
ATOM     12  C   UNL     1       1.153   1.632   0.169  0.00  0.00    +0.132 A 
ATOM     13  C   UNL     1       2.549   1.440   0.114  0.00  0.00    +0.283 A 
ATOM     14  O   UNL     1       3.035   0.340   0.324  0.00  0.00    -0.265 OA
ATOM     15  N   UNL     1       3.337   2.497  -0.177  0.00  0.00    -0.254 N 
ENDROOT
BRANCH  15  16
ATOM     16  C   UNL     1       4.728   2.334  -0.238  0.00  0.00    +0.052 A 
ATOM     17  C   UNL     1       5.539   2.921   0.723  0.00  0.00    +0.028 A 
ATOM     18  C   UNL     1       6.909   2.755   0.663  0.00  0.00    +0.022 A 
ATOM     19  C   UNL     1       7.473   2.012  -0.359  0.00  0.00    +0.041 A 
ATOM     20  C   UNL     1       6.667   1.430  -1.321  0.00  0.00    +0.022 A 
ATOM     21  C   UNL     1       5.296   1.589  -1.263  0.00  0.00    +0.028 A 
ATOM     22 CL   UNL     1       9.196   1.810  -0.434  0.00  0.00    -0.084 Cl
ENDBRANCH  15  16
BRANCH   1  23
ATOM     23  S   UNL     1       3.842   5.083  -0.790  0.00  0.00    -0.078 S 
BRANCH  23  24
ATOM     24  C   UNL     1       2.609   6.392  -0.996  0.00  0.00    +0.173 C 
BRANCH  24  26
ATOM     25  N   UNL     1       2.579   8.806  -1.534  0.00  0.00    -0.285 N 
ATOM     26  C   UNL     1       3.303   7.687  -1.334  0.00  0.00    +0.227 C 
ATOM     27  O   UNL     1       4.511   7.721  -1.427  0.00  0.00    -0.275 OA
ATOM     28  H   UNL     1       1.620   8.796  -1.392  0.00  0.00    +0.155 HD
BRANCH  25  32
ATOM     29  C   UNL     1       4.465  12.314  -2.758  0.00  0.00    +0.000 A 
ATOM     30  C   UNL     1       4.944  11.088  -3.184  0.00  0.00    +0.002 A 
ATOM     31  C   UNL     1       4.321   9.924  -2.780  0.00  0.00    +0.023 A 
ATOM     32  C   UNL     1       3.213   9.984  -1.945  0.00  0.00    +0.033 A 
ATOM     33  C   UNL     1       2.731  11.217  -1.523  0.00  0.00    +0.023 A 
ATOM     34  C   UNL     1       3.362  12.377  -1.927  0.00  0.00    +0.002 A 
ENDBRANCH  25  32
ENDBRANCH  24  26
ENDBRANCH  23  24
ENDBRANCH   1  23
TORSDOF 5
