REMARK  Name = ZINC64054284
REMARK  8 active torsions:
REMARK  status: ('A' for Active; 'I' for Inactive)
REMARK    1  A    between atoms: C_1  and  C_2
REMARK    2  A    between atoms: C_5  and  N_9
REMARK    3  A    between atoms: C_10  and  C_12
REMARK    4  A    between atoms: C_12  and  N_13
REMARK    5  A    between atoms: C_14  and  C_16
REMARK    6  A    between atoms: C_16  and  N_17
REMARK    7  A    between atoms: N_17  and  C_18
REMARK    8  A    between atoms: N_17  and  C_19
REMARK                            x       y       z     vdW  Elec       q    Type
REMARK                         _______ _______ _______ _____ _____    ______ ____
ROOT
ATOM      1  N   UNL     1      -0.234  -6.825  -2.571  0.00  0.00    -0.308 N 
ATOM      2  C   UNL     1      -0.329  -8.147  -2.818  0.00  0.00    +0.197 C 
ATOM      3  O   UNL     1      -0.333  -8.937  -1.897  0.00  0.00    -0.278 OA
ATOM      4  H   UNL     1      -0.231  -6.193  -3.307  0.00  0.00    +0.149 HD
ENDROOT
BRANCH   1   5
ATOM      5  C   UNL     1      -0.136  -6.343  -1.191  0.00  0.00    +0.200 C 
BRANCH   5   7
ATOM      6  N   UNL     1       0.057  -4.171  -0.023  0.00  0.00    -0.283 N 
ATOM      7  C   UNL     1      -0.042  -4.839  -1.190  0.00  0.00    +0.234 C 
ATOM      8  O   UNL     1      -0.055  -4.230  -2.238  0.00  0.00    -0.274 OA
ATOM      9  H   UNL     1       0.149  -4.660   0.809  0.00  0.00    +0.155 HD
BRANCH   6  14
ATOM     10  C   UNL     1      -0.064   1.502   0.016  0.00  0.00    +0.044 C 
ATOM     11  C   UNL     1      -0.031  -0.005   0.006  0.00  0.00    -0.049 A 
ATOM     12  C   UNL     1      -0.622  -0.701  -1.033  0.00  0.00    +0.005 A 
ATOM     13  C   UNL     1      -0.594  -2.082  -1.045  0.00  0.00    +0.025 A 
ATOM     14  C   UNL     1       0.028  -2.772  -0.014  0.00  0.00    +0.052 A 
ATOM     15  C   UNL     1       0.621  -2.070   1.029  0.00  0.00    +0.062 A 
ATOM     16  C   UNL     1       0.595  -0.688   1.032  0.00  0.00    +0.025 A 
ATOM     17 CL   UNL     1       1.401  -2.928   2.321  0.00  0.00    -0.082 Cl
ENDBRANCH   6  14
ENDBRANCH   5   7
ENDBRANCH   1   5
BRANCH   2  18
ATOM     18  C   UNL     1      -0.429  -8.643  -4.237  0.00  0.00    +0.019 C 
BRANCH  18  19
ATOM     19  N   UNL     1      -0.521 -10.109  -4.238  0.00  0.00    +0.387 N 
ATOM     20  C   UNL     1       0.728 -10.678  -3.716  0.00  0.00    -0.095 C 
ATOM     21  H   UNL     1      -1.292 -10.398  -3.655  0.00  0.00    -0.081 HD
BRANCH  19  22
ATOM     22  C   UNL     1      -0.739 -10.585  -5.611  0.00  0.00    -0.046 C 
ATOM     23  C   UNL     1      -0.823 -12.120  -5.611  0.00  0.00    +0.009 C 
ATOM     24  C   UNL     1      -1.361 -12.575  -6.998  0.00  0.00    +0.164 C 
ATOM     25  S   UNL     1      -2.661 -11.303  -7.290  0.00  0.00    -0.033 S 
ATOM     26  O   UNL     1      -3.904 -11.792  -6.805  0.00  0.00    -0.174 OA
ATOM     27  O   UNL     1      -2.566 -10.843  -8.631  0.00  0.00    -0.174 OA
ATOM     28  C   UNL     1      -2.056  -9.984  -6.160  0.00  0.00    +0.151 C 
ENDBRANCH  19  22
ENDBRANCH  18  19
ENDBRANCH   2  18
TORSDOF 6
