REMARK  Name = ZINC10003345
REMARK  9 active torsions:
REMARK  status: ('A' for Active; 'I' for Inactive)
REMARK    1  A    between atoms: C_1  and  N_2
REMARK    2  A    between atoms: N_7  and  C_10
REMARK    3  A    between atoms: N_11  and  C_21
REMARK    4  A    between atoms: N_14  and  C_15
REMARK    5  A    between atoms: C_15  and  C_16
REMARK    6  A    between atoms: C_16  and  C_18
REMARK    7  A    between atoms: C_16  and  O_20
REMARK    8  A    between atoms: C_18  and  O_19
REMARK    9  A    between atoms: C_21  and  C_22
REMARK                            x       y       z     vdW  Elec       q    Type
REMARK                         _______ _______ _______ _____ _____    ______ ____
ROOT
ATOM      1  C   UNL     1      -2.569   4.118   0.049  0.00  0.00    +0.155 C 
ATOM      2  N   UNL     1      -1.264   3.451   0.033  0.00  0.00    -0.280 N 
ATOM      3  C   UNL     1      -0.102   4.205   0.026  0.00  0.00    +0.170 A 
ATOM      4  C   UNL     1       1.123   3.547   0.010  0.00  0.00    +0.153 A 
ATOM      5  C   UNL     1       1.147   2.141   0.003  0.00  0.00    +0.282 A 
ATOM      6  O   UNL     1       2.209   1.543  -0.011  0.00  0.00    -0.265 OA
ATOM      7  N   UNL     1      -0.018   1.461   0.010  0.00  0.00    -0.262 N 
ATOM      8  C   UNL     1      -1.197   2.107   0.019  0.00  0.00    +0.333 A 
ATOM      9  O   UNL     1      -2.227   1.461   0.020  0.00  0.00    -0.246 OA
ATOM     10  C   UNL     1       0.002  -0.004   0.002  0.00  0.00    +0.157 C 
ATOM     11  N   UNL     1       2.098   4.535   0.006  0.00  0.00    -0.302 N 
ATOM     12  C   UNL     1       1.446   5.728   0.019  0.00  0.00    +0.198 A 
ATOM     13  N   UNL     1       0.146   5.516   0.030  0.00  0.00    -0.196 NA
ATOM     14  N   UNL     1       2.050   6.965   0.019  0.00  0.00    -0.312 N 
ATOM     15  H   UNL     1       3.018   7.032   0.010  0.00  0.00    +0.149 HD
ENDROOT
BRANCH  14  16
ATOM     16  C   UNL     1       1.232   8.180   0.034  0.00  0.00    +0.138 C 
BRANCH  16  17
ATOM     17  C   UNL     1       2.143   9.408   0.031  0.00  0.00    +0.157 C 
BRANCH  17  18
ATOM     18  O   UNL     1       2.979   9.384   1.189  0.00  0.00    -0.388 OA
ATOM     19  H   UNL     1       2.494   9.391   2.025  0.00  0.00    +0.210 HD
ENDBRANCH  17  18
BRANCH  17  20
ATOM     20  C   UNL     1       1.288  10.677   0.046  0.00  0.00    +0.188 C 
BRANCH  20  21
ATOM     21  O   UNL     1       2.134  11.823  -0.074  0.00  0.00    -0.392 OA
ATOM     22  H   UNL     1       1.658  12.665  -0.072  0.00  0.00    +0.210 HD
ENDBRANCH  20  21
ENDBRANCH  17  20
ENDBRANCH  16  17
ENDBRANCH  14  16
BRANCH  11  23
ATOM     23  C   UNL     1       3.549   4.332  -0.009  0.00  0.00    +0.160 C 
BRANCH  23  24
ATOM     24  C   UNL     1       4.033   4.271  -1.434  0.00  0.00    -0.028 A 
ATOM     25  C   UNL     1       4.094   3.056  -2.091  0.00  0.00    +0.006 A 
ATOM     26  C   UNL     1       4.533   2.999  -3.400  0.00  0.00    +0.015 A 
ATOM     27  C   UNL     1       4.921   4.157  -4.050  0.00  0.00    +0.018 A 
ATOM     28  C   UNL     1       4.865   5.371  -3.391  0.00  0.00    +0.015 A 
ATOM     29  C   UNL     1       4.421   5.428  -2.083  0.00  0.00    +0.006 A 
ATOM     30 BR   UNL     1       5.529   4.079  -5.839  0.00  0.00    -0.050 Br
ENDBRANCH  23  24
ENDBRANCH  11  23
TORSDOF 7
