REMARK  Name = ZINC28372659
REMARK  9 active torsions:
REMARK  status: ('A' for Active; 'I' for Inactive)
REMARK    1  A    between atoms: C_1  and  C_2
REMARK    2  A    between atoms: C_5  and  N_9
REMARK    3  A    between atoms: C_6  and  C_8
REMARK    4  A    between atoms: C_10  and  C_12
REMARK    5  A    between atoms: C_12  and  S_13
REMARK    6  A    between atoms: S_13  and  C_14
REMARK    7  A    between atoms: C_17  and  C_26
REMARK    8  A    between atoms: N_18  and  C_19
REMARK    9  A    between atoms: C_19  and  C_20
REMARK                            x       y       z     vdW  Elec       q    Type
REMARK                         _______ _______ _______ _____ _____    ______ ____
ROOT
ATOM      1  C   UNL     1      -3.912   0.299  -0.564  0.00  0.00    +0.192 A 
ATOM      2  N   UNL     1      -4.403   1.468  -0.222  0.00  0.00    -0.122 NA
ATOM      3  N   UNL     1      -3.449   2.293   0.025  0.00  0.00    -0.128 NA
ATOM      4  C   UNL     1      -2.289   1.704  -0.153  0.00  0.00    +0.167 A 
ATOM      5  N   UNL     1      -2.549   0.408  -0.532  0.00  0.00    -0.300 N 
ENDROOT
BRANCH   4   6
ATOM      6  C   UNL     1      -0.957   2.316   0.027  0.00  0.00    +0.044 A 
ATOM      7  C   UNL     1       0.100   2.223  -0.821  0.00  0.00    +0.095 A 
ATOM      8  N   UNL     1       1.156   2.926  -0.319  0.00  0.00    -0.360 N 
ATOM      9  H   UNL     1       2.104   2.968  -0.876  0.00  0.00    +0.165 HD
ATOM     10  C   UNL     1       0.816   3.500   0.887  0.00  0.00    +0.047 A 
ATOM     11  C   UNL     1      -0.515   3.144   1.161  0.00  0.00    +0.010 A 
ATOM     12  C   UNL     1      -1.129   3.590   2.330  0.00  0.00    +0.011 A 
ATOM     13  C   UNL     1      -0.425   4.379   3.213  0.00  0.00    +0.001 A 
ATOM     14  C   UNL     1       0.890   4.731   2.943  0.00  0.00    +0.002 A 
ATOM     15  C   UNL     1       1.510   4.298   1.791  0.00  0.00    +0.026 A 
ENDBRANCH   4   6
BRANCH   1  16
ATOM     16  S   UNL     1      -4.837  -1.140  -0.985  0.00  0.00    -0.077 S 
BRANCH  16  17
ATOM     17  C   UNL     1      -6.519  -0.499  -0.797  0.00  0.00    +0.173 C 
BRANCH  17  19
ATOM     18  N   UNL     1      -8.833  -1.339  -1.042  0.00  0.00    -0.285 N 
ATOM     19  C   UNL     1      -7.510  -1.589  -1.115  0.00  0.00    +0.227 C 
ATOM     20  O   UNL     1      -7.118  -2.690  -1.438  0.00  0.00    -0.275 OA
ATOM     21  H   UNL     1      -9.189  -0.322  -0.824  0.00  0.00    +0.155 HD
BRANCH  18  26
ATOM     22  C   UNL     1     -12.561  -5.536  -1.858  0.00  0.00    +0.044 C 
ATOM     23  C   UNL     1     -11.571  -4.421  -1.641  0.00  0.00    -0.050 A 
ATOM     24  C   UNL     1     -10.333  -4.469  -2.256  0.00  0.00    +0.005 A 
ATOM     25  C   UNL     1      -9.423  -3.449  -2.059  0.00  0.00    +0.024 A 
ATOM     26  C   UNL     1      -9.752  -2.374  -1.243  0.00  0.00    +0.036 A 
ATOM     27  C   UNL     1     -10.994  -2.332  -0.623  0.00  0.00    -0.029 A 
ATOM     28  C   UNL     1     -11.902  -3.353  -0.828  0.00  0.00    +0.008 A 
ATOM     29  C   UNL     1     -11.353  -1.172   0.268  0.00  0.00    +0.045 C 
ENDBRANCH  18  26
ENDBRANCH  17  19
ENDBRANCH  16  17
ENDBRANCH   1  16
BRANCH   5  30
ATOM     30  C   UNL     1      -1.570  -0.638  -0.839  0.00  0.00    +0.157 C 
BRANCH  30  31
ATOM     31  C   UNL     1      -1.130  -1.321   0.457  0.00  0.00    +0.138 C 
ATOM     32  C   UNL     1      -0.011  -2.342   0.158  0.00  0.00    +0.035 C 
ATOM     33  C   UNL     1      -0.380  -3.520   1.102  0.00  0.00    +0.031 C 
ATOM     34  C   UNL     1      -1.927  -3.442   1.081  0.00  0.00    +0.160 C 
ATOM     35  O   UNL     1      -2.231  -2.038   1.027  0.00  0.00    -0.375 OA
ENDBRANCH  30  31
ENDBRANCH   5  30
TORSDOF 7
