REMARK  Name = ZINC62641952
REMARK  2 active torsions:
REMARK  status: ('A' for Active; 'I' for Inactive)
REMARK    1  A    between atoms: C_12  and  C_14
REMARK    2  A    between atoms: C_20  and  C_22
REMARK                            x       y       z     vdW  Elec       q    Type
REMARK                         _______ _______ _______ _____ _____    ______ ____
ROOT
ATOM      1  C   UNL     1       0.652   2.163  -0.400  0.00  0.00    +0.007 C 
ATOM      2  C   UNL     1       2.169   2.349  -0.316  0.00  0.00    -0.009 C 
ATOM      3  C   UNL     1       2.633   1.888   1.066  0.00  0.00    +0.008 C 
ATOM      4  C   UNL     1       2.350   0.424   1.253  0.00  0.00    +0.007 C 
ATOM      5  C   UNL     1       0.910   0.053   0.938  0.00  0.00    +0.008 C 
ATOM      6  C   UNL     1       0.377   0.658  -0.346  0.00  0.00    -0.009 C 
ATOM      7  C   UNL     1       0.937   0.011  -1.604  0.00  0.00    +0.026 C 
ATOM      8  C   UNL     1       2.457   0.176  -1.655  0.00  0.00    +0.077 C 
ATOM      9  C   UNL     1       2.885   1.598  -1.415  0.00  0.00    +0.026 C 
ATOM     10  N   UNL     1       3.052  -0.792  -0.751  0.00  0.00    -0.290 N 
ATOM     11  C   UNL     1       3.342  -0.507   0.625  0.00  0.00    +0.112 C 
ATOM     12  C   UNL     1       3.346  -2.018  -1.228  0.00  0.00    +0.302 C 
ATOM     13  O   UNL     1       3.952  -2.809  -0.534  0.00  0.00    -0.265 OA
ENDROOT
BRANCH  12  14
ATOM     14  C   UNL     1       2.928  -2.402  -2.608  0.00  0.00    +0.305 C 
ATOM     15  O   UNL     1       2.226  -1.656  -3.259  0.00  0.00    -0.265 OA
ATOM     16  N   UNL     1       3.331  -3.577  -3.132  0.00  0.00    -0.255 N 
ATOM     17  C   UNL     1       2.942  -3.934  -4.416  0.00  0.00    +0.188 A 
ATOM     18  N   UNL     1       2.193  -3.280  -5.294  0.00  0.00    -0.125 NA
ATOM     19  N   UNL     1       1.934  -3.756  -6.433  0.00  0.00    -0.136 NA
ATOM     20  C   UNL     1       2.389  -4.931  -6.822  0.00  0.00    +0.206 A 
ATOM     21  S   UNL     1       3.313  -5.406  -5.365  0.00  0.00    -0.027 S 
ATOM     22  H   UNL     1       3.892  -4.173  -2.612  0.00  0.00    +0.157 HD
BRANCH  20  23
ATOM     23  C   UNL     1       2.192  -5.662  -8.125  0.00  0.00    +0.443 C 
ATOM     24  F   UNL     1       1.489  -4.844  -9.017  0.00  0.00    -0.164 F 
ATOM     25  F   UNL     1       3.438  -5.986  -8.672  0.00  0.00    -0.164 F 
ATOM     26  F   UNL     1       1.464  -6.835  -7.896  0.00  0.00    -0.164 F 
ENDBRANCH  20  23
ENDBRANCH  12  14
TORSDOF 2
