REMARK  Name = ZINC09243650
REMARK  11 active torsions:
REMARK  status: ('A' for Active; 'I' for Inactive)
REMARK    1  A    between atoms: C_1  and  C_2
REMARK    2  A    between atoms: C_2  and  O_3
REMARK    3  A    between atoms: O_3  and  C_4
REMARK    4  A    between atoms: C_6  and  C_11
REMARK    5  A    between atoms: C_9  and  O_10
REMARK    6  A    between atoms: C_14  and  C_30
REMARK    7  A    between atoms: N_21  and  C_22
REMARK    8  A    between atoms: C_22  and  C_23
REMARK    9  A    between atoms: C_26  and  C_29
REMARK   10  A    between atoms: C_33  and  C_37
REMARK   11  A    between atoms: C_35  and  O_36
REMARK                            x       y       z     vdW  Elec       q    Type
REMARK                         _______ _______ _______ _____ _____    ______ ____
ROOT
ATOM      1  C   UNL     1      -0.040  -4.885  -0.618  0.00  0.00    +0.142 C 
ATOM      2  C   UNL     1       1.031  -5.588  -1.406  0.00  0.00    +0.035 A 
ATOM      3  C   UNL     1       2.133  -5.476  -2.260  0.00  0.00    +0.102 A 
ATOM      4  N   UNL     1       2.556  -6.697  -2.522  0.00  0.00    -0.173 NA
ATOM      5  N   UNL     1       1.830  -7.569  -1.917  0.00  0.00    -0.272 N 
ATOM      6  H   UNL     1       1.958  -8.530  -1.965  0.00  0.00    +0.189 HD
ATOM      7  C   UNL     1       0.853  -6.942  -1.198  0.00  0.00    +0.126 A 
ATOM      8  C   UNL     1      -0.296  -7.130  -0.304  0.00  0.00    +0.266 C 
ATOM      9  O   UNL     1      -0.713  -8.208   0.073  0.00  0.00    -0.268 OA
ATOM     10  N   UNL     1      -0.823  -5.939   0.038  0.00  0.00    -0.281 N 
ENDROOT
BRANCH   3  11
ATOM     11  C   UNL     1       2.719  -4.214  -2.778  0.00  0.00    +0.045 A 
ATOM     12  C   UNL     1       2.093  -2.997  -2.522  0.00  0.00    +0.034 A 
ATOM     13  C   UNL     1       2.641  -1.825  -3.006  0.00  0.00    +0.045 A 
ATOM     14  C   UNL     1       3.812  -1.857  -3.744  0.00  0.00    -0.029 A 
ATOM     15  C   UNL     1       4.440  -3.060  -4.004  0.00  0.00    +0.050 A 
ATOM     16  C   UNL     1       3.903  -4.242  -3.519  0.00  0.00    +0.126 A 
ATOM     17  C   UNL     1       4.404  -0.574  -4.269  0.00  0.00    +0.045 C 
ATOM     18 CL   UNL     1       1.860  -0.307  -2.687  0.00  0.00    -0.083 Cl
BRANCH  16  19
ATOM     19  O   UNL     1       4.523  -5.425  -3.768  0.00  0.00    -0.506 OA
ATOM     20  H   UNL     1       4.235  -5.856  -4.584  0.00  0.00    +0.292 HD
ENDBRANCH  16  19
ENDBRANCH   3  11
BRANCH   1  23
ATOM     21  C   UNL     1       1.830  -3.700   2.443  0.00  0.00    +0.162 A 
ATOM     22  C   UNL     1       1.256  -4.529   1.492  0.00  0.00    +0.055 A 
ATOM     23  C   UNL     1       0.584  -3.982   0.415  0.00  0.00    -0.019 A 
ATOM     24  C   UNL     1       0.484  -2.610   0.283  0.00  0.00    +0.009 A 
ATOM     25  C   UNL     1       1.055  -1.778   1.228  0.00  0.00    +0.049 A 
ATOM     26  C   UNL     1       1.724  -2.319   2.313  0.00  0.00    +0.158 A 
BRANCH  26  27
ATOM     27  O   UNL     1       2.281  -1.502   3.247  0.00  0.00    -0.503 OA
ATOM     28  H   UNL     1       3.195  -1.251   3.055  0.00  0.00    +0.292 HD
ENDBRANCH  26  27
BRANCH  21  29
ATOM     29  O   UNL     1       2.491  -4.236   3.504  0.00  0.00    -0.489 OA
BRANCH  29  31
ATOM     30  C   UNL     1       3.451  -6.068   4.755  0.00  0.00    +0.048 C 
ATOM     31  C   UNL     1       2.630  -5.658   3.531  0.00  0.00    +0.226 C 
ENDBRANCH  29  31
ENDBRANCH  21  29
ENDBRANCH   1  23
BRANCH  10  32
ATOM     32  C   UNL     1      -1.978  -5.731   0.915  0.00  0.00    +0.144 C 
BRANCH  32  33
ATOM     33  C   UNL     1      -3.239  -5.717   0.091  0.00  0.00    -0.030 A 
ATOM     34  C   UNL     1      -3.709  -4.528  -0.434  0.00  0.00    +0.005 A 
ATOM     35  C   UNL     1      -4.866  -4.516  -1.191  0.00  0.00    +0.003 A 
ATOM     36  C   UNL     1      -5.553  -5.693  -1.422  0.00  0.00    -0.050 A 
ATOM     37  C   UNL     1      -5.082  -6.882  -0.898  0.00  0.00    +0.003 A 
ATOM     38  C   UNL     1      -3.923  -6.895  -0.145  0.00  0.00    +0.005 A 
ATOM     39  C   UNL     1      -6.815  -5.679  -2.246  0.00  0.00    +0.044 C 
ENDBRANCH  32  33
ENDBRANCH  10  32
TORSDOF 8
