REMARK  Name = ZINC12764067
REMARK  9 active torsions:
REMARK  status: ('A' for Active; 'I' for Inactive)
REMARK    1  A    between atoms: C_1  and  C_2
REMARK    2  A    between atoms: C_2  and  C_3
REMARK    3  A    between atoms: C_2  and  C_4
REMARK    4  A    between atoms: C_7  and  C_10
REMARK    5  A    between atoms: C_10  and  C_28
REMARK    6  A    between atoms: N_13  and  C_17
REMARK    7  A    between atoms: C_17  and  C_18
REMARK    8  A    between atoms: C_18  and  C_20
REMARK    9  A    between atoms: C_18  and  O_27
REMARK                            x       y       z     vdW  Elec       q    Type
REMARK                         _______ _______ _______ _____ _____    ______ ____
ROOT
ATOM      1  C   UNL     1       1.181   2.140   0.002  0.00  0.00    +0.135 C 
ATOM      2  C   UNL     1      -0.014   1.208   0.009  0.00  0.00    +0.251 C 
ATOM      3  O   UNL     1       0.002  -0.004   0.002  0.00  0.00    -0.272 OA
ATOM      4  N   UNL     1      -1.099   2.007   0.017  0.00  0.00    -0.221 N 
ATOM      5  C   UNL     1      -0.759   3.301   0.026  0.00  0.00    +0.310 C 
ATOM      6  O   UNL     1      -1.564   4.212   0.039  0.00  0.00    -0.252 OA
ATOM      7  N   UNL     1       0.574   3.482   0.015  0.00  0.00    -0.281 N 
ATOM      8  C   UNL     1       2.038   1.925   1.252  0.00  0.00    +0.047 C 
ATOM      9  H   UNL     1       1.044   4.331   0.015  0.00  0.00    +0.152 HD
ENDROOT
BRANCH   1  13
ATOM     10  C   UNL     1       3.508   1.576  -3.535  0.00  0.00    -0.045 A 
ATOM     11  C   UNL     1       3.466   2.816  -2.926  0.00  0.00    +0.004 A 
ATOM     12  C   UNL     1       2.714   2.998  -1.781  0.00  0.00    +0.006 A 
ATOM     13  C   UNL     1       2.002   1.941  -1.246  0.00  0.00    -0.015 A 
ATOM     14  C   UNL     1       2.047   0.700  -1.852  0.00  0.00    +0.006 A 
ATOM     15  C   UNL     1       2.797   0.518  -2.999  0.00  0.00    +0.004 A 
BRANCH  10  17
ATOM     16  C   UNL     1       5.393   0.307  -4.528  0.00  0.00    +0.012 C 
ATOM     17  C   UNL     1       4.329   1.376  -4.783  0.00  0.00    +0.013 C 
ATOM     18  C   UNL     1       3.418   0.927  -5.927  0.00  0.00    +0.012 C 
ENDBRANCH  10  17
ENDBRANCH   1  13
BRANCH   4  19
ATOM     19  C   UNL     1      -2.481   1.520   0.020  0.00  0.00    +0.154 C 
BRANCH  19  20
ATOM     20  C   UNL     1      -2.956   1.342   1.463  0.00  0.00    +0.162 C 
BRANCH  20  21
ATOM     21  C   UNL     1      -4.377   0.840   1.466  0.00  0.00    -0.018 A 
ATOM     22  C   UNL     1      -4.632  -0.513   1.349  0.00  0.00    +0.007 A 
ATOM     23  C   UNL     1      -5.935  -0.975   1.357  0.00  0.00    +0.020 A 
ATOM     24  C   UNL     1      -6.985  -0.080   1.471  0.00  0.00    +0.041 A 
ATOM     25  C   UNL     1      -6.729   1.275   1.582  0.00  0.00    +0.020 A 
ATOM     26  C   UNL     1      -5.425   1.734   1.579  0.00  0.00    +0.007 A 
ATOM     27 CL   UNL     1      -8.622  -0.658   1.474  0.00  0.00    -0.084 Cl
ENDBRANCH  20  21
BRANCH  20  28
ATOM     28  O   UNL     1      -2.116   0.397   2.128  0.00  0.00    -0.386 OA
ATOM     29  H   UNL     1      -2.110  -0.480   1.720  0.00  0.00    +0.210 HD
ENDBRANCH  20  28
ENDBRANCH  19  20
ENDBRANCH   4  19
TORSDOF 6
