REMARK  Name = ZINC09255195
REMARK  6 active torsions:
REMARK  status: ('A' for Active; 'I' for Inactive)
REMARK    1  A    between atoms: C_1  and  N_2
REMARK    2  A    between atoms: C_3  and  C_27
REMARK    3  A    between atoms: C_6  and  S_7
REMARK    4  A    between atoms: S_7  and  C_8
REMARK    5  A    between atoms: C_8  and  C_9
REMARK    6  A    between atoms: C_15  and  C_17
REMARK                            x       y       z     vdW  Elec       q    Type
REMARK                         _______ _______ _______ _____ _____    ______ ____
ROOT
ATOM      1  C   UNL     1       1.708  -2.952  -2.843  0.00  0.00    +0.226 C 
ATOM      2  O   UNL     1       0.915  -2.336  -3.523  0.00  0.00    -0.275 OA
ATOM      3  N   UNL     1       1.400  -3.269  -1.570  0.00  0.00    -0.294 N 
ATOM      4  C   UNL     1       2.266  -4.011  -0.635  0.00  0.00    +0.108 C 
ATOM      5  C   UNL     1       1.293  -4.640   0.393  0.00  0.00    +0.021 C 
ATOM      6  C   UNL     1       0.230  -3.520   0.542  0.00  0.00    +0.029 C 
ATOM      7  C   UNL     1       0.144  -2.933  -0.882  0.00  0.00    +0.106 C 
ENDROOT
BRANCH   7   8
ATOM      8  C   UNL     1      -0.016  -1.436  -0.812  0.00  0.00    -0.023 A 
ATOM      9  C   UNL     1       1.085  -0.635  -0.575  0.00  0.00    +0.009 A 
ATOM     10  C   UNL     1       0.942   0.738  -0.507  0.00  0.00    +0.050 A 
ATOM     11  C   UNL     1      -0.308   1.316  -0.677  0.00  0.00    +0.162 A 
ATOM     12  C   UNL     1      -1.414   0.510  -0.918  0.00  0.00    +0.162 A 
ATOM     13  C   UNL     1      -1.264  -0.867  -0.983  0.00  0.00    +0.055 A 
ATOM     14  O   UNL     1      -2.648   1.057  -1.097  0.00  0.00    -0.485 OA
ATOM     15  C   UNL     1      -2.824   2.406  -0.650  0.00  0.00    +0.270 C 
ATOM     16  C   UNL     1      -1.632   3.235  -1.146  0.00  0.00    +0.270 C 
ATOM     17  O   UNL     1      -0.435   2.669  -0.601  0.00  0.00    -0.485 OA
ENDBRANCH   7   8
BRANCH   1  18
ATOM     18  C   UNL     1       3.038  -3.362  -3.421  0.00  0.00    +0.173 C 
BRANCH  18  19
ATOM     19  S   UNL     1       3.151  -2.794  -5.136  0.00  0.00    -0.077 S 
BRANCH  19  25
ATOM     20  C   UNL     1       4.872  -2.578  -7.948  0.00  0.00    +0.153 C 
ATOM     21  N   UNL     1       5.386  -3.251  -6.753  0.00  0.00    -0.305 N 
ATOM     22  C   UNL     1       6.606  -3.871  -6.607  0.00  0.00    +0.165 A 
ATOM     23  N   UNL     1       6.658  -4.339  -5.382  0.00  0.00    -0.128 NA
ATOM     24  N   UNL     1       5.571  -4.053  -4.758  0.00  0.00    -0.122 NA
ATOM     25  C   UNL     1       4.756  -3.392  -5.551  0.00  0.00    +0.192 A 
BRANCH  22  26
ATOM     26  C   UNL     1       7.659  -3.989  -7.637  0.00  0.00    +0.022 A 
ATOM     27  C   UNL     1       8.693  -4.925  -7.506  0.00  0.00    +0.031 A 
ATOM     28  C   UNL     1       9.652  -5.005  -8.494  0.00  0.00    +0.111 A 
ATOM     29  N   UNL     1       9.610  -4.208  -9.545  0.00  0.00    -0.263 NA
ATOM     30  C   UNL     1       8.657  -3.310  -9.705  0.00  0.00    +0.111 A 
ATOM     31  C   UNL     1       7.655  -3.165  -8.769  0.00  0.00    +0.031 A 
ENDBRANCH  22  26
ENDBRANCH  19  25
ENDBRANCH  18  19
ENDBRANCH   1  18
TORSDOF 5
