REMARK  Name = ZINC67238387
REMARK  9 active torsions:
REMARK  status: ('A' for Active; 'I' for Inactive)
REMARK    1  A    between atoms: C_1  and  C_2
REMARK    2  A    between atoms: C_2  and  C_3
REMARK    3  A    between atoms: C_3  and  C_4
REMARK    4  A    between atoms: C_4  and  N_5
REMARK    5  A    between atoms: C_11  and  C_14
REMARK    6  A    between atoms: C_16  and  S_17
REMARK    7  A    between atoms: S_17  and  C_18
REMARK    8  A    between atoms: C_18  and  C_19
REMARK    9  A    between atoms: N_21  and  C_22
REMARK                            x       y       z     vdW  Elec       q    Type
REMARK                         _______ _______ _______ _____ _____    ______ ____
ROOT
ATOM      1  N   UNL     1      -2.767  -2.616   0.014  0.00  0.00    -0.286 N 
ATOM      2  C   UNL     1      -3.383  -2.860   1.191  0.00  0.00    +0.279 A 
ATOM      3  O   UNL     1      -2.809  -2.660   2.248  0.00  0.00    -0.265 OA
ATOM      4  C   UNL     1      -4.702  -3.349   1.170  0.00  0.00    +0.131 A 
ATOM      5  C   UNL     1      -5.322  -3.563  -0.067  0.00  0.00    +0.097 A 
ATOM      6  C   UNL     1      -6.619  -4.048   0.210  0.00  0.00    +0.051 A 
ATOM      7  C   UNL     1      -6.759  -4.117   1.549  0.00  0.00    +0.016 A 
ATOM      8  N   UNL     1      -5.610  -3.698   2.148  0.00  0.00    -0.353 N 
ATOM      9  H   UNL     1      -5.456  -3.653   3.105  0.00  0.00    +0.166 HD
ATOM     10  C   UNL     1      -7.996  -4.585   2.271  0.00  0.00    +0.063 C 
ATOM     11  N   UNL     1      -4.646  -3.299  -1.203  0.00  0.00    -0.222 NA
ATOM     12  C   UNL     1      -3.418  -2.837  -1.166  0.00  0.00    +0.173 A 
ENDROOT
BRANCH   1  13
ATOM     13  C   UNL     1      -1.394  -2.106   0.003  0.00  0.00    +0.127 C 
BRANCH  13  14
ATOM     14  C   UNL     1      -1.418  -0.577   0.023  0.00  0.00    +0.021 C 
BRANCH  14  16
ATOM     15  C   UNL     1      -0.007   1.486   0.031  0.00  0.00    +0.004 C 
ATOM     16  C   UNL     1       0.017  -0.044   0.011  0.00  0.00    -0.002 C 
ENDBRANCH  14  16
ENDBRANCH  13  14
ENDBRANCH   1  13
BRANCH  12  17
ATOM     17  S   UNL     1      -2.584  -2.501  -2.681  0.00  0.00    -0.078 S 
BRANCH  17  18
ATOM     18  C   UNL     1      -3.800  -2.930  -3.956  0.00  0.00    +0.173 C 
BRANCH  18  19
ATOM     19  C   UNL     1      -3.206  -2.686  -5.320  0.00  0.00    +0.228 C 
ATOM     20  O   UNL     1      -2.073  -2.263  -5.421  0.00  0.00    -0.275 OA
ATOM     21  N   UNL     1      -3.933  -2.936  -6.426  0.00  0.00    -0.283 N 
ATOM     22  H   UNL     1      -4.814  -3.334  -6.348  0.00  0.00    +0.155 HD
BRANCH  21  23
ATOM     23  C   UNL     1      -3.416  -2.622  -7.690  0.00  0.00    +0.069 A 
ATOM     24  C   UNL     1      -2.056  -2.748  -7.936  0.00  0.00    +0.027 A 
ATOM     25  C   UNL     1      -1.549  -2.437  -9.183  0.00  0.00    +0.017 A 
ATOM     26  C   UNL     1      -2.395  -2.000 -10.187  0.00  0.00    +0.021 A 
ATOM     27  C   UNL     1      -3.751  -1.873  -9.946  0.00  0.00    +0.055 A 
ATOM     28  C   UNL     1      -4.266  -2.188  -8.702  0.00  0.00    +0.146 A 
ATOM     29  F   UNL     1      -5.591  -2.070  -8.468  0.00  0.00    -0.204 F 
ATOM     30 BR   UNL     1      -1.695  -1.575 -11.892  0.00  0.00    -0.050 Br
ENDBRANCH  21  23
ENDBRANCH  18  19
ENDBRANCH  17  18
ENDBRANCH  12  17
TORSDOF 7
