REMARK  Name = ZINC39624041
REMARK  9 active torsions:
REMARK  status: ('A' for Active; 'I' for Inactive)
REMARK    1  A    between atoms: C_1  and  C_2
REMARK    2  A    between atoms: C_2  and  C_3
REMARK    3  A    between atoms: C_3  and  C_4
REMARK    4  A    between atoms: C_4  and  N_5
REMARK    5  A    between atoms: C_6  and  C_8
REMARK    6  A    between atoms: C_19  and  C_21
REMARK    7  A    between atoms: C_23  and  C_28
REMARK    8  A    between atoms: N_25  and  C_26
REMARK    9  A    between atoms: C_26  and  C_27
REMARK                            x       y       z     vdW  Elec       q    Type
REMARK                         _______ _______ _______ _____ _____    ______ ____
ROOT
ATOM      1  C   UNL     1      -4.588  -4.574  -0.006  0.00  0.00    +0.100 C 
ATOM      2  C   UNL     1      -5.276  -4.250  -1.351  0.00  0.00    +0.121 C 
ATOM      3  N   UNL     1      -4.939  -5.396  -2.229  0.00  0.00    -0.295 N 
ATOM      4  C   UNL     1      -5.027  -6.579  -1.340  0.00  0.00    +0.115 C 
ATOM      5  C   UNL     1      -4.430  -6.103  -0.001  0.00  0.00    -0.004 C 
ATOM      6  C   UNL     1      -5.201  -6.710   1.167  0.00  0.00    -0.010 C 
ATOM      7  C   UNL     1      -4.981  -8.226   1.186  0.00  0.00    -0.082 C 
ATOM      8  N   UNL     1      -3.548  -8.512   1.318  0.00  0.00    +0.379 N 
ATOM      9  C   UNL     1      -2.826  -8.006   0.145  0.00  0.00    -0.082 C 
ATOM     10  C   UNL     1      -2.954  -6.482   0.083  0.00  0.00    -0.010 C 
ATOM     11  C   UNL     1      -4.624  -5.369  -3.539  0.00  0.00    +0.266 C 
ATOM     12  O   UNL     1      -4.457  -6.409  -4.146  0.00  0.00    -0.268 OA
ATOM     13  H   UNL     1      -3.192  -8.065   2.150  0.00  0.00    -0.086 HD
ATOM     14  H   UNL     1      -3.411  -9.509   1.392  0.00  0.00    -0.086 HD
ENDROOT
BRANCH  11  15
ATOM     15  C   UNL     1      -4.482  -4.080  -4.234  0.00  0.00    +0.138 A 
ATOM     16  C   UNL     1      -3.311  -3.369  -4.435  0.00  0.00    +0.071 A 
ATOM     17  C   UNL     1      -3.691  -2.222  -5.139  0.00  0.00    +0.075 A 
ATOM     18  N   UNL     1      -4.985  -2.276  -5.325  0.00  0.00    -0.175 NA
ATOM     19  N   UNL     1      -5.478  -3.348  -4.817  0.00  0.00    -0.258 N 
ATOM     20  C   UNL     1      -2.774  -1.119  -5.600  0.00  0.00    +0.069 C 
ATOM     21 BR   UNL     1      -1.568  -3.846  -3.876  0.00  0.00    -0.046 Br
BRANCH  19  22
ATOM     22  C   UNL     1      -6.893  -3.725  -4.852  0.00  0.00    +0.141 C 
ATOM     23  C   UNL     1      -7.633  -3.040  -3.702  0.00  0.00    +0.029 C 
ENDBRANCH  19  22
ENDBRANCH  11  15
BRANCH   1  25
ATOM     24  N   UNL     1      -2.660  -3.685   1.264  0.00  0.00    -0.315 N 
ATOM     25  C   UNL     1      -3.239  -3.906   0.067  0.00  0.00    +0.218 C 
ATOM     26  O   UNL     1      -2.673  -3.569  -0.951  0.00  0.00    -0.275 OA
ATOM     27  H   UNL     1      -3.143  -3.889   2.081  0.00  0.00    +0.149 HD
BRANCH  24  28
ATOM     28  C   UNL     1      -1.303  -3.138   1.332  0.00  0.00    +0.104 C 
BRANCH  28  29
ATOM     29  C   UNL     1      -0.887  -2.985   2.797  0.00  0.00    +0.018 C 
BRANCH  29  31
ATOM     30  C   UNL     1       0.946  -2.261   4.332  0.00  0.00    +0.004 C 
ATOM     31  C   UNL     1       0.530  -2.413   2.868  0.00  0.00    -0.002 C 
ENDBRANCH  29  31
ENDBRANCH  28  29
ENDBRANCH  24  28
ENDBRANCH   1  25
TORSDOF 6
