REMARK  Name = ZINC27007906
REMARK  11 active torsions:
REMARK  status: ('A' for Active; 'I' for Inactive)
REMARK    1  A    between atoms: C_1  and  C_2
REMARK    2  A    between atoms: C_2  and  C_4
REMARK    3  A    between atoms: C_2  and  N_16
REMARK    4  A    between atoms: N_6  and  C_7
REMARK    5  A    between atoms: C_10  and  N_13
REMARK    6  A    between atoms: N_16  and  C_17
REMARK    7  A    between atoms: C_20  and  C_23
REMARK    8  A    between atoms: C_23  and  C_24
REMARK    9  A    between atoms: N_26  and  C_27
REMARK   10  A    between atoms: C_27  and  C_28
REMARK   11  A    between atoms: C_27  and  C_29
REMARK                            x       y       z     vdW  Elec       q    Type
REMARK                         _______ _______ _______ _____ _____    ______ ____
ROOT
ATOM      1  N   UNL     1      -1.371  -0.513   0.011  0.00  0.00    -0.333 N 
ATOM      2  H   UNL     1      -1.795  -0.748   0.851  0.00  0.00    +0.147 HD
ENDROOT
BRANCH   1   3
ATOM      3  C   UNL     1      -2.073  -0.656  -1.188  0.00  0.00    +0.028 A 
ATOM      4  C   UNL     1      -1.467  -0.326  -2.394  0.00  0.00    +0.023 A 
ATOM      5  C   UNL     1      -2.164  -0.469  -3.578  0.00  0.00    +0.006 A 
ATOM      6  C   UNL     1      -3.464  -0.940  -3.564  0.00  0.00    -0.039 A 
ATOM      7  C   UNL     1      -4.071  -1.269  -2.365  0.00  0.00    +0.006 A 
ATOM      8  C   UNL     1      -3.378  -1.134  -1.179  0.00  0.00    +0.023 A 
BRANCH   6   9
ATOM      9  C   UNL     1      -4.222  -1.094  -4.857  0.00  0.00    +0.130 C 
BRANCH   9  10
ATOM     10  C   UNL     1      -3.994  -2.476  -5.412  0.00  0.00    +0.218 C 
ATOM     11  O   UNL     1      -3.286  -3.260  -4.815  0.00  0.00    -0.275 OA
ATOM     12  N   UNL     1      -4.577  -2.842  -6.570  0.00  0.00    -0.313 N 
ATOM     13  H   UNL     1      -5.143  -2.216  -7.048  0.00  0.00    +0.149 HD
BRANCH  12  14
ATOM     14  C   UNL     1      -4.355  -4.187  -7.109  0.00  0.00    +0.067 C 
ATOM     15  C   UNL     1      -5.348  -5.161  -6.472  0.00  0.00    +0.027 C 
ATOM     16  C   UNL     1      -4.560  -4.168  -8.625  0.00  0.00    +0.027 C 
ENDBRANCH  12  14
ENDBRANCH   9  10
ENDBRANCH   6   9
ENDBRANCH   1   3
BRANCH   1  18
ATOM     17  C   UNL     1      -0.013   1.521  -0.004  0.00  0.00    +0.038 C 
ATOM     18  C   UNL     1       0.004  -0.009  -0.002  0.00  0.00    +0.154 C 
BRANCH  18  19
ATOM     19  C   UNL     1       0.730  -0.502   1.224  0.00  0.00    +0.237 C 
ATOM     20  O   UNL     1       0.156  -1.205   2.028  0.00  0.00    -0.273 OA
ATOM     21  N   UNL     1       2.019  -0.161   1.426  0.00  0.00    -0.284 N 
ATOM     22  H   UNL     1       2.498   0.344   0.751  0.00  0.00    +0.155 HD
BRANCH  21  23
ATOM     23  C   UNL     1       2.664  -0.537   2.609  0.00  0.00    +0.034 A 
ATOM     24  C   UNL     1       3.602   0.308   3.188  0.00  0.00    +0.025 A 
ATOM     25  C   UNL     1       4.238  -0.066   4.356  0.00  0.00    +0.034 A 
ATOM     26  C   UNL     1       3.941  -1.280   4.949  0.00  0.00    +0.126 A 
ATOM     27  C   UNL     1       3.008  -2.123   4.374  0.00  0.00    +0.034 A 
ATOM     28  C   UNL     1       2.364  -1.752   3.210  0.00  0.00    +0.025 A 
BRANCH  26  29
ATOM     29  N   UNL     1       4.624  -1.677   6.200  0.00  0.00    +0.056 N 
ATOM     30  O   UNL     1       5.440  -0.941   6.704  0.00  0.00    -0.126 OA
ATOM     31  O   UNL     1       4.365  -2.738   6.720  0.00  0.00    -0.126 OA
ENDBRANCH  26  29
ENDBRANCH  21  23
ENDBRANCH  18  19
ENDBRANCH   1  18
TORSDOF 8
