REMARK  Name = ZINC39868850
REMARK  9 active torsions:
REMARK  status: ('A' for Active; 'I' for Inactive)
REMARK    1  A    between atoms: C_1  and  C_2
REMARK    2  A    between atoms: C_2  and  C_3
REMARK    3  A    between atoms: C_3  and  O_4
REMARK    4  A    between atoms: O_4  and  C_5
REMARK    5  A    between atoms: C_8  and  C_12
REMARK    6  A    between atoms: N_14  and  C_15
REMARK    7  A    between atoms: C_16  and  C_23
REMARK    8  A    between atoms: N_25  and  C_26
REMARK    9  A    between atoms: C_26  and  C_27
REMARK                            x       y       z     vdW  Elec       q    Type
REMARK                         _______ _______ _______ _____ _____    ______ ____
ROOT
ATOM      1  C   UNL     1      -8.203  -5.534  -1.117  0.00  0.00    +0.085 A 
ATOM      2  C   UNL     1      -8.961  -5.934  -2.202  0.00  0.00    +0.069 A 
ATOM      3  C   UNL     1     -10.230  -6.603  -1.922  0.00  0.00    -0.023 A 
ATOM      4  C   UNL     1     -10.500  -6.743  -0.612  0.00  0.00    -0.004 A 
ATOM      5  S   UNL     1      -9.105  -6.018   0.212  0.00  0.00    -0.077 S 
ATOM      6  C   UNL     1     -11.817  -7.433  -0.381  0.00  0.00    +0.043 C 
ATOM      7  C   UNL     1     -12.554  -7.331  -1.735  0.00  0.00    +0.010 C 
ATOM      8  C   UNL     1     -11.378  -7.213  -2.725  0.00  0.00    +0.037 C 
ENDROOT
BRANCH   1  11
ATOM      9  C   UNL     1      -6.373  -4.575   0.038  0.00  0.00    +0.249 C 
ATOM     10  O   UNL     1      -6.903  -4.860   1.095  0.00  0.00    -0.270 OA
ATOM     11  N   UNL     1      -6.978  -4.888  -1.125  0.00  0.00    -0.275 N 
ATOM     12  H   UNL     1      -6.555  -4.661  -1.968  0.00  0.00    +0.156 HD
BRANCH   9  16
ATOM     13  C   UNL     1      -2.615  -2.595   0.013  0.00  0.00    +0.157 A 
ATOM     14  C   UNL     1      -3.220  -2.920   1.222  0.00  0.00    +0.085 A 
ATOM     15  C   UNL     1      -4.439  -3.562   1.235  0.00  0.00    +0.036 A 
ATOM     16  C   UNL     1      -5.068  -3.887   0.030  0.00  0.00    +0.040 A 
ATOM     17  C   UNL     1      -4.457  -3.559  -1.184  0.00  0.00    +0.036 A 
ATOM     18  C   UNL     1      -3.240  -2.912  -1.188  0.00  0.00    +0.085 A 
ATOM     19 CL   UNL     1      -2.484  -2.497  -2.695  0.00  0.00    -0.080 Cl
ATOM     20 CL   UNL     1      -2.438  -2.516   2.719  0.00  0.00    -0.080 Cl
BRANCH  13  21
ATOM     21  O   UNL     1      -1.414  -1.962   0.005  0.00  0.00    -0.489 OA
BRANCH  21  22
ATOM     22  C   UNL     1      -1.433  -0.534   0.013  0.00  0.00    +0.229 C 
BRANCH  22  24
ATOM     23  C   UNL     1      -0.019   1.526   0.010  0.00  0.00    +0.007 C 
ATOM     24  C   UNL     1       0.002  -0.004   0.002  0.00  0.00    +0.038 C 
ENDBRANCH  22  24
ENDBRANCH  21  22
ENDBRANCH  13  21
ENDBRANCH   9  16
ENDBRANCH   1  11
BRANCH   2  25
ATOM     25  C   UNL     1      -8.510  -5.697  -3.576  0.00  0.00    +0.247 C 
ATOM     26  O   UNL     1      -7.831  -6.531  -4.147  0.00  0.00    -0.270 OA
ATOM     27  N   UNL     1      -8.847  -4.555  -4.209  0.00  0.00    -0.309 N 
ATOM     28  H   UNL     1      -9.388  -3.891  -3.754  0.00  0.00    +0.149 HD
BRANCH  27  29
ATOM     29  C   UNL     1      -8.396  -4.318  -5.582  0.00  0.00    +0.136 C 
BRANCH  29  30
ATOM     30  C   UNL     1      -8.912  -2.959  -6.061  0.00  0.00    +0.135 C 
ATOM     31  C   UNL     1      -8.475  -2.704  -7.525  0.00  0.00    +0.035 C 
ATOM     32  C   UNL     1      -9.569  -1.703  -7.988  0.00  0.00    +0.031 C 
ATOM     33  C   UNL     1     -10.811  -2.192  -7.213  0.00  0.00    +0.160 C 
ATOM     34  O   UNL     1     -10.348  -2.953  -6.088  0.00  0.00    -0.375 OA
ENDBRANCH  29  30
ENDBRANCH  27  29
ENDBRANCH   2  25
TORSDOF 8
