REMARK  Name = ZINC66891306
REMARK  7 active torsions:
REMARK  status: ('A' for Active; 'I' for Inactive)
REMARK    1  A    between atoms: C_1  and  C_2
REMARK    2  A    between atoms: C_3  and  C_7
REMARK    3  A    between atoms: N_9  and  C_10
REMARK    4  A    between atoms: N_13  and  C_16
REMARK    5  A    between atoms: C_16  and  C_17
REMARK    6  A    between atoms: N_19  and  C_20
REMARK    7  A    between atoms: C_20  and  C_21
REMARK                            x       y       z     vdW  Elec       q    Type
REMARK                         _______ _______ _______ _____ _____    ______ ____
ROOT
ATOM      1  C   UNL     1      -4.888  -0.928   0.021  0.00  0.00    +0.070 C 
ATOM      2  C   UNL     1      -5.340  -0.682   1.463  0.00  0.00    +0.004 C 
ATOM      3  C   UNL     1      -6.830  -0.333   1.473  0.00  0.00    -0.076 C 
ATOM      4  N   UNL     1      -7.600  -1.443   0.899  0.00  0.00    +0.385 N 
ATOM      5  C   UNL     1      -7.223  -1.637  -0.506  0.00  0.00    -0.076 C 
ATOM      6  C   UNL     1      -5.749  -2.037  -0.591  0.00  0.00    +0.004 C 
ATOM      7  H   UNL     1      -7.409  -2.287   1.418  0.00  0.00    -0.081 HD
ENDROOT
BRANCH   1  10
ATOM      8  C   UNL     1      -2.508  -0.405   0.012  0.00  0.00    +0.248 C 
ATOM      9  O   UNL     1      -2.798   0.776   0.021  0.00  0.00    -0.270 OA
ATOM     10  N   UNL     1      -3.482  -1.337   0.011  0.00  0.00    -0.309 N 
ATOM     11  H   UNL     1      -3.251  -2.280   0.005  0.00  0.00    +0.149 HD
BRANCH   8  14
ATOM     12  C   UNL     1      -0.018   1.503   0.010  0.00  0.00    +0.087 C 
ATOM     13  C   UNL     1       0.002  -0.004   0.002  0.00  0.00    +0.114 A 
ATOM     14  C   UNL     1      -1.093  -0.817   0.003  0.00  0.00    +0.077 A 
ATOM     15  C   UNL     1      -0.567  -2.190  -0.008  0.00  0.00    +0.054 A 
ATOM     16  C   UNL     1       0.769  -2.073  -0.014  0.00  0.00    +0.196 A 
ATOM     17  O   UNL     1       1.097  -0.771  -0.013  0.00  0.00    -0.467 OA
ENDBRANCH   8  14
ENDBRANCH   1  10
BRANCH   4  18
ATOM     18  C   UNL     1      -9.035  -1.135   0.982  0.00  0.00    +0.019 C 
BRANCH  18  19
ATOM     19  C   UNL     1      -9.831  -2.324   0.507  0.00  0.00    +0.197 C 
ATOM     20  O   UNL     1      -9.260  -3.327   0.136  0.00  0.00    -0.278 OA
ATOM     21  N   UNL     1     -11.178  -2.270   0.494  0.00  0.00    -0.313 N 
ATOM     22  H   UNL     1     -11.634  -1.468   0.790  0.00  0.00    +0.149 HD
BRANCH  21  23
ATOM     23  C   UNL     1     -11.952  -3.425   0.032  0.00  0.00    +0.139 C 
BRANCH  23  24
ATOM     24  C   UNL     1     -13.423  -3.110   0.117  0.00  0.00    -0.027 A 
ATOM     25  C   UNL     1     -14.123  -3.389   1.276  0.00  0.00    +0.009 A 
ATOM     26  C   UNL     1     -15.472  -3.101   1.359  0.00  0.00    +0.050 A 
ATOM     27  C   UNL     1     -16.127  -2.532   0.278  0.00  0.00    +0.166 A 
ATOM     28  C   UNL     1     -15.422  -2.251  -0.889  0.00  0.00    +0.167 A 
ATOM     29  C   UNL     1     -14.069  -2.537  -0.963  0.00  0.00    +0.054 A 
ATOM     30  O   UNL     1     -16.282  -1.701  -1.796  0.00  0.00    -0.453 OA
ATOM     31  C   UNL     1     -17.602  -2.024  -1.320  0.00  0.00    +0.466 C 
ATOM     32  O   UNL     1     -17.428  -2.158   0.103  0.00  0.00    -0.453 OA
ENDBRANCH  23  24
ENDBRANCH  21  23
ENDBRANCH  18  19
ENDBRANCH   4  18
TORSDOF 6
