REMARK  Name = ZINC19368544
REMARK  14 active torsions:
REMARK  status: ('A' for Active; 'I' for Inactive)
REMARK    1  A    between atoms: C_1  and  C_2
REMARK    2  A    between atoms: C_2  and  C_3
REMARK    3  A    between atoms: C_3  and  N_4
REMARK    4  A    between atoms: C_5  and  N_35
REMARK    5  A    between atoms: C_6  and  C_13
REMARK    6  A    between atoms: C_13  and  C_15
REMARK    7  A    between atoms: C_15  and  S_16
REMARK    8  A    between atoms: S_16  and  C_17
REMARK    9  A    between atoms: C_23  and  C_29
REMARK   10  A    between atoms: C_24  and  C_28
REMARK   11  A    between atoms: C_29  and  C_30
REMARK   12  A    between atoms: C_30  and  C_32
REMARK   13  A    between atoms: C_30  and  C_33
REMARK   14  A    between atoms: C_33  and  C_34
REMARK                            x       y       z     vdW  Elec       q    Type
REMARK                         _______ _______ _______ _____ _____    ______ ____
ROOT
ATOM      1  C   UNL     1      -2.067  -5.886  -2.096  0.00  0.00    +0.157 C 
ENDROOT
BRANCH   1   2
ATOM      2  C   UNL     1      -1.994  -7.082  -3.009  0.00  0.00    +0.182 C 
ATOM      3  O   UNL     1      -1.955  -6.925  -4.213  0.00  0.00    -0.291 OA
BRANCH   2   6
ATOM      4  N   UNL     1      -1.994 -10.757  -2.723  0.00  0.00    -0.281 N 
ATOM      5  C   UNL     1      -2.026  -9.517  -3.296  0.00  0.00    +0.116 A 
ATOM      6  C   UNL     1      -1.969  -8.384  -2.466  0.00  0.00    +0.120 A 
ATOM      7  C   UNL     1      -1.890  -8.599  -1.015  0.00  0.00    +0.266 A 
ATOM      8  O   UNL     1      -1.843  -7.654  -0.249  0.00  0.00    -0.267 OA
ATOM      9  N   UNL     1      -1.870  -9.864  -0.549  0.00  0.00    -0.274 N 
ATOM     10  H   UNL     1      -1.811 -10.052   0.533  0.00  0.00    +0.173 HD
ATOM     11  C   UNL     1      -1.921 -10.909  -1.392  0.00  0.00    +0.331 A 
ATOM     12  O   UNL     1      -1.900 -12.034  -0.931  0.00  0.00    -0.246 OA
BRANCH   5  13
ATOM     13  N   UNL     1      -2.106  -9.382  -4.647  0.00  0.00    -0.344 N 
ATOM     14  H   UNL     1      -2.131  -8.379  -5.098  0.00  0.00    +0.144 HD
ATOM     15  H   UNL     1      -2.145 -10.275  -5.288  0.00  0.00    +0.144 HD
ENDBRANCH   5  13
BRANCH   4  16
ATOM     16  C   UNL     1      -2.046 -11.945  -3.580  0.00  0.00    +0.128 C 
BRANCH  16  18
ATOM     17  C   UNL     1      -3.559 -13.592  -4.693  0.00  0.00    +0.005 C 
ATOM     18  C   UNL     1      -3.504 -12.352  -3.798  0.00  0.00    +0.018 C 
ENDBRANCH  16  18
ENDBRANCH   4  16
ENDBRANCH   2   6
ENDBRANCH   1   2
BRANCH   1  19
ATOM     19  S   UNL     1      -2.082  -4.370  -3.086  0.00  0.00    -0.080 S 
BRANCH  19  20
ATOM     20  C   UNL     1      -2.170  -3.167  -1.802  0.00  0.00    +0.170 A 
ATOM     21  N   UNL     1      -2.202  -1.841  -2.123  0.00  0.00    -0.301 N 
ATOM     22  H   UNL     1      -2.175  -1.530  -3.178  0.00  0.00    +0.171 HD
ATOM     23  C   UNL     1      -2.268  -0.893  -1.171  0.00  0.00    +0.261 A 
ATOM     24  O   UNL     1      -2.297   0.287  -1.474  0.00  0.00    -0.267 OA
ATOM     25  C   UNL     1      -2.310  -1.288   0.204  0.00  0.00    +0.075 A 
ATOM     26  C   UNL     1      -2.376  -0.462   1.397  0.00  0.00    -0.023 A 
ATOM     27  C   UNL     1      -2.400  -1.051   2.601  0.00  0.00    -0.007 A 
ATOM     28  S   UNL     1      -2.328  -2.790   2.213  0.00  0.00    -0.073 S 
ATOM     29  C   UNL     1      -2.267  -2.675   0.444  0.00  0.00    +0.117 A 
ATOM     30  N   UNL     1      -2.202  -3.559  -0.544  0.00  0.00    -0.216 NA
ATOM     31  C   UNL     1      -2.471  -0.400   3.958  0.00  0.00    +0.052 C 
BRANCH  26  32
ATOM     32  C   UNL     1      -2.423   1.040   1.282  0.00  0.00    +0.040 C 
BRANCH  32  33
ATOM     33  C   UNL     1      -0.998   1.597   1.295  0.00  0.00    -0.010 C 
ATOM     34  C   UNL     1      -0.252   1.119   0.048  0.00  0.00    +0.008 C 
BRANCH  33  35
ATOM     35  C   UNL     1      -1.048   3.126   1.305  0.00  0.00    +0.000 C 
ATOM     36  C   UNL     1       0.371   3.682   1.444  0.00  0.00    +0.004 C 
ENDBRANCH  33  35
ENDBRANCH  32  33
ENDBRANCH  26  32
ENDBRANCH  19  20
ENDBRANCH   1  19
TORSDOF 10
