REMARK  Name = ZINC39690472
REMARK  8 active torsions:
REMARK  status: ('A' for Active; 'I' for Inactive)
REMARK    1  A    between atoms: C_1  and  C_2
REMARK    2  A    between atoms: C_2  and  C_3
REMARK    3  A    between atoms: C_3  and  C_4
REMARK    4  A    between atoms: C_4  and  C_6
REMARK    5  A    between atoms: C_4  and  C_7
REMARK    6  A    between atoms: C_11  and  C_20
REMARK    7  A    between atoms: N_22  and  C_23
REMARK    8  A    between atoms: C_23  and  C_24
REMARK                            x       y       z     vdW  Elec       q    Type
REMARK                         _______ _______ _______ _____ _____    ______ ____
ROOT
ATOM      1  C   UNL     1       1.067  -2.475   2.596  0.00  0.00    +0.218 C 
ATOM      2  O   UNL     1       1.312  -1.758   3.543  0.00  0.00    -0.275 OA
ATOM      3  N   UNL     1       1.343  -3.793   2.660  0.00  0.00    -0.300 N 
ATOM      4  C   UNL     1       1.225  -4.799   1.578  0.00  0.00    +0.121 C 
ATOM      5  C   UNL     1       2.459  -5.711   1.758  0.00  0.00    +0.100 C 
ATOM      6  C   UNL     1       2.852  -5.554   3.236  0.00  0.00    -0.004 C 
ATOM      7  C   UNL     1       1.839  -4.562   3.826  0.00  0.00    +0.115 C 
ATOM      8  C   UNL     1       2.757  -6.897   3.954  0.00  0.00    -0.010 C 
ATOM      9  C   UNL     1       3.208  -6.726   5.407  0.00  0.00    -0.082 C 
ATOM     10  N   UNL     1       4.589  -6.228   5.438  0.00  0.00    +0.379 N 
ATOM     11  C   UNL     1       4.654  -4.895   4.828  0.00  0.00    -0.082 C 
ATOM     12  C   UNL     1       4.264  -4.988   3.350  0.00  0.00    -0.010 C 
ATOM     13  H   UNL     1       4.904  -6.175   6.395  0.00  0.00    -0.086 HD
ATOM     14  H   UNL     1       5.184  -6.861   4.925  0.00  0.00    -0.086 HD
ENDROOT
BRANCH   5  15
ATOM     15  C   UNL     1       3.582  -5.256   0.862  0.00  0.00    +0.218 C 
ATOM     16  O   UNL     1       3.643  -4.099   0.506  0.00  0.00    -0.275 OA
ATOM     17  N   UNL     1       4.519  -6.136   0.457  0.00  0.00    -0.311 N 
ATOM     18  H   UNL     1       4.470  -7.062   0.741  0.00  0.00    +0.149 HD
BRANCH  17  19
ATOM     19  C   UNL     1       5.612  -5.694  -0.413  0.00  0.00    +0.140 C 
BRANCH  19  20
ATOM     20  C   UNL     1       6.515  -6.861  -0.718  0.00  0.00    -0.016 A 
ATOM     21  C   UNL     1       7.699  -7.019  -0.021  0.00  0.00    +0.006 A 
ATOM     22  C   UNL     1       8.527  -8.090  -0.300  0.00  0.00    +0.000 A 
ATOM     23  C   UNL     1       8.173  -9.003  -1.276  0.00  0.00    +0.001 A 
ATOM     24  C   UNL     1       6.989  -8.846  -1.973  0.00  0.00    +0.015 A 
ATOM     25  C   UNL     1       6.157  -7.777  -1.690  0.00  0.00    +0.023 A 
ATOM     26 BR   UNL     1       4.535  -7.566  -2.639  0.00  0.00    -0.050 Br
ENDBRANCH  19  20
ENDBRANCH  17  19
ENDBRANCH   5  15
BRANCH   1  27
ATOM     27  C   UNL     1       0.456  -1.893   1.348  0.00  0.00    +0.072 C 
ATOM     28  C   UNL     1       0.994  -0.477   1.129  0.00  0.00    +0.017 C 
BRANCH  27  29
ATOM     29  C   UNL     1      -1.066  -1.842   1.501  0.00  0.00    +0.012 C 
BRANCH  29  31
ATOM     30  C   UNL     1      -3.216  -1.318   0.343  0.00  0.00    +0.004 C 
ATOM     31  C   UNL     1      -1.695  -1.368   0.189  0.00  0.00    -0.003 C 
ENDBRANCH  29  31
ENDBRANCH  27  29
ENDBRANCH   1  27
TORSDOF 6
