REMARK  Name = ZINC19079740
REMARK  9 active torsions:
REMARK  status: ('A' for Active; 'I' for Inactive)
REMARK    1  A    between atoms: C_1  and  C_2
REMARK    2  A    between atoms: C_2  and  C_3
REMARK    3  A    between atoms: C_2  and  C_4
REMARK    4  A    between atoms: C_4  and  C_6
REMARK    5  A    between atoms: C_4  and  N_16
REMARK    6  A    between atoms: N_8  and  C_9
REMARK    7  A    between atoms: C_9  and  C_10
REMARK    8  A    between atoms: N_16  and  S_17
REMARK    9  A    between atoms: S_17  and  C_20
REMARK                            x       y       z     vdW  Elec       q    Type
REMARK                         _______ _______ _______ _____ _____    ______ ____
ROOT
ATOM      1  C   UNL     1      -1.702   2.146  -0.160  0.00  0.00    +0.165 C 
ENDROOT
BRANCH   1   2
ATOM      2  C   UNL     1      -0.487   1.381  -0.618  0.00  0.00    +0.232 C 
ATOM      3  O   UNL     1      -0.585   0.210  -0.918  0.00  0.00    -0.274 OA
ATOM      4  N   UNL     1       0.708   2.000  -0.700  0.00  0.00    -0.312 N 
ATOM      5  H   UNL     1       0.772   2.954  -0.535  0.00  0.00    +0.149 HD
BRANCH   4   6
ATOM      6  C   UNL     1       1.909   1.233  -1.038  0.00  0.00    +0.135 C 
BRANCH   6   7
ATOM      7  C   UNL     1       3.120   2.167  -1.065  0.00  0.00    +0.135 C 
ATOM      8  C   UNL     1       4.377   1.404  -1.540  0.00  0.00    +0.035 C 
ATOM      9  C   UNL     1       5.520   1.994  -0.684  0.00  0.00    +0.031 C 
ATOM     10  C   UNL     1       4.819   3.042   0.207  0.00  0.00    +0.160 C 
ATOM     11  O   UNL     1       3.442   2.611   0.271  0.00  0.00    -0.375 OA
ENDBRANCH   6   7
ENDBRANCH   4   6
ENDBRANCH   1   2
BRANCH   1  13
ATOM     12  C   UNL     1      -2.714   2.042  -2.442  0.00  0.00    +0.009 C 
ATOM     13  C   UNL     1      -2.250   2.976  -1.322  0.00  0.00    +0.010 C 
ATOM     14  C   UNL     1      -3.434   3.815  -0.836  0.00  0.00    +0.009 C 
ENDBRANCH   1  13
BRANCH   1  15
ATOM     15  N   UNL     1      -2.728   1.205   0.296  0.00  0.00    -0.178 NA
ATOM     16  H   UNL     1      -3.335   0.802  -0.345  0.00  0.00    +0.149 HD
BRANCH  15  17
ATOM     17  S   UNL     1      -2.851   0.828   1.903  0.00  0.00    +0.061 S 
ATOM     18  O   UNL     1      -3.921  -0.100   2.022  0.00  0.00    -0.153 OA
ATOM     19  O   UNL     1      -1.536   0.536   2.354  0.00  0.00    -0.153 OA
BRANCH  17  20
ATOM     20  C   UNL     1      -3.358   2.291   2.744  0.00  0.00    +0.133 A 
ATOM     21  C   UNL     1      -4.604   2.374   3.268  0.00  0.00    +0.031 A 
ATOM     22  C   UNL     1      -5.038   3.515   3.943  0.00  0.00    +0.004 A 
ATOM     23  C   UNL     1      -4.235   4.595   4.097  0.00  0.00    +0.031 A 
ATOM     24  C   UNL     1      -2.918   4.581   3.569  0.00  0.00    +0.102 A 
ATOM     25  C   UNL     1      -2.462   3.385   2.867  0.00  0.00    +0.126 A 
ATOM     26  N   UNL     1      -1.212   3.510   2.426  0.00  0.00    -0.189 NA
ATOM     27  S   UNL     1      -0.735   4.938   2.860  0.00  0.00    +0.117 S 
ATOM     28  N   UNL     1      -1.980   5.525   3.610  0.00  0.00    -0.191 NA
ENDBRANCH  17  20
ENDBRANCH  15  17
ENDBRANCH   1  15
TORSDOF 7
