REMARK  Name = ZINC49421277
REMARK  7 active torsions:
REMARK  status: ('A' for Active; 'I' for Inactive)
REMARK    1  A    between atoms: C_1  and  C_2
REMARK    2  A    between atoms: C_2  and  C_3
REMARK    3  A    between atoms: C_6  and  C_9
REMARK    4  A    between atoms: C_9  and  N_10
REMARK    5  A    between atoms: C_11  and  C_13
REMARK    6  A    between atoms: C_28  and  C_31
REMARK    7  A    between atoms: C_34  and  C_37
REMARK                            x       y       z     vdW  Elec       q    Type
REMARK                         _______ _______ _______ _____ _____    ______ ____
ROOT
ATOM      1  C   UNL     1       4.355  -0.028  -7.588  0.00  0.00    +0.092 C 
ATOM      2  C   UNL     1       5.128   0.948  -6.698  0.00  0.00    +0.016 C 
ATOM      3  C   UNL     1       5.359   2.257  -7.455  0.00  0.00    +0.020 C 
ATOM      4  C   UNL     1       6.197   1.978  -8.707  0.00  0.00    +0.108 C 
ATOM      5  N   UNL     1       5.531   0.933  -9.497  0.00  0.00    -0.300 N 
ATOM      6  C   UNL     1       5.181  -0.334  -8.841  0.00  0.00    +0.120 C 
ATOM      7  C   UNL     1       5.242   1.137 -10.825  0.00  0.00    +0.199 A 
ATOM      8  N   UNL     1       5.693   2.277 -11.425  0.00  0.00    -0.294 N 
ATOM      9  H   UNL     1       6.207   2.925 -10.918  0.00  0.00    +0.172 HD
ATOM     10  C   UNL     1       5.417   2.495 -12.733  0.00  0.00    +0.267 A 
ATOM     11  O   UNL     1       5.807   3.504 -13.295  0.00  0.00    -0.267 OA
ATOM     12  C   UNL     1       4.675   1.533 -13.418  0.00  0.00    +0.103 A 
ATOM     13  C   UNL     1       4.225   0.371 -12.775  0.00  0.00    +0.094 A 
ATOM     14  N   UNL     1       4.551   0.229 -11.462  0.00  0.00    -0.215 NA
ATOM     15  C   UNL     1       3.471  -0.506 -13.655  0.00  0.00    +0.015 A 
ATOM     16  C   UNL     1       3.293  -0.121 -14.945  0.00  0.00    +0.056 A 
ATOM     17  S   UNL     1       4.075   1.358 -15.074  0.00  0.00    -0.089 S 
ENDROOT
BRANCH  15  18
ATOM     18  C   UNL     1       2.912  -1.786 -13.159  0.00  0.00    -0.015 A 
ATOM     19  C   UNL     1       3.720  -2.676 -12.454  0.00  0.00    +0.009 A 
ATOM     20  C   UNL     1       3.194  -3.866 -11.993  0.00  0.00    +0.004 A 
ATOM     21  C   UNL     1       1.867  -4.176 -12.231  0.00  0.00    -0.050 A 
ATOM     22  C   UNL     1       1.060  -3.297 -12.930  0.00  0.00    +0.004 A 
ATOM     23  C   UNL     1       1.573  -2.101 -13.390  0.00  0.00    +0.009 A 
ATOM     24  C   UNL     1       1.298  -5.477 -11.726  0.00  0.00    +0.044 C 
ENDBRANCH  15  18
BRANCH   1  26
ATOM     25  N   UNL     1       3.390  -1.279  -5.684  0.00  0.00    -0.311 N 
ATOM     26  C   UNL     1       4.100  -1.306  -6.830  0.00  0.00    +0.218 C 
ATOM     27  O   UNL     1       4.534  -2.357  -7.250  0.00  0.00    -0.275 OA
ATOM     28  H   UNL     1       3.043  -0.438  -5.348  0.00  0.00    +0.149 HD
BRANCH  25  29
ATOM     29  C   UNL     1       3.142  -2.521  -4.947  0.00  0.00    +0.139 C 
BRANCH  29  33
ATOM     30  C   UNL     1       0.844  -1.668  -1.449  0.00  0.00    -0.048 A 
ATOM     31  C   UNL     1       0.207  -1.972  -2.637  0.00  0.00    +0.004 A 
ATOM     32  C   UNL     1       0.950  -2.248  -3.769  0.00  0.00    +0.005 A 
ATOM     33  C   UNL     1       2.331  -2.219  -3.713  0.00  0.00    -0.030 A 
ATOM     34  C   UNL     1       2.969  -1.914  -2.525  0.00  0.00    +0.005 A 
ATOM     35  C   UNL     1       2.225  -1.634  -1.394  0.00  0.00    +0.004 A 
BRANCH  30  37
ATOM     36  C   UNL     1      -0.261   0.133  -0.151  0.00  0.00    +0.009 C 
ATOM     37  C   UNL     1       0.034  -1.367  -0.214  0.00  0.00    +0.032 C 
ENDBRANCH  30  37
ENDBRANCH  29  33
ENDBRANCH  25  29
ENDBRANCH   1  26
TORSDOF 5
