REMARK  Name = ZINC06408573
REMARK  9 active torsions:
REMARK  status: ('A' for Active; 'I' for Inactive)
REMARK    1  A    between atoms: C_1  and  C_2
REMARK    2  A    between atoms: C_9  and  C_14
REMARK    3  A    between atoms: C_14  and  C_16
REMARK    4  A    between atoms: C_14  and  N_67
REMARK    5  A    between atoms: N_20  and  C_21
REMARK    6  A    between atoms: C_26  and  C_27
REMARK    7  A    between atoms: C_26  and  N_67
REMARK    8  A    between atoms: C_34  and  C_35
REMARK    9  A    between atoms: C_34  and  N_67
REMARK                            x       y       z     vdW  Elec       q    Type
REMARK                         _______ _______ _______ _____ _____    ______ ____
ROOT
ATOM      1  C   UNL     1      -5.022   0.936   0.666  0.00  0.00    +0.040 C 
ENDROOT
BRANCH   1  10
ATOM      2  C   UNL     1       2.041  -0.754   2.361  0.00  0.00    +0.044 C 
ATOM      3  C   UNL     1       0.931   0.254   2.211  0.00  0.00    -0.050 A 
ATOM      4  C   UNL     1       1.176   1.593   2.482  0.00  0.00    +0.005 A 
ATOM      5  C   UNL     1       0.175   2.532   2.351  0.00  0.00    +0.026 A 
ATOM      6  C   UNL     1      -1.095   2.135   1.945  0.00  0.00    +0.049 A 
ATOM      7  C   UNL     1      -1.338   0.777   1.666  0.00  0.00    -0.001 A 
ATOM      8  C   UNL     1      -0.308  -0.159   1.810  0.00  0.00    +0.013 A 
ATOM      9  C   UNL     1      -2.676   0.370   1.232  0.00  0.00    +0.017 A 
ATOM     10  C   UNL     1      -3.634   1.321   1.110  0.00  0.00    +0.011 A 
ATOM     11  C   UNL     1      -3.337   2.671   1.397  0.00  0.00    +0.251 A 
ATOM     12  O   UNL     1      -4.213   3.510   1.279  0.00  0.00    -0.268 OA
ATOM     13  N   UNL     1      -2.114   3.053   1.806  0.00  0.00    -0.322 N 
ATOM     14  H   UNL     1      -1.944   3.989   1.995  0.00  0.00    +0.169 HD
ENDBRANCH   1  10
BRANCH   1  15
ATOM     15  C   UNL     1      -5.998   1.196   1.785  0.00  0.00    +0.143 A 
ATOM     16  N   UNL     1      -6.651   2.310   2.011  0.00  0.00    -0.115 NA
ATOM     17  N   UNL     1      -7.385   2.136   3.055  0.00  0.00    -0.023 NA
ATOM     18  N   UNL     1      -7.211   0.943   3.506  0.00  0.00    -0.044 NA
ATOM     19  N   UNL     1      -6.362   0.332   2.751  0.00  0.00    -0.227 N 
BRANCH  19  20
ATOM     20  C   UNL     1      -5.885  -1.044   2.912  0.00  0.00    +0.111 C 
ATOM     21  C   UNL     1      -7.081  -2.018   2.939  0.00  0.00    +0.027 C 
ATOM     22  C   UNL     1      -6.673  -3.091   3.980  0.00  0.00    +0.002 C 
ATOM     23  C   UNL     1      -5.945  -2.257   5.063  0.00  0.00    +0.002 C 
ATOM     24  C   UNL     1      -5.163  -1.196   4.262  0.00  0.00    +0.027 C 
ENDBRANCH  19  20
ENDBRANCH   1  15
BRANCH   1  25
ATOM     25  N   UNL     1      -5.401   1.762  -0.500  0.00  0.00    +0.397 N 
ATOM     26  H   UNL     1      -5.451   2.746  -0.210  0.00  0.00    -0.079 HD
BRANCH  25  27
ATOM     27  C   UNL     1      -6.725   1.343  -1.007  0.00  0.00    -0.041 C 
BRANCH  27  28
ATOM     28  C   UNL     1      -6.699  -0.108  -1.413  0.00  0.00    -0.064 A 
ATOM     29  C   UNL     1      -6.362  -0.457  -2.708  0.00  0.00    +0.003 A 
ATOM     30  C   UNL     1      -6.334  -1.788  -3.080  0.00  0.00    +0.020 A 
ATOM     31  C   UNL     1      -6.653  -2.770  -2.160  0.00  0.00    +0.041 A 
ATOM     32  C   UNL     1      -6.995  -2.420  -0.866  0.00  0.00    +0.020 A 
ATOM     33  C   UNL     1      -7.019  -1.089  -0.493  0.00  0.00    +0.003 A 
ATOM     34 CL   UNL     1      -6.623  -4.442  -2.628  0.00  0.00    -0.084 Cl
ENDBRANCH  27  28
ENDBRANCH  25  27
BRANCH  25  35
ATOM     35  C   UNL     1      -4.386   1.627  -1.565  0.00  0.00    -0.001 C 
BRANCH  35  36
ATOM     36  C   UNL     1      -4.607   2.714  -2.585  0.00  0.00    +0.089 A 
ATOM     37  C   UNL     1      -3.998   3.914  -2.601  0.00  0.00    +0.042 A 
ATOM     38  C   UNL     1      -4.499   4.613  -3.723  0.00  0.00    +0.041 A 
ATOM     39  C   UNL     1      -5.384   3.799  -4.326  0.00  0.00    +0.195 A 
ATOM     40  O   UNL     1      -5.441   2.648  -3.636  0.00  0.00    -0.470 OA
ENDBRANCH  35  36
ENDBRANCH  25  35
ENDBRANCH   1  25
TORSDOF 8
