REMARK  Name = ZINC03461644
REMARK  9 active torsions:
REMARK  status: ('A' for Active; 'I' for Inactive)
REMARK    1  A    between atoms: C_1  and  C_2
REMARK    2  A    between atoms: C_4  and  C_28
REMARK    3  A    between atoms: C_8  and  C_27
REMARK    4  A    between atoms: C_10  and  S_12
REMARK    5  A    between atoms: S_12  and  C_13
REMARK    6  A    between atoms: C_13  and  C_14
REMARK    7  A    between atoms: N_16  and  C_17
REMARK    8  A    between atoms: C_20  and  S_23
REMARK    9  A    between atoms: S_23  and  N_26
REMARK                            x       y       z     vdW  Elec       q    Type
REMARK                         _______ _______ _______ _____ _____    ______ ____
ROOT
ATOM      1  C   UNL     1       4.197   5.108  -0.009  0.00  0.00    +0.227 C 
ATOM      2  O   UNL     1       5.352   4.736  -0.013  0.00  0.00    -0.275 OA
ATOM      3  N   UNL     1       3.914   6.426  -0.001  0.00  0.00    -0.285 N 
ATOM      4  H   UNL     1       2.993   6.724  -0.065  0.00  0.00    +0.155 HD
ENDROOT
BRANCH   3   5
ATOM      5  C   UNL     1       4.947   7.363   0.100  0.00  0.00    +0.034 A 
ATOM      6  C   UNL     1       4.748   8.546   0.800  0.00  0.00    +0.025 A 
ATOM      7  C   UNL     1       5.772   9.467   0.903  0.00  0.00    +0.030 A 
ATOM      8  C   UNL     1       6.991   9.217   0.300  0.00  0.00    +0.105 A 
ATOM      9  C   UNL     1       7.191   8.043  -0.403  0.00  0.00    +0.030 A 
ATOM     10  C   UNL     1       6.173   7.116  -0.504  0.00  0.00    +0.025 A 
BRANCH   8  11
ATOM     11  S   UNL     1       8.293  10.398   0.428  0.00  0.00    +0.056 S 
ATOM     12  O   UNL     1       8.033  11.164   1.596  0.00  0.00    -0.153 OA
ATOM     13  O   UNL     1       9.508   9.685   0.239  0.00  0.00    -0.153 OA
BRANCH  11  14
ATOM     14  N   UNL     1       8.145  11.430  -0.859  0.00  0.00    -0.204 NA
ATOM     15  H   UNL     1       8.436  12.352  -0.777  0.00  0.00    +0.144 HD
ATOM     16  H   UNL     1       7.768  11.113  -1.694  0.00  0.00    +0.144 HD
ENDBRANCH  11  14
ENDBRANCH   8  11
ENDBRANCH   3   5
BRANCH   1  17
ATOM     17  C   UNL     1       3.080   4.096  -0.012  0.00  0.00    +0.171 C 
BRANCH  17  18
ATOM     18  S   UNL     1       3.779   2.427  -0.023  0.00  0.00    -0.097 S 
BRANCH  18  28
ATOM     19  C   UNL     1      -3.688  -0.796  -0.024  0.00  0.00    +0.044 C 
ATOM     20  C   UNL     1      -2.389  -0.033  -0.023  0.00  0.00    -0.050 A 
ATOM     21  C   UNL     1      -2.411   1.360  -0.016  0.00  0.00    +0.008 A 
ATOM     22  C   UNL     1      -1.255   2.080  -0.009  0.00  0.00    -0.024 A 
ATOM     23  C   UNL     1      -0.018   1.413  -0.021  0.00  0.00    +0.075 A 
ATOM     24  C   UNL     1       0.001  -0.004  -0.029  0.00  0.00    +0.004 A 
ATOM     25  C   UNL     1      -1.209  -0.713  -0.030  0.00  0.00    +0.013 A 
ATOM     26  C   UNL     1       1.242  -0.673  -0.035  0.00  0.00    -0.039 A 
ATOM     27  C   UNL     1       2.380   0.075  -0.033  0.00  0.00    +0.038 A 
ATOM     28  C   UNL     1       2.296   1.475  -0.025  0.00  0.00    +0.098 A 
ATOM     29  N   UNL     1       1.133   2.095  -0.019  0.00  0.00    -0.240 NA
ATOM     30  C   UNL     1       1.307  -2.179  -0.044  0.00  0.00    +0.044 C 
ATOM     31  C   UNL     1      -1.302   3.586   0.001  0.00  0.00    +0.046 C 
ENDBRANCH  18  28
ENDBRANCH  17  18
ENDBRANCH   1  17
TORSDOF 6
