REMARK  Name = ZINC64752481
REMARK  10 active torsions:
REMARK  status: ('A' for Active; 'I' for Inactive)
REMARK    1  A    between atoms: C_1  and  C_2
REMARK    2  A    between atoms: C_3  and  C_13
REMARK    3  A    between atoms: N_9  and  C_12
REMARK    4  A    between atoms: N_15  and  C_16
REMARK    5  A    between atoms: C_16  and  C_17
REMARK    6  A    between atoms: C_21  and  N_23
REMARK    7  A    between atoms: C_24  and  C_26
REMARK    8  A    between atoms: C_26  and  C_27
REMARK    9  A    between atoms: C_27  and  C_28
REMARK   10  A    between atoms: C_27  and  C_29
REMARK                            x       y       z     vdW  Elec       q    Type
REMARK                         _______ _______ _______ _____ _____    ______ ____
ROOT
ATOM      1  C   UNL     1      -2.125  -0.659   0.426  0.00  0.00    +0.248 C 
ATOM      2  O   UNL     1      -2.561  -0.455  -0.691  0.00  0.00    -0.270 OA
ATOM      3  N   UNL     1      -2.890  -0.404   1.506  0.00  0.00    -0.307 N 
ATOM      4  H   UNL     1      -2.543  -0.568   2.396  0.00  0.00    +0.149 HD
ENDROOT
BRANCH   1   7
ATOM      5  C   UNL     1       0.479   1.036   0.723  0.00  0.00    +0.087 C 
ATOM      6  C   UNL     1       0.389  -0.469   0.731  0.00  0.00    +0.117 A 
ATOM      7  C   UNL     1      -0.761  -1.186   0.599  0.00  0.00    +0.092 A 
ATOM      8  C   UNL     1      -0.354  -2.599   0.666  0.00  0.00    +0.117 A 
ATOM      9  C   UNL     1       1.031  -2.587   0.835  0.00  0.00    +0.235 A 
ATOM     10  O   UNL     1       1.427  -1.304   0.862  0.00  0.00    -0.441 OA
ATOM     11  N   UNL     1       1.683  -3.756   0.928  0.00  0.00    -0.202 NA
ATOM     12  C   UNL     1       1.050  -4.894   0.863  0.00  0.00    +0.205 A 
ATOM     13  N   UNL     1      -0.294  -4.969   0.700  0.00  0.00    -0.302 N 
ATOM     14  C   UNL     1      -1.029  -3.837   0.597  0.00  0.00    +0.265 A 
ATOM     15  O   UNL     1      -2.238  -3.885   0.451  0.00  0.00    -0.267 OA
ATOM     16  C   UNL     1      -0.952  -6.276   0.634  0.00  0.00    +0.153 C 
ENDBRANCH   1   7
BRANCH   3  17
ATOM     17  C   UNL     1      -4.247   0.120   1.334  0.00  0.00    +0.140 C 
BRANCH  17  18
ATOM     18  C   UNL     1      -4.885   0.316   2.685  0.00  0.00    -0.029 A 
ATOM     19  C   UNL     1      -5.599  -0.714   3.269  0.00  0.00    +0.005 A 
ATOM     20  C   UNL     1      -6.185  -0.538   4.508  0.00  0.00    +0.002 A 
ATOM     21  C   UNL     1      -6.058   0.669   5.169  0.00  0.00    +0.023 A 
ATOM     22  C   UNL     1      -5.342   1.706   4.586  0.00  0.00    +0.034 A 
ATOM     23  C   UNL     1      -4.750   1.524   3.342  0.00  0.00    +0.028 A 
BRANCH  22  24
ATOM     24  N   UNL     1      -5.212   2.929   5.251  0.00  0.00    -0.285 N 
ATOM     25  C   UNL     1      -5.144   2.961   6.597  0.00  0.00    +0.217 C 
ATOM     26  O   UNL     1      -5.099   1.925   7.226  0.00  0.00    -0.275 OA
ATOM     27  H   UNL     1      -5.171   3.755   4.744  0.00  0.00    +0.155 HD
BRANCH  25  28
ATOM     28  C   UNL     1      -5.124   4.283   7.320  0.00  0.00    +0.099 C 
BRANCH  28  29
ATOM     29  C   UNL     1      -5.044   4.038   8.828  0.00  0.00    -0.008 C 
ATOM     30  C   UNL     1      -3.709   3.371   9.167  0.00  0.00    +0.008 C 
ATOM     31  C   UNL     1      -5.149   5.373   9.568  0.00  0.00    +0.008 C 
ENDBRANCH  28  29
ENDBRANCH  25  28
ENDBRANCH  22  24
ENDBRANCH  17  18
ENDBRANCH   3  17
TORSDOF 6
