REMARK  Name = ZINC00721348
REMARK  9 active torsions:
REMARK  status: ('A' for Active; 'I' for Inactive)
REMARK    1  A    between atoms: C_1  and  O_2
REMARK    2  A    between atoms: O_2  and  C_3
REMARK    3  A    between atoms: C_3  and  C_5
REMARK    4  A    between atoms: C_9  and  N_10
REMARK    5  A    between atoms: N_10  and  C_11
REMARK    6  A    between atoms: C_11  and  C_12
REMARK    7  A    between atoms: C_11  and  C_16
REMARK    8  A    between atoms: C_11  and  N_20
REMARK    9  A    between atoms: C_21  and  C_23
REMARK                            x       y       z     vdW  Elec       q    Type
REMARK                         _______ _______ _______ _____ _____    ______ ____
ROOT
ATOM      1  C   UNL     1      -2.316   1.149   0.041  0.00  0.00    +0.293 C 
ENDROOT
BRANCH   1   2
ATOM      2  C   UNL     1      -1.915   0.755   1.464  0.00  0.00    +0.436 C 
ATOM      3  F   UNL     1      -0.916  -0.223   1.414  0.00  0.00    -0.166 F 
ATOM      4  F   UNL     1      -1.433   1.880   2.142  0.00  0.00    -0.166 F 
ATOM      5  F   UNL     1      -3.031   0.247   2.139  0.00  0.00    -0.166 F 
ENDBRANCH   1   2
BRANCH   1   6
ATOM      6  C   UNL     1      -1.124   1.802  -0.661  0.00  0.00    +0.436 C 
ATOM      7  F   UNL     1      -1.523   2.268  -1.919  0.00  0.00    -0.166 F 
ATOM      8  F   UNL     1      -0.660   2.874   0.108  0.00  0.00    -0.166 F 
ATOM      9  F   UNL     1      -0.101   0.861  -0.816  0.00  0.00    -0.166 F 
ENDBRANCH   1   6
BRANCH   1  10
ATOM     10  N   UNL     1      -2.724  -0.047  -0.700  0.00  0.00    -0.274 N 
ATOM     11  C   UNL     1      -3.343   0.077  -1.891  0.00  0.00    +0.281 C 
ATOM     12  O   UNL     1      -3.638   1.180  -2.311  0.00  0.00    -0.267 OA
ATOM     13  H   UNL     1      -2.550  -0.928  -0.334  0.00  0.00    +0.152 HD
BRANCH  11  14
ATOM     14  C   UNL     1      -3.656  -1.117  -2.682  0.00  0.00    +0.189 A 
ATOM     15  C   UNL     1      -4.272  -1.134  -3.901  0.00  0.00    +0.054 A 
ATOM     16  C   UNL     1      -4.368  -2.480  -4.287  0.00  0.00    +0.042 A 
ATOM     17  C   UNL     1      -3.813  -3.217  -3.299  0.00  0.00    +0.196 A 
ATOM     18  O   UNL     1      -3.380  -2.392  -2.337  0.00  0.00    -0.458 OA
ENDBRANCH  11  14
ENDBRANCH   1  10
BRANCH   1  19
ATOM     19  N   UNL     1      -3.432   2.096   0.093  0.00  0.00    -0.303 N 
ATOM     20  H   UNL     1      -3.276   3.039  -0.073  0.00  0.00    +0.149 HD
BRANCH  19  25
ATOM     21  C   UNL     1      -5.883   2.373   0.440  0.00  0.00    +0.090 A 
ATOM     22  C   UNL     1      -7.128   1.654   0.747  0.00  0.00    -0.021 A 
ATOM     23  C   UNL     1      -6.958   0.344   0.981  0.00  0.00    -0.004 A 
ATOM     24  S   UNL     1      -5.224   0.039   0.755  0.00  0.00    -0.078 S 
ATOM     25  C   UNL     1      -4.707   1.647   0.379  0.00  0.00    +0.082 A 
ATOM     26  C   UNL     1      -7.977  -0.674   1.411  0.00  0.00    +0.043 C 
ATOM     27  C   UNL     1      -8.154  -0.508   2.931  0.00  0.00    +0.005 C 
ATOM     28  C   UNL     1      -8.485   0.962   3.219  0.00  0.00    +0.000 C 
ATOM     29  C   UNL     1      -9.795   1.225   2.509  0.00  0.00    +0.000 C 
ATOM     30  C   UNL     1      -9.646   1.546   1.032  0.00  0.00    +0.005 C 
ATOM     31  C   UNL     1      -8.443   2.436   0.746  0.00  0.00    +0.037 C 
BRANCH  21  32
ATOM     32  C   UNL     1      -5.889   3.816   0.202  0.00  0.00    +0.342 C 
ATOM     33  O   UNL     1      -6.050   4.247  -0.924  0.00  0.00    -0.245 OA
BRANCH  32  35
ATOM     34  C   UNL     1      -5.731   6.066   0.927  0.00  0.00    +0.280 C 
ATOM     35  O   UNL     1      -5.715   4.670   1.232  0.00  0.00    -0.464 OA
ENDBRANCH  32  35
ENDBRANCH  21  32
ENDBRANCH  19  25
ENDBRANCH   1  19
TORSDOF 8
