REMARK  Name = ZINC12471063
REMARK  11 active torsions:
REMARK  status: ('A' for Active; 'I' for Inactive)
REMARK    1  A    between atoms: C_1  and  C_2
REMARK    2  A    between atoms: C_2  and  C_3
REMARK    3  A    between atoms: C_8  and  N_9
REMARK    4  A    between atoms: N_9  and  C_10
REMARK    5  A    between atoms: C_10  and  N_12
REMARK    6  A    between atoms: N_12  and  C_13
REMARK    7  A    between atoms: N_12  and  C_20
REMARK    8  A    between atoms: C_13  and  C_14
REMARK    9  A    between atoms: C_14  and  N_65
REMARK   10  A    between atoms: C_20  and  C_21
REMARK   11  A    between atoms: C_27  and  C_33
REMARK                            x       y       z     vdW  Elec       q    Type
REMARK                         _______ _______ _______ _____ _____    ______ ____
ROOT
ATOM      1  N   UNL     1      -0.230   1.011  -0.267  0.00  0.00    -0.310 N 
ENDROOT
BRANCH   1   2
ATOM      2  C   UNL     1      -0.433  -0.317  -0.168  0.00  0.00    +0.137 C 
ATOM      3  S   UNL     1      -2.026  -0.944  -0.199  0.00  0.00    -0.018 S 
BRANCH   2   4
ATOM      4  N   UNL     1       0.617  -1.153  -0.046  0.00  0.00    -0.297 N 
ATOM      5  H   UNL     1       1.514  -0.794   0.041  0.00  0.00    +0.154 HD
BRANCH   4  11
ATOM      6  C   UNL     1       1.216  -3.358  -0.826  0.00  0.00    -0.026 A 
ATOM      7  C   UNL     1       1.014  -4.725  -0.822  0.00  0.00    +0.005 A 
ATOM      8  C   UNL     1       0.013  -5.274  -0.042  0.00  0.00    +0.000 A 
ATOM      9  C   UNL     1      -0.788  -4.459   0.737  0.00  0.00    +0.002 A 
ATOM     10  C   UNL     1      -0.587  -3.093   0.742  0.00  0.00    +0.023 A 
ATOM     11  C   UNL     1       0.414  -2.537  -0.045  0.00  0.00    +0.036 A 
BRANCH   6  13
ATOM     12  C   UNL     1       3.570  -2.578  -0.831  0.00  0.00    +0.009 C 
ATOM     13  C   UNL     1       2.308  -2.760  -1.676  0.00  0.00    +0.033 C 
ENDBRANCH   6  13
ENDBRANCH   4  11
ENDBRANCH   2   4
ENDBRANCH   1   2
BRANCH   1  14
ATOM     14  C   UNL     1       1.122   1.558  -0.124  0.00  0.00    +0.088 C 
BRANCH  14  15
ATOM     15  C   UNL     1       1.798   1.612  -1.495  0.00  0.00    -0.059 C 
BRANCH  15  21
ATOM     16  C   UNL     1       3.110   3.569  -0.935  0.00  0.00    -0.050 C 
ATOM     17  C   UNL     1       4.539   4.082  -0.740  0.00  0.00    +0.141 C 
ATOM     18  O   UNL     1       5.276   3.898  -1.952  0.00  0.00    -0.383 OA
ATOM     19  C   UNL     1       5.338   2.537  -2.387  0.00  0.00    +0.141 C 
ATOM     20  C   UNL     1       3.917   2.009  -2.599  0.00  0.00    -0.050 C 
ATOM     21  N   UNL     1       3.167   2.147  -1.333  0.00  0.00    +0.384 N 
ATOM     22  H   UNL     1       3.648   1.614  -0.599  0.00  0.00    -0.082 HD
ENDBRANCH  15  21
ENDBRANCH  14  15
ENDBRANCH   1  14
BRANCH   1  23
ATOM     23  C   UNL     1      -1.360   1.908  -0.523  0.00  0.00    +0.147 C 
BRANCH  23  24
ATOM     24  C   UNL     1      -1.554   2.059  -2.010  0.00  0.00    +0.035 A 
ATOM     25  C   UNL     1      -2.432   1.257  -2.661  0.00  0.00    +0.020 A 
ATOM     26  C   UNL     1      -2.601   1.432  -4.105  0.00  0.00    -0.001 A 
ATOM     27  C   UNL     1      -3.495   0.637  -4.830  0.00  0.00    +0.010 A 
ATOM     28  C   UNL     1      -3.626   0.823  -6.177  0.00  0.00    +0.001 A 
ATOM     29  C   UNL     1      -2.880   1.793  -6.833  0.00  0.00    +0.005 A 
ATOM     30  C   UNL     1      -1.993   2.587  -6.138  0.00  0.00    -0.026 A 
ATOM     31  C   UNL     1      -1.843   2.416  -4.766  0.00  0.00    +0.052 A 
ATOM     32  N   UNL     1      -0.963   3.196  -4.046  0.00  0.00    -0.322 N 
ATOM     33  H   UNL     1      -0.441   3.874  -4.504  0.00  0.00    +0.169 HD
ATOM     34  C   UNL     1      -0.818   3.032  -2.720  0.00  0.00    +0.254 A 
ATOM     35  O   UNL     1      -0.031   3.739  -2.116  0.00  0.00    -0.268 OA
ATOM     36  C   UNL     1      -1.188   3.635  -6.863  0.00  0.00    +0.046 C 
ENDBRANCH  23  24
ENDBRANCH   1  23
TORSDOF 9
