REMARK  Name = ZINC13261194
REMARK  6 active torsions:
REMARK  status: ('A' for Active; 'I' for Inactive)
REMARK    1  A    between atoms: C_1  and  O_2
REMARK    2  A    between atoms: O_2  and  C_3
REMARK    3  A    between atoms: C_5  and  N_12
REMARK    4  A    between atoms: C_8  and  C_9
REMARK    5  A    between atoms: C_13  and  C_15
REMARK    6  A    between atoms: C_16  and  C_17
REMARK                            x       y       z     vdW  Elec       q    Type
REMARK                         _______ _______ _______ _____ _____    ______ ____
ROOT
ATOM      1  N   UNL     1       2.347   8.412  -5.634  0.00  0.00    -0.281 N 
ATOM      2  C   UNL     1       1.682   8.239  -4.475  0.00  0.00    +0.241 C 
ATOM      3  O   UNL     1       1.368   9.204  -3.803  0.00  0.00    -0.270 OA
ATOM      4  H   UNL     1       2.655   7.641  -6.137  0.00  0.00    +0.155 HD
ENDROOT
BRANCH   1   7
ATOM      5  C   UNL     1       3.095  12.007  -5.693  0.00  0.00    +0.136 A 
ATOM      6  C   UNL     1       2.846  10.731  -5.219  0.00  0.00    +0.071 A 
ATOM      7  C   UNL     1       2.591   9.698  -6.112  0.00  0.00    +0.056 A 
ATOM      8  C   UNL     1       2.574   9.944  -7.484  0.00  0.00    +0.063 A 
ATOM      9  C   UNL     1       2.812  11.201  -7.963  0.00  0.00    +0.040 A 
ATOM     10  C   UNL     1       3.076  12.251  -7.075  0.00  0.00    +0.106 A 
ATOM     11 CL   UNL     1       2.248   8.647  -8.591  0.00  0.00    -0.082 Cl
BRANCH  10  12
ATOM     12  C   UNL     1       3.332  13.606  -7.590  0.00  0.00    +0.390 C 
ATOM     13  O   UNL     1       3.561  14.516  -6.818  0.00  0.00    -0.240 OA
ATOM     14  O   UNL     1       3.312  13.837  -8.918  0.00  0.00    -0.240 OA
ENDBRANCH  10  12
BRANCH   5  16
ATOM     15  C   UNL     1       3.352  12.695  -3.434  0.00  0.00    +0.277 C 
ATOM     16  O   UNL     1       3.349  13.019  -4.826  0.00  0.00    -0.494 OA
ENDBRANCH   5  16
ENDBRANCH   1   7
BRANCH   2  17
ATOM     17  C   UNL     1       1.339   6.891  -4.023  0.00  0.00    +0.068 C 
ATOM     18  C   UNL     1       0.673   6.718  -2.862  0.00  0.00    +0.013 C 
BRANCH  18  19
ATOM     19  C   UNL     1       0.327   5.363  -2.408  0.00  0.00    -0.020 A 
ATOM     20  C   UNL     1      -0.363   5.182  -1.203  0.00  0.00    +0.057 A 
ATOM     21  C   UNL     1      -0.683   3.905  -0.786  0.00  0.00    +0.164 A 
ATOM     22  C   UNL     1      -0.321   2.806  -1.556  0.00  0.00    +0.180 A 
ATOM     23  C   UNL     1       0.364   2.981  -2.751  0.00  0.00    +0.087 A 
ATOM     24  C   UNL     1       0.688   4.252  -3.179  0.00  0.00    +0.031 A 
ATOM     25 CL   UNL     1       0.812   1.603  -3.707  0.00  0.00    -0.080 Cl
ATOM     26  O   UNL     1      -0.644   1.551  -1.130  0.00  0.00    -0.487 OA
ATOM     27  C   UNL     1       0.040   1.092   0.037  0.00  0.00    +0.232 C 
ATOM     28  C   UNL     1      -0.660   1.576   1.297  0.00  0.00    +0.082 C 
ATOM     29  C   UNL     1      -0.618   3.090   1.437  0.00  0.00    +0.232 C 
ATOM     30  O   UNL     1      -1.357   3.715   0.386  0.00  0.00    -0.488 OA
ENDBRANCH  18  19
ENDBRANCH   2  17
TORSDOF 5
