REMARK  Name = ZINC09361083
REMARK  9 active torsions:
REMARK  status: ('A' for Active; 'I' for Inactive)
REMARK    1  A    between atoms: C_1  and  C_2
REMARK    2  A    between atoms: C_4  and  S_8
REMARK    3  A    between atoms: S_8  and  C_9
REMARK    4  A    between atoms: C_9  and  C_27
REMARK    5  A    between atoms: C_10  and  C_11
REMARK    6  A    between atoms: C_14  and  C_16
REMARK    7  A    between atoms: C_20  and  C_22
REMARK    8  A    between atoms: C_22  and  O_24
REMARK    9  A    between atoms: O_24  and  C_25
REMARK                            x       y       z     vdW  Elec       q    Type
REMARK                         _______ _______ _______ _____ _____    ______ ____
ROOT
ATOM      1  C   UNL     1      -4.636  -3.298  -0.363  0.00  0.00    +0.130 A 
ATOM      2  C   UNL     1      -3.986  -4.494  -0.608  0.00  0.00    +0.050 A 
ATOM      3  C   UNL     1      -2.624  -4.197  -0.717  0.00  0.00    +0.050 A 
ATOM      4  C   UNL     1      -2.490  -2.850  -0.538  0.00  0.00    +0.136 A 
ATOM      5  O   UNL     1      -3.707  -2.319  -0.320  0.00  0.00    -0.455 OA
ENDROOT
BRANCH   4   6
ATOM      6  C   UNL     1      -1.218  -2.101  -0.572  0.00  0.00    +0.018 A 
ATOM      7  C   UNL     1      -0.014  -2.775  -0.803  0.00  0.00    +0.013 A 
ATOM      8  C   UNL     1       1.175  -2.076  -0.835  0.00  0.00    +0.021 A 
ATOM      9  C   UNL     1       1.187  -0.708  -0.639  0.00  0.00    +0.055 A 
ATOM     10  C   UNL     1      -0.010  -0.022  -0.406  0.00  0.00    +0.078 A 
ATOM     11  C   UNL     1      -1.214  -0.722  -0.367  0.00  0.00    +0.028 A 
ATOM     12 CL   UNL     1       2.689   0.161  -0.681  0.00  0.00    -0.083 Cl
BRANCH  10  13
ATOM     13  C   UNL     1       0.003   1.440  -0.197  0.00  0.00    +0.340 C 
ATOM     14  O   UNL     1       1.054   2.048  -0.226  0.00  0.00    -0.245 OA
BRANCH  13  15
ATOM     15  O   UNL     1      -1.151   2.100   0.022  0.00  0.00    -0.464 OA
ATOM     16  C   UNL     1      -1.062   3.535   0.219  0.00  0.00    +0.280 C 
ENDBRANCH  13  15
ENDBRANCH  10  13
ENDBRANCH   4   6
BRANCH   1  18
ATOM     17  C   UNL     1      -6.527  -1.912   0.169  0.00  0.00    +0.107 C 
ATOM     18  C   UNL     1      -6.027  -3.130  -0.182  0.00  0.00    +0.068 C 
BRANCH  17  19
ATOM     19  C   UNL     1      -5.637  -0.754   0.257  0.00  0.00    +0.393 C 
ATOM     20  O   UNL     1      -5.113  -0.468   1.317  0.00  0.00    -0.240 OA
ATOM     21  O   UNL     1      -5.397  -0.003  -0.838  0.00  0.00    -0.240 OA
ENDBRANCH  17  19
BRANCH  17  22
ATOM     22  S   UNL     1      -8.244  -1.732   0.518  0.00  0.00    -0.043 S 
BRANCH  22  26
ATOM     23  C   UNL     1      -6.413  -0.645   5.324  0.00  0.00    +0.090 C 
ATOM     24  C   UNL     1      -7.394  -0.905   4.210  0.00  0.00    +0.149 A 
ATOM     25  N   UNL     1      -7.073  -1.184   2.947  0.00  0.00    -0.206 NA
ATOM     26  C   UNL     1      -8.169  -1.351   2.237  0.00  0.00    +0.189 A 
ATOM     27  N   UNL     1      -9.226  -1.184   3.062  0.00  0.00    -0.253 N 
ATOM     28  H   UNL     1     -10.164  -1.249   2.826  0.00  0.00    +0.191 HD
ATOM     29  N   UNL     1      -8.695  -0.897   4.330  0.00  0.00    -0.157 NA
ENDBRANCH  22  26
ENDBRANCH  17  22
ENDBRANCH   1  18
TORSDOF 7
