REMARK  Name = ZINC15732073
REMARK  6 active torsions:
REMARK  status: ('A' for Active; 'I' for Inactive)
REMARK    1  A    between atoms: C_5  and  C_7
REMARK    2  A    between atoms: C_7  and  N_57
REMARK    3  A    between atoms: C_10  and  C_13
REMARK    4  A    between atoms: C_13  and  N_14
REMARK    5  A    between atoms: N_14  and  S_15
REMARK    6  A    between atoms: S_15  and  C_18
REMARK                            x       y       z     vdW  Elec       q    Type
REMARK                         _______ _______ _______ _____ _____    ______ ____
ROOT
ATOM      1  N   UNL     1      -1.462   0.551   1.377  0.00  0.00    -0.190 NA
ATOM      2  H   UNL     1      -2.129   1.256   1.352  0.00  0.00    +0.148 HD
ENDROOT
BRANCH   1   3
ATOM      3  S   UNL     1      -1.275  -0.362   2.745  0.00  0.00    +0.058 S 
ATOM      4  O   UNL     1      -2.202   0.139   3.698  0.00  0.00    -0.153 OA
ATOM      5  O   UNL     1      -1.270  -1.721   2.328  0.00  0.00    -0.153 OA
BRANCH   3   6
ATOM      6  C   UNL     1       0.334  -0.025   3.380  0.00  0.00    +0.107 A 
ATOM      7  C   UNL     1       1.409  -0.793   2.973  0.00  0.00    +0.030 A 
ATOM      8  C   UNL     1       2.677  -0.532   3.462  0.00  0.00    +0.018 A 
ATOM      9  C   UNL     1       2.862   0.495   4.373  0.00  0.00    +0.029 A 
ATOM     10  C   UNL     1       1.778   1.266   4.787  0.00  0.00    +0.049 A 
ATOM     11  C   UNL     1       0.513   1.003   4.289  0.00  0.00    +0.053 A 
ATOM     12  N   UNL     1       1.983   2.306   5.707  0.00  0.00    -0.284 N 
ATOM     13  C   UNL     1       2.942   3.216   5.496  0.00  0.00    +0.218 C 
ATOM     14  O   UNL     1       3.236   3.988   6.384  0.00  0.00    -0.275 OA
ATOM     15  C   UNL     1       3.661   3.297   4.182  0.00  0.00    +0.107 C 
ATOM     16  C   UNL     1       4.916   2.408   4.199  0.00  0.00    +0.083 C 
ATOM     17  S   UNL     1       4.464   0.844   5.022  0.00  0.00    -0.123 S 
ATOM     18  H   UNL     1       1.426   2.367   6.499  0.00  0.00    +0.155 HD
ENDBRANCH   3   6
ENDBRANCH   1   3
BRANCH   1  19
ATOM     19  C   UNL     1      -0.622   0.296   0.204  0.00  0.00    +0.109 C 
BRANCH  19  22
ATOM     20  C   UNL     1      -0.922   1.477  -3.448  0.00  0.00    -0.078 C 
ATOM     21  C   UNL     1      -0.285   0.832  -2.215  0.00  0.00    -0.014 C 
ATOM     22  C   UNL     1      -1.226   0.992  -1.017  0.00  0.00    +0.001 C 
ATOM     23  C   UNL     1      -2.578   0.357  -1.352  0.00  0.00    -0.014 C 
ATOM     24  C   UNL     1      -3.148   1.016  -2.610  0.00  0.00    -0.078 C 
ATOM     25  N   UNL     1      -2.208   0.804  -3.731  0.00  0.00    +0.382 N 
ATOM     26  H   UNL     1      -2.040  -0.203  -3.839  0.00  0.00    -0.081 HD
BRANCH  25  27
ATOM     27  C   UNL     1      -2.788   1.332  -4.983  0.00  0.00    -0.042 C 
BRANCH  27  32
ATOM     28  C   UNL     1      -0.488   0.901  -7.946  0.00  0.00    +0.000 A 
ATOM     29  C   UNL     1      -0.724  -0.417  -8.289  0.00  0.00    +0.001 A 
ATOM     30  C   UNL     1      -1.627  -1.170  -7.563  0.00  0.00    +0.020 A 
ATOM     31  C   UNL     1      -2.296  -0.604  -6.492  0.00  0.00    +0.042 A 
ATOM     32  C   UNL     1      -2.060   0.715  -6.149  0.00  0.00    -0.046 A 
ATOM     33  C   UNL     1      -1.160   1.468  -6.879  0.00  0.00    +0.003 A 
ATOM     34 CL   UNL     1      -3.431  -1.549  -5.580  0.00  0.00    -0.083 Cl
ENDBRANCH  27  32
ENDBRANCH  25  27
ENDBRANCH  19  22
ENDBRANCH   1  19
TORSDOF 6
