REMARK  Name = ZINC24909773
REMARK  5 active torsions:
REMARK  status: ('A' for Active; 'I' for Inactive)
REMARK    1  A    between atoms: C_1  and  C_2
REMARK    2  A    between atoms: C_5  and  C_7
REMARK    3  A    between atoms: C_7  and  S_8
REMARK    4  A    between atoms: S_8  and  C_9
REMARK    5  A    between atoms: N_13  and  C_24
REMARK                            x       y       z     vdW  Elec       q    Type
REMARK                         _______ _______ _______ _____ _____    ______ ____
ROOT
ATOM      1  C   UNL     1       0.365   7.854  -0.472  0.00  0.00    +0.172 A 
ATOM      2  N   UNL     1      -0.136   6.706  -0.845  0.00  0.00    -0.202 NA
ATOM      3  C   UNL     1       0.451   5.548  -0.452  0.00  0.00    +0.190 A 
ATOM      4  N   UNL     1       0.208   4.276  -0.634  0.00  0.00    -0.143 NA
ATOM      5  N   UNL     1       1.163   3.485   0.010  0.00  0.00    -0.194 N 
ATOM      6  C   UNL     1       2.066   4.263   0.646  0.00  0.00    +0.284 A 
ATOM      7  O   UNL     1       3.023   3.888   1.303  0.00  0.00    -0.265 OA
ATOM      8  C   UNL     1       1.665   5.642   0.386  0.00  0.00    +0.106 A 
ATOM      9  C   UNL     1       2.145   6.886   0.738  0.00  0.00    +0.037 A 
ATOM     10  N   UNL     1       1.482   7.978   0.327  0.00  0.00    -0.323 N 
ATOM     11  C   UNL     1       1.864   9.350   0.691  0.00  0.00    +0.124 C 
ATOM     12  C   UNL     1       3.368   9.483   0.912  0.00  0.00    +0.022 C 
ATOM     13  C   UNL     1       3.666   9.253   2.398  0.00  0.00    +0.002 C 
ATOM     14  C   UNL     1       3.208   7.849   2.785  0.00  0.00    +0.006 C 
ATOM     15  C   UNL     1       3.402   6.950   1.561  0.00  0.00    +0.054 C 
ENDROOT
BRANCH   5  16
ATOM     16  C   UNL     1       1.178   2.086   0.002  0.00  0.00    +0.069 A 
ATOM     17  C   UNL     1      -0.017   1.377   0.010  0.00  0.00    +0.028 A 
ATOM     18  C   UNL     1       0.002  -0.004   0.002  0.00  0.00    +0.002 A 
ATOM     19  C   UNL     1       1.208  -0.681  -0.013  0.00  0.00    +0.000 A 
ATOM     20  C   UNL     1       2.399   0.022  -0.020  0.00  0.00    +0.002 A 
ATOM     21  C   UNL     1       2.388   1.403  -0.012  0.00  0.00    +0.028 A 
ENDBRANCH   5  16
BRANCH   1  22
ATOM     22  S   UNL     1      -0.433   9.326  -1.019  0.00  0.00    -0.078 S 
BRANCH  22  23
ATOM     23  C   UNL     1      -1.782   8.610  -1.990  0.00  0.00    +0.175 C 
BRANCH  23  28
ATOM     24  C   UNL     1      -5.322  12.127  -2.662  0.00  0.00    +0.111 C 
ATOM     25  C   UNL     1      -4.136  11.218  -2.861  0.00  0.00    +0.214 A 
ATOM     26  N   UNL     1      -3.350  11.192  -3.899  0.00  0.00    -0.113 NA
ATOM     27  N   UNL     1      -2.445  10.294  -3.727  0.00  0.00    -0.112 NA
ATOM     28  C   UNL     1      -2.624   9.716  -2.573  0.00  0.00    +0.227 A 
ATOM     29  O   UNL     1      -3.699  10.282  -2.001  0.00  0.00    -0.424 OA
ENDBRANCH  23  28
ENDBRANCH  22  23
ENDBRANCH   1  22
TORSDOF 4
