REMARK  Name = ZINC06233149
REMARK  8 active torsions:
REMARK  status: ('A' for Active; 'I' for Inactive)
REMARK    1  A    between atoms: C_1  and  C_2
REMARK    2  A    between atoms: C_4  and  C_27
REMARK    3  A    between atoms: C_6  and  N_8
REMARK    4  A    between atoms: C_9  and  C_11
REMARK    5  A    between atoms: C_11  and  S_12
REMARK    6  A    between atoms: S_12  and  C_13
REMARK    7  A    between atoms: C_16  and  C_18
REMARK    8  A    between atoms: C_23  and  N_24
REMARK                            x       y       z     vdW  Elec       q    Type
REMARK                         _______ _______ _______ _____ _____    ______ ____
ROOT
ATOM      1  S   UNL     1      -0.235  -2.584   6.137  0.00  0.00    -0.056 S 
ENDROOT
BRANCH   1   2
ATOM      2  C   UNL     1       0.060  -3.423   7.658  0.00  0.00    +0.278 A 
ATOM      3  N   UNL     1       0.103  -4.724   7.832  0.00  0.00    -0.101 NA
ATOM      4  N   UNL     1       0.339  -4.982   9.069  0.00  0.00    -0.106 NA
ATOM      5  C   UNL     1       0.456  -3.859   9.735  0.00  0.00    +0.251 A 
ATOM      6  O   UNL     1       0.287  -2.848   8.854  0.00  0.00    -0.411 OA
BRANCH   5   7
ATOM      7  C   UNL     1       0.729  -3.723  11.181  0.00  0.00    +0.069 A 
ATOM      8  C   UNL     1      -0.144  -2.996  11.993  0.00  0.00    +0.015 A 
ATOM      9  C   UNL     1       0.116  -2.873  13.342  0.00  0.00    +0.001 A 
ATOM     10  C   UNL     1       1.239  -3.468  13.890  0.00  0.00    +0.002 A 
ATOM     11  C   UNL     1       2.108  -4.190  13.091  0.00  0.00    +0.033 A 
ATOM     12  C   UNL     1       1.856  -4.326  11.741  0.00  0.00    +0.138 A 
BRANCH  12  13
ATOM     13  N   UNL     1       2.783  -5.104  10.889  0.00  0.00    +0.057 N 
ATOM     14  O   UNL     1       3.700  -5.712  11.390  0.00  0.00    -0.126 OA
ATOM     15  O   UNL     1       2.623  -5.131   9.691  0.00  0.00    -0.126 OA
ENDBRANCH  12  13
ENDBRANCH   5   7
ENDBRANCH   1   2
BRANCH   1  16
ATOM     16  C   UNL     1      -0.462  -3.922   4.934  0.00  0.00    +0.175 C 
BRANCH  16  18
ATOM     17  N   UNL     1      -0.926  -4.146   2.514  0.00  0.00    -0.285 N 
ATOM     18  C   UNL     1      -0.725  -3.334   3.571  0.00  0.00    +0.228 C 
ATOM     19  O   UNL     1      -0.757  -2.130   3.426  0.00  0.00    -0.275 OA
ATOM     20  H   UNL     1      -0.972  -5.106   2.642  0.00  0.00    +0.155 HD
BRANCH  17  26
ATOM     21  C   UNL     1      -3.069  -4.243  -1.910  0.00  0.00    +0.044 C 
ATOM     22  C   UNL     1      -2.099  -3.630  -0.932  0.00  0.00    -0.048 A 
ATOM     23  C   UNL     1      -1.347  -2.530  -1.303  0.00  0.00    +0.006 A 
ATOM     24  C   UNL     1      -0.457  -1.964  -0.409  0.00  0.00    -0.048 A 
ATOM     25  C   UNL     1      -0.315  -2.498   0.857  0.00  0.00    +0.026 A 
ATOM     26  C   UNL     1      -1.068  -3.603   1.232  0.00  0.00    +0.034 A 
ATOM     27  C   UNL     1      -1.965  -4.165   0.334  0.00  0.00    +0.026 A 
ATOM     28  C   UNL     1       0.360  -0.766  -0.817  0.00  0.00    +0.044 C 
ENDBRANCH  17  26
ENDBRANCH  16  18
ENDBRANCH   1  16
TORSDOF 6
