REMARK  Name = ZINC12815172
REMARK  12 active torsions:
REMARK  status: ('A' for Active; 'I' for Inactive)
REMARK    1  A    between atoms: C_1  and  C_2
REMARK    2  A    between atoms: C_2  and  C_3
REMARK    3  A    between atoms: C_2  and  C_4
REMARK    4  A    between atoms: N_8  and  C_12
REMARK    5  A    between atoms: C_12  and  C_13
REMARK    6  A    between atoms: C_13  and  C_14
REMARK    7  A    between atoms: C_14  and  O_15
REMARK    8  A    between atoms: O_15  and  C_16
REMARK    9  A    between atoms: C_19  and  C_22
REMARK   10  A    between atoms: C_22  and  C_23
REMARK   11  A    between atoms: C_22  and  C_24
REMARK   12  A    between atoms: C_22  and  C_25
REMARK                            x       y       z     vdW  Elec       q    Type
REMARK                         _______ _______ _______ _____ _____    ______ ____
ROOT
ATOM      1  C   UNL     1      -0.013   1.086   0.008  0.00  0.00    +0.060 C 
ENDROOT
BRANCH   1   2
ATOM      2  C   UNL     1      -0.729   1.579   1.267  0.00  0.00    +0.121 C 
BRANCH   2   6
ATOM      3  C   UNL     1       1.400   0.890   4.232  0.00  0.00    +0.164 C 
ATOM      4  C   UNL     1       0.977   1.762   3.066  0.00  0.00    +0.244 C 
ATOM      5  O   UNL     1       1.441   2.837   2.750  0.00  0.00    -0.273 OA
ATOM      6  N   UNL     1      -0.020   1.094   2.454  0.00  0.00    -0.224 N 
ATOM      7  C   UNL     1      -0.287  -0.065   3.067  0.00  0.00    +0.309 C 
ATOM      8  O   UNL     1      -1.149  -0.840   2.702  0.00  0.00    -0.252 OA
ATOM      9  N   UNL     1       0.507  -0.278   4.131  0.00  0.00    -0.287 N 
ATOM     10  H   UNL     1       0.493  -1.048   4.720  0.00  0.00    +0.151 HD
BRANCH   3  12
ATOM     11  C   UNL     1       1.619   0.721   6.715  0.00  0.00    +0.009 C 
ATOM     12  C   UNL     1       1.185   1.623   5.558  0.00  0.00    +0.012 C 
ATOM     13  C   UNL     1       2.018   2.906   5.571  0.00  0.00    +0.009 C 
ENDBRANCH   3  12
ENDBRANCH   2   6
ENDBRANCH   1   2
BRANCH   1  14
ATOM     14  C   UNL     1      -0.753   1.593  -1.232  0.00  0.00    +0.230 C 
BRANCH  14  15
ATOM     15  O   UNL     1      -0.084   1.132  -2.407  0.00  0.00    -0.492 OA
BRANCH  15  16
ATOM     16  C   UNL     1      -0.617   1.496  -3.603  0.00  0.00    +0.121 A 
ATOM     17  C   UNL     1      -1.763   2.277  -3.644  0.00  0.00    +0.046 A 
ATOM     18  C   UNL     1      -2.300   2.650  -4.861  0.00  0.00    +0.008 A 
ATOM     19  C   UNL     1      -1.701   2.239  -6.037  0.00  0.00    -0.042 A 
ATOM     20  C   UNL     1      -0.562   1.456  -5.999  0.00  0.00    +0.008 A 
ATOM     21  C   UNL     1      -0.018   1.084  -4.785  0.00  0.00    +0.046 A 
BRANCH  19  22
ATOM     22  C   UNL     1      -2.292   2.643  -7.364  0.00  0.00    -0.013 C 
ATOM     23  C   UNL     1      -2.676   1.390  -8.154  0.00  0.00    +0.015 C 
ATOM     24  C   UNL     1      -3.538   3.499  -7.127  0.00  0.00    +0.015 C 
ATOM     25  C   UNL     1      -1.262   3.450  -8.156  0.00  0.00    +0.015 C 
ENDBRANCH  19  22
ENDBRANCH  15  16
ENDBRANCH  14  15
ENDBRANCH   1  14
TORSDOF 7
