REMARK  Name = ZINC11268820
REMARK  4 active torsions:
REMARK  status: ('A' for Active; 'I' for Inactive)
REMARK    1  A    between atoms: C_1  and  C_2
REMARK    2  A    between atoms: N_10  and  N_14
REMARK    3  A    between atoms: C_15  and  C_17
REMARK    4  A    between atoms: C_17  and  N_18
REMARK                            x       y       z     vdW  Elec       q    Type
REMARK                         _______ _______ _______ _____ _____    ______ ____
ROOT
ATOM      1  N   UNL     1      -1.570  -4.266  -3.538  0.00  0.00    -0.222 N 
ATOM      2  C   UNL     1      -1.217  -3.413  -2.557  0.00  0.00    +0.248 C 
ATOM      3  O   UNL     1      -0.420  -3.758  -1.710  0.00  0.00    -0.273 OA
ATOM      4  H   UNL     1      -2.207  -3.991  -4.215  0.00  0.00    +0.174 HD
ENDROOT
BRANCH   1  14
ATOM      5  C   UNL     1       1.885 -11.377  -4.203  0.00  0.00    +0.007 C 
ATOM      6  C   UNL     1       1.623  -9.911  -4.556  0.00  0.00    -0.014 C 
ATOM      7  C   UNL     1       1.924  -9.032  -3.340  0.00  0.00    +0.006 C 
ATOM      8  C   UNL     1       1.672  -7.565  -3.698  0.00  0.00    +0.035 C 
ATOM      9  C   UNL     1       0.220  -7.388  -4.127  0.00  0.00    +0.114 C 
ATOM     10  C   UNL     1      -0.101  -8.274  -5.325  0.00  0.00    +0.035 C 
ATOM     11  C   UNL     1       0.158  -9.739  -4.962  0.00  0.00    +0.006 C 
ATOM     12  C   UNL     1      -0.065  -5.940  -4.455  0.00  0.00    +0.263 C 
ATOM     13  O   UNL     1       0.454  -5.268  -5.321  0.00  0.00    -0.271 OA
ATOM     14  N   UNL     1      -1.016  -5.553  -3.580  0.00  0.00    -0.137 N 
ATOM     15  C   UNL     1      -1.368  -6.551  -2.761  0.00  0.00    +0.326 C 
ATOM     16  O   UNL     1      -2.209  -6.446  -1.890  0.00  0.00    -0.251 OA
ATOM     17  N   UNL     1      -0.686  -7.685  -3.010  0.00  0.00    -0.284 N 
ATOM     18  H   UNL     1      -0.775  -8.531  -2.544  0.00  0.00    +0.151 HD
ENDBRANCH   1  14
BRANCH   2  19
ATOM     19  C   UNL     1      -1.813  -2.029  -2.511  0.00  0.00    +0.215 C 
BRANCH  19  20
ATOM     20  N   UNL     1      -1.273  -1.303  -1.359  0.00  0.00    -0.215 N 
ATOM     21  C   UNL     1      -0.155  -0.544  -1.395  0.00  0.00    +0.251 C 
ATOM     22  O   UNL     1       0.566  -0.342  -2.348  0.00  0.00    -0.272 OA
ATOM     23  C   UNL     1       0.002  -0.004   0.002  0.00  0.00    +0.138 C 
ATOM     24  C   UNL     1      -0.019   1.530   0.011  0.00  0.00    +0.045 C 
ATOM     25  C   UNL     1       1.487   1.876  -0.002  0.00  0.00    +0.038 C 
ATOM     26  C   UNL     1       2.177   0.676   0.613  0.00  0.00    -0.042 A 
ATOM     27  C   UNL     1       1.317  -0.410   0.610  0.00  0.00    -0.012 A 
ATOM     28  C   UNL     1       1.744  -1.624   1.124  0.00  0.00    +0.006 A 
ATOM     29  C   UNL     1       3.018  -1.753   1.640  0.00  0.00    +0.000 A 
ATOM     30  C   UNL     1       3.874  -0.668   1.644  0.00  0.00    +0.000 A 
ATOM     31  C   UNL     1       3.453   0.543   1.131  0.00  0.00    +0.004 A 
ATOM     32  N   UNL     1      -1.133  -0.558   0.742  0.00  0.00    -0.281 N 
ATOM     33  C   UNL     1      -1.826  -1.307  -0.139  0.00  0.00    +0.310 C 
ATOM     34  O   UNL     1      -2.838  -1.919   0.142  0.00  0.00    -0.252 OA
ATOM     35  H   UNL     1      -1.344  -0.414   1.678  0.00  0.00    +0.152 HD
ENDBRANCH  19  20
ENDBRANCH   2  19
TORSDOF 3
