REMARK  Name = ZINC09564983
REMARK  7 active torsions:
REMARK  status: ('A' for Active; 'I' for Inactive)
REMARK    1  A    between atoms: C_1  and  S_2
REMARK    2  A    between atoms: S_2  and  C_3
REMARK    3  A    between atoms: C_3  and  C_4
REMARK    4  A    between atoms: C_4  and  N_5
REMARK    5  A    between atoms: N_14  and  C_15
REMARK    6  A    between atoms: C_15  and  C_17
REMARK    7  A    between atoms: C_17  and  N_18
REMARK                            x       y       z     vdW  Elec       q    Type
REMARK                         _______ _______ _______ _____ _____    ______ ____
ROOT
ATOM      1  N   UNL     1      -2.176   5.569  -3.473  0.00  0.00    -0.320 N 
ATOM      2  C   UNL     1      -1.844   4.797  -2.373  0.00  0.00    +0.061 A 
ATOM      3  C   UNL     1      -1.494   3.438  -2.340  0.00  0.00    +0.076 A 
ATOM      4  C   UNL     1      -1.188   2.812  -1.147  0.00  0.00    +0.164 A 
ATOM      5  C   UNL     1      -1.219   3.517   0.053  0.00  0.00    +0.163 A 
ATOM      6  C   UNL     1      -1.562   4.860   0.044  0.00  0.00    +0.066 A 
ATOM      7  C   UNL     1      -1.867   5.476  -1.147  0.00  0.00    +0.043 A 
ATOM      8  S   UNL     1      -2.344   7.124  -1.603  0.00  0.00    -0.052 S 
ATOM      9  C   UNL     1      -2.492   6.881  -3.314  0.00  0.00    +0.166 A 
ATOM     10  N   UNL     1      -2.833   7.768  -4.247  0.00  0.00    -0.155 NA
ATOM     11  O   UNL     1      -0.914   2.911   1.232  0.00  0.00    -0.485 OA
ATOM     12  C   UNL     1      -0.931   1.480   1.244  0.00  0.00    +0.270 C 
ATOM     13  C   UNL     1      -0.186   0.982  -0.002  0.00  0.00    +0.270 C 
ATOM     14  O   UNL     1      -0.856   1.489  -1.161  0.00  0.00    -0.485 OA
ENDROOT
BRANCH  10  15
ATOM     15  C   UNL     1      -3.111   9.021  -3.904  0.00  0.00    +0.256 C 
ATOM     16  O   UNL     1      -3.054   9.358  -2.737  0.00  0.00    -0.272 OA
BRANCH  15  17
ATOM     17  C   UNL     1      -3.497  10.024  -4.960  0.00  0.00    +0.214 C 
BRANCH  17  18
ATOM     18  N   UNL     1      -3.751  11.322  -4.331  0.00  0.00    -0.233 N 
ATOM     19  C   UNL     1      -4.961  11.690  -3.893  0.00  0.00    +0.223 C 
ATOM     20  O   UNL     1      -5.967  11.016  -3.959  0.00  0.00    -0.275 OA
ATOM     21  C   UNL     1      -4.875  13.078  -3.298  0.00  0.00    +0.105 C 
ATOM     22  C   UNL     1      -3.391  13.457  -3.480  0.00  0.00    +0.105 C 
ATOM     23  C   UNL     1      -2.794  12.241  -4.153  0.00  0.00    +0.223 C 
ATOM     24  O   UNL     1      -1.633  12.117  -4.479  0.00  0.00    -0.275 OA
ENDBRANCH  17  18
ENDBRANCH  15  17
ENDBRANCH  10  15
BRANCH   1  25
ATOM     25  C   UNL     1      -2.187   4.971  -4.810  0.00  0.00    +0.135 C 
BRANCH  25  26
ATOM     26  C   UNL     1      -3.337   5.566  -5.625  0.00  0.00    +0.090 C 
BRANCH  26  28
ATOM     27  C   UNL     1      -4.854   5.513  -8.049  0.00  0.00    +0.084 C 
ATOM     28  S   UNL     1      -3.462   4.700  -7.215  0.00  0.00    -0.162 S 
ENDBRANCH  26  28
ENDBRANCH  25  26
ENDBRANCH   1  25
TORSDOF 6
