REMARK  Name = ZINC66961745
REMARK  8 active torsions:
REMARK  status: ('A' for Active; 'I' for Inactive)
REMARK    1  A    between atoms: C_1  and  C_2
REMARK    2  A    between atoms: C_3  and  C_9
REMARK    3  A    between atoms: C_4  and  C_8
REMARK    4  A    between atoms: N_5  and  C_7
REMARK    5  A    between atoms: C_9  and  C_11
REMARK    6  A    between atoms: N_13  and  C_14
REMARK    7  A    between atoms: C_15  and  C_25
REMARK    8  A    between atoms: C_20  and  C_24
REMARK                            x       y       z     vdW  Elec       q    Type
REMARK                         _______ _______ _______ _____ _____    ______ ____
ROOT
ATOM      1  C   UNL     1       0.118   0.826  -3.043  0.00  0.00    +0.289 C 
ATOM      2  O   UNL     1       0.321   1.698  -2.223  0.00  0.00    -0.266 OA
ATOM      3  N   UNL     1       0.005   1.142  -4.349  0.00  0.00    -0.272 N 
ATOM      4  H   UNL     1      -0.157   0.445  -5.004  0.00  0.00    +0.156 HD
ENDROOT
BRANCH   3   5
ATOM      5  C   UNL     1       0.120   2.461  -4.755  0.00  0.00    +0.090 A 
ATOM      6  C   UNL     1       0.030   2.989  -6.037  0.00  0.00    +0.084 A 
ATOM      7  C   UNL     1       0.190   4.424  -6.192  0.00  0.00    -0.018 A 
ATOM      8  C   UNL     1       0.415   5.127  -5.058  0.00  0.00    -0.004 A 
ATOM      9  S   UNL     1       0.414   3.915  -3.764  0.00  0.00    -0.077 S 
ATOM     10  C   UNL     1       0.613   6.606  -4.931  0.00  0.00    +0.046 C 
ATOM     11  C   UNL     1       0.156   7.269  -6.238  0.00  0.00    -0.009 C 
ATOM     12  C   UNL     1       0.768   6.507  -7.417  0.00  0.00    +0.008 C 
ATOM     13  C   UNL     1       0.114   5.130  -7.542  0.00  0.00    +0.037 C 
ATOM     14  C   UNL     1       0.624   8.726  -6.266  0.00  0.00    +0.008 C 
BRANCH   6  15
ATOM     15  C   UNL     1      -0.213   2.146  -7.169  0.00  0.00    +0.102 C 
ATOM     16  N   UNL     1      -0.406   1.478  -8.066  0.00  0.00    -0.191 NA
ENDBRANCH   6  15
ENDBRANCH   3   5
BRANCH   1  17
ATOM     17  C   UNL     1      -0.005  -0.594  -2.606  0.00  0.00    +0.251 C 
ATOM     18  O   UNL     1      -0.111  -1.477  -3.433  0.00  0.00    -0.282 OA
BRANCH  17  21
ATOM     19  C   UNL     1      -2.573  -0.944  -0.770  0.00  0.00    +0.068 C 
ATOM     20  C   UNL     1      -1.135  -1.085  -0.343  0.00  0.00    +0.071 A 
ATOM     21  C   UNL     1       0.000  -0.925  -1.174  0.00  0.00    +0.070 A 
ATOM     22  C   UNL     1       1.117  -1.141  -0.382  0.00  0.00    +0.047 A 
ATOM     23  N   UNL     1       0.682  -1.416   0.857  0.00  0.00    -0.271 N 
ATOM     24  N   UNL     1      -0.717  -1.370   0.859  0.00  0.00    -0.176 NA
ATOM     25  C   UNL     1       1.529  -1.709   2.015  0.00  0.00    +0.172 C 
ATOM     26  C   UNL     1       2.554  -1.079  -0.831  0.00  0.00    +0.066 C 
ENDBRANCH  17  21
ENDBRANCH   1  17
TORSDOF 4
