REMARK  Name = ZINC33557086
REMARK  7 active torsions:
REMARK  status: ('A' for Active; 'I' for Inactive)
REMARK    1  A    between atoms: C_1  and  C_2
REMARK    2  A    between atoms: C_2  and  C_3
REMARK    3  A    between atoms: C_3  and  C_4
REMARK    4  A    between atoms: C_4  and  N_5
REMARK    5  A    between atoms: N_10  and  C_11
REMARK    6  A    between atoms: C_11  and  N_13
REMARK    7  A    between atoms: C_14  and  C_16
REMARK                            x       y       z     vdW  Elec       q    Type
REMARK                         _______ _______ _______ _____ _____    ______ ____
ROOT
ATOM      1  N   UNL     1       5.516  -4.324   6.144  0.00  0.00    -0.263 N 
ATOM      2  C   UNL     1       5.572  -4.749   7.422  0.00  0.00    +0.250 C 
ATOM      3  O   UNL     1       4.556  -4.808   8.088  0.00  0.00    -0.270 OA
ATOM      4  H   UNL     1       6.326  -4.278   5.613  0.00  0.00    +0.157 HD
ENDROOT
BRANCH   2   5
ATOM      5  C   UNL     1       6.863  -5.142   8.012  0.00  0.00    +0.045 A 
ATOM      6  C   UNL     1       8.012  -5.196   7.232  0.00  0.00    +0.014 A 
ATOM      7  C   UNL     1       9.227  -5.567   7.790  0.00  0.00    +0.001 A 
ATOM      8  C   UNL     1       9.344  -5.890   9.108  0.00  0.00    +0.009 A 
ATOM      9  C   UNL     1       8.224  -5.858   9.955  0.00  0.00    -0.003 A 
ATOM     10  C   UNL     1       6.964  -5.479   9.430  0.00  0.00    -0.005 A 
ATOM     11  C   UNL     1       5.847  -5.439  10.273  0.00  0.00    +0.009 A 
ATOM     12  C   UNL     1       5.985  -5.761  11.591  0.00  0.00    +0.002 A 
ATOM     13  C   UNL     1       7.223  -6.127  12.112  0.00  0.00    +0.016 A 
ATOM     14  C   UNL     1       8.329  -6.189  11.318  0.00  0.00    +0.026 A 
ATOM     15 BR   UNL     1       9.998  -6.692  12.050  0.00  0.00    -0.050 Br
ENDBRANCH   2   5
BRANCH   1  16
ATOM     16  C   UNL     1       4.334  -3.965   5.605  0.00  0.00    +0.143 C 
ATOM     17  S   UNL     1       2.904  -4.047   6.543  0.00  0.00    -0.018 S 
BRANCH  16  23
ATOM     18  N   UNL     1       1.478  -2.488   2.432  0.00  0.00    -0.162 N 
ATOM     19  N   UNL     1       2.856  -2.736   2.538  0.00  0.00    -0.114 NA
ATOM     20  C   UNL     1       3.052  -3.167   3.767  0.00  0.00    +0.261 A 
ATOM     21  N   UNL     1       1.868  -3.183   4.380  0.00  0.00    -0.092 NA
ATOM     22  N   UNL     1       0.953  -2.773   3.575  0.00  0.00    -0.044 NA
ATOM     23  N   UNL     1       4.278  -3.540   4.327  0.00  0.00    -0.263 N 
ATOM     24  H   UNL     1       5.088  -3.493   3.795  0.00  0.00    +0.157 HD
BRANCH  18  25
ATOM     25  C   UNL     1       0.771  -1.992   1.249  0.00  0.00    +0.168 C 
BRANCH  25  26
ATOM     26  C   UNL     1       0.741  -0.462   1.276  0.00  0.00    +0.025 C 
BRANCH  26  28
ATOM     27  C   UNL     1      -0.026   1.585   0.067  0.00  0.00    +0.004 C 
ATOM     28  C   UNL     1       0.003   0.056   0.040  0.00  0.00    -0.002 C 
ENDBRANCH  26  28
ENDBRANCH  25  26
ENDBRANCH  18  25
ENDBRANCH  16  23
ENDBRANCH   1  16
TORSDOF 6
