REMARK  Name = ZINC00875512
REMARK  13 active torsions:
REMARK  status: ('A' for Active; 'I' for Inactive)
REMARK    1  A    between atoms: C_1  and  C_2
REMARK    2  A    between atoms: C_2  and  O_3
REMARK    3  A    between atoms: O_3  and  C_4
REMARK    4  A    between atoms: C_7  and  N_10
REMARK    5  A    between atoms: N_10  and  C_11
REMARK    6  A    between atoms: C_11  and  N_13
REMARK    7  A    between atoms: N_13  and  C_14
REMARK    8  A    between atoms: N_13  and  C_22
REMARK    9  A    between atoms: C_14  and  C_15
REMARK   10  A    between atoms: C_15  and  N_16
REMARK   11  A    between atoms: C_22  and  C_23
REMARK   12  A    between atoms: C_27  and  C_36
REMARK   13  A    between atoms: C_29  and  C_35
REMARK                            x       y       z     vdW  Elec       q    Type
REMARK                         _______ _______ _______ _____ _____    ______ ____
ROOT
ATOM      1  N   UNL     1      -1.472   7.542  -1.490  0.00  0.00    -0.307 N 
ENDROOT
BRANCH   1   2
ATOM      2  C   UNL     1      -0.401   7.849  -2.248  0.00  0.00    +0.137 C 
ATOM      3  S   UNL     1       1.140   7.219  -1.848  0.00  0.00    -0.018 S 
BRANCH   2   4
ATOM      4  N   UNL     1      -0.542   8.652  -3.321  0.00  0.00    -0.297 N 
ATOM      5  H   UNL     1      -1.542   9.002  -3.618  0.00  0.00    +0.154 HD
BRANCH   4   9
ATOM      6  C   UNL     1       2.808   9.812  -5.516  0.00  0.00    +0.121 A 
ATOM      7  C   UNL     1       2.655   8.488  -5.131  0.00  0.00    +0.047 A 
ATOM      8  C   UNL     1       1.546   8.103  -4.404  0.00  0.00    +0.027 A 
ATOM      9  C   UNL     1       0.583   9.042  -4.058  0.00  0.00    +0.033 A 
ATOM     10  C   UNL     1       0.734  10.366  -4.448  0.00  0.00    +0.027 A 
ATOM     11  C   UNL     1       1.847  10.750  -5.170  0.00  0.00    +0.047 A 
BRANCH   6  12
ATOM     12  O   UNL     1       3.900  10.190  -6.232  0.00  0.00    -0.492 OA
BRANCH  12  14
ATOM     13  C   UNL     1       5.279  11.802  -7.390  0.00  0.00    +0.048 C 
ATOM     14  C   UNL     1       3.993  11.569  -6.595  0.00  0.00    +0.225 C 
ENDBRANCH  12  14
ENDBRANCH   6  12
ENDBRANCH   4   9
ENDBRANCH   2   4
ENDBRANCH   1   2
BRANCH   1  15
ATOM     15  C   UNL     1      -2.790   8.081  -1.833  0.00  0.00    +0.122 C 
BRANCH  15  16
ATOM     16  C   UNL     1      -2.993   9.421  -1.123  0.00  0.00    +0.103 C 
BRANCH  16  17
ATOM     17  N   UNL     1      -4.315   9.962  -1.466  0.00  0.00    -0.297 NA
ATOM     18  C   UNL     1      -4.386  10.314  -2.892  0.00  0.00    +0.112 C 
ATOM     19  C   UNL     1      -5.796  10.816  -3.218  0.00  0.00    +0.175 C 
ATOM     20  O   UNL     1      -6.110  11.924  -2.370  0.00  0.00    -0.377 OA
ATOM     21  C   UNL     1      -6.051  11.616  -0.974  0.00  0.00    +0.175 C 
ATOM     22  C   UNL     1      -4.644  11.122  -0.625  0.00  0.00    +0.112 C 
ENDBRANCH  16  17
ENDBRANCH  15  16
ENDBRANCH   1  15
BRANCH   1  23
ATOM     23  C   UNL     1      -1.318   6.669  -0.324  0.00  0.00    +0.147 C 
BRANCH  23  24
ATOM     24  C   UNL     1      -1.517   5.234  -0.741  0.00  0.00    +0.035 A 
ATOM     25  C   UNL     1      -0.445   4.466  -1.053  0.00  0.00    +0.020 A 
ATOM     26  C   UNL     1      -0.672   3.076  -1.454  0.00  0.00    -0.001 A 
ATOM     27  C   UNL     1       0.395   2.235  -1.788  0.00  0.00    +0.013 A 
ATOM     28  C   UNL     1       0.148   0.944  -2.157  0.00  0.00    -0.050 A 
ATOM     29  C   UNL     1      -1.151   0.458  -2.205  0.00  0.00    +0.008 A 
ATOM     30  C   UNL     1      -2.218   1.270  -1.886  0.00  0.00    -0.026 A 
ATOM     31  C   UNL     1      -1.991   2.587  -1.501  0.00  0.00    +0.052 A 
ATOM     32  N   UNL     1      -3.039   3.420  -1.171  0.00  0.00    -0.322 N 
ATOM     33  H   UNL     1      -4.072   3.045  -1.206  0.00  0.00    +0.169 HD
ATOM     34  C   UNL     1      -2.820   4.695  -0.804  0.00  0.00    +0.254 A 
ATOM     35  O   UNL     1      -3.771   5.403  -0.520  0.00  0.00    -0.268 OA
ATOM     36  C   UNL     1      -3.624   0.731  -1.948  0.00  0.00    +0.046 C 
ATOM     37  C   UNL     1       1.298   0.038  -2.516  0.00  0.00    +0.044 C 
ENDBRANCH  23  24
ENDBRANCH   1  23
TORSDOF 10
