REMARK  Name = ZINC47147693
REMARK  8 active torsions:
REMARK  status: ('A' for Active; 'I' for Inactive)
REMARK    1  A    between atoms: C_1  and  C_2
REMARK    2  A    between atoms: C_2  and  O_3
REMARK    3  A    between atoms: O_3  and  C_4
REMARK    4  A    between atoms: C_4  and  C_6
REMARK    5  A    between atoms: C_6  and  O_7
REMARK    6  A    between atoms: O_7  and  C_8
REMARK    7  A    between atoms: C_11  and  C_14
REMARK    8  A    between atoms: N_29  and  C_32
REMARK                            x       y       z     vdW  Elec       q    Type
REMARK                         _______ _______ _______ _____ _____    ______ ____
ROOT
ATOM      1  C   UNL     1      -7.626  -6.735   0.038  0.00  0.00    +0.072 C 
ATOM      2  C   UNL     1      -7.634  -7.618   1.229  0.00  0.00    +0.035 A 
ATOM      3  C   UNL     1      -7.965  -8.935   1.312  0.00  0.00    +0.113 A 
ATOM      4  N   UNL     1      -7.915  -9.448   2.544  0.00  0.00    -0.196 NA
ATOM      5  C   UNL     1      -7.542  -8.734   3.580  0.00  0.00    +0.311 A 
ATOM      6  O   UNL     1      -7.440  -9.120   4.875  0.00  0.00    -0.258 OA
ATOM      7  S   UNL     1      -7.220  -7.223   2.910  0.00  0.00    -0.028 S 
ATOM      8  S   UNL     1      -8.398  -9.862  -0.137  0.00  0.00    -0.091 S 
ATOM      9  C   UNL     1      -8.766  -8.580  -1.378  0.00  0.00    +0.152 C 
ATOM     10  C   UNL     1      -7.763  -7.427  -1.265  0.00  0.00    +0.110 C 
ATOM     11  C   UNL     1      -6.540  -7.958  -1.944  0.00  0.00    +0.232 C 
ATOM     12  O   UNL     1      -5.390  -7.635  -1.734  0.00  0.00    -0.274 OA
ATOM     13  N   UNL     1      -6.980  -8.872  -2.841  0.00  0.00    -0.209 N 
ATOM     14  C   UNL     1      -8.292  -9.165  -2.720  0.00  0.00    +0.240 C 
ATOM     15  O   UNL     1      -8.969  -9.781  -3.515  0.00  0.00    -0.274 OA
ENDROOT
BRANCH   1  19
ATOM     16  C   UNL     1      -3.954  -4.548   0.015  0.00  0.00    +0.121 A 
ATOM     17  C   UNL     1      -3.991  -5.838   0.523  0.00  0.00    +0.046 A 
ATOM     18  C   UNL     1      -5.179  -6.543   0.530  0.00  0.00    +0.008 A 
ATOM     19  C   UNL     1      -6.331  -5.963   0.030  0.00  0.00    -0.038 A 
ATOM     20  C   UNL     1      -6.297  -4.678  -0.478  0.00  0.00    +0.008 A 
ATOM     21  C   UNL     1      -5.112  -3.967  -0.481  0.00  0.00    +0.046 A 
BRANCH  16  22
ATOM     22  O   UNL     1      -2.787  -3.853   0.007  0.00  0.00    -0.481 OA
BRANCH  22  23
ATOM     23  C   UNL     1      -1.634  -4.514   0.533  0.00  0.00    +0.349 C 
BRANCH  23  24
ATOM     24  C   UNL     1      -0.443  -3.595   0.443  0.00  0.00    +0.345 C 
ATOM     25  O   UNL     1      -0.568  -2.488  -0.024  0.00  0.00    -0.247 OA
BRANCH  24  26
ATOM     26  O   UNL     1       0.757  -4.007   0.882  0.00  0.00    -0.463 OA
BRANCH  26  28
ATOM     27  C   UNL     1       3.118  -3.727   1.313  0.00  0.00    +0.048 C 
ATOM     28  C   UNL     1       1.842  -3.085   0.765  0.00  0.00    +0.229 C 
ENDBRANCH  26  28
ENDBRANCH  24  26
ENDBRANCH  23  24
ENDBRANCH  22  23
ENDBRANCH  16  22
ENDBRANCH   1  19
BRANCH  13  29
ATOM     29  C   UNL     1      -6.151  -9.453  -3.811  0.00  0.00    +0.044 A 
ATOM     30  C   UNL     1      -4.810  -9.101  -3.881  0.00  0.00    +0.024 A 
ATOM     31  C   UNL     1      -3.996  -9.675  -4.838  0.00  0.00    +0.002 A 
ATOM     32  C   UNL     1      -4.516 -10.599  -5.726  0.00  0.00    +0.000 A 
ATOM     33  C   UNL     1      -5.851 -10.951  -5.659  0.00  0.00    +0.002 A 
ATOM     34  C   UNL     1      -6.669 -10.385  -4.700  0.00  0.00    +0.024 A 
ENDBRANCH  13  29
TORSDOF 7
