REMARK  Name = ZINC39630872
REMARK  12 active torsions:
REMARK  status: ('A' for Active; 'I' for Inactive)
REMARK    1  A    between atoms: C_1  and  C_2
REMARK    2  A    between atoms: C_2  and  C_3
REMARK    3  A    between atoms: C_2  and  C_4
REMARK    4  A    between atoms: C_2  and  C_30
REMARK    5  A    between atoms: C_4  and  N_5
REMARK    6  A    between atoms: C_6  and  C_8
REMARK    7  A    between atoms: C_19  and  C_21
REMARK    8  A    between atoms: C_23  and  O_28
REMARK    9  A    between atoms: O_28  and  C_29
REMARK   10  A    between atoms: C_30  and  N_31
REMARK   11  A    between atoms: N_31  and  C_32
REMARK   12  A    between atoms: N_31  and  C_33
REMARK                            x       y       z     vdW  Elec       q    Type
REMARK                         _______ _______ _______ _____ _____    ______ ____
ROOT
ATOM      1  C   UNL     1      -2.903  -0.400   2.103  0.00  0.00    +0.100 C 
ATOM      2  C   UNL     1      -2.781   1.093   2.482  0.00  0.00    +0.121 C 
ATOM      3  N   UNL     1      -4.180   1.578   2.552  0.00  0.00    -0.296 N 
ATOM      4  C   UNL     1      -4.926   0.462   3.182  0.00  0.00    +0.115 C 
ATOM      5  C   UNL     1      -4.311  -0.811   2.567  0.00  0.00    -0.004 C 
ATOM      6  C   UNL     1      -4.219  -1.914   3.617  0.00  0.00    -0.010 C 
ATOM      7  C   UNL     1      -5.632  -2.347   4.020  0.00  0.00    -0.082 C 
ATOM      8  N   UNL     1      -6.354  -2.829   2.837  0.00  0.00    +0.379 N 
ATOM      9  C   UNL     1      -6.519  -1.736   1.871  0.00  0.00    -0.082 C 
ATOM     10  C   UNL     1      -5.144  -1.277   1.377  0.00  0.00    -0.010 C 
ATOM     11  C   UNL     1      -4.665   2.765   2.136  0.00  0.00    +0.248 C 
ATOM     12  O   UNL     1      -5.828   3.052   2.343  0.00  0.00    -0.270 OA
ATOM     13  H   UNL     1      -5.832  -3.579   2.408  0.00  0.00    -0.086 HD
ATOM     14  H   UNL     1      -7.262  -3.171   3.115  0.00  0.00    -0.086 HD
ENDROOT
BRANCH  11  15
ATOM     15  C   UNL     1      -3.783   3.717   1.430  0.00  0.00    +0.054 A 
ATOM     16  C   UNL     1      -2.458   3.881   1.839  0.00  0.00    +0.059 A 
ATOM     17  C   UNL     1      -1.638   4.774   1.172  0.00  0.00    +0.121 A 
ATOM     18  C   UNL     1      -2.131   5.505   0.099  0.00  0.00    +0.047 A 
ATOM     19  C   UNL     1      -3.442   5.344  -0.308  0.00  0.00    +0.019 A 
ATOM     20  C   UNL     1      -4.269   4.452   0.346  0.00  0.00    +0.030 A 
ATOM     21 BR   UNL     1      -6.059   4.230  -0.220  0.00  0.00    -0.050 Br
BRANCH  17  22
ATOM     22  O   UNL     1      -0.348   4.937   1.568  0.00  0.00    -0.495 OA
ATOM     23  C   UNL     1       0.442   5.875   0.835  0.00  0.00    +0.277 C 
ENDBRANCH  17  22
ENDBRANCH  11  15
BRANCH   1  25
ATOM     24  N   UNL     1      -2.266  -1.719   0.110  0.00  0.00    -0.315 N 
ATOM     25  C   UNL     1      -2.771  -0.575   0.612  0.00  0.00    +0.218 C 
ATOM     26  O   UNL     1      -3.118   0.315  -0.137  0.00  0.00    -0.275 OA
ATOM     27  H   UNL     1      -1.988  -2.430   0.708  0.00  0.00    +0.149 HD
BRANCH  24  28
ATOM     28  C   UNL     1      -2.137  -1.889  -1.339  0.00  0.00    +0.108 C 
BRANCH  28  30
ATOM     29  C   UNL     1      -0.162  -3.379  -0.989  0.00  0.00    +0.010 C 
ATOM     30  C   UNL     1      -1.541  -3.266  -1.640  0.00  0.00    -0.034 C 
ATOM     31  C   UNL     1      -2.461  -4.353  -1.079  0.00  0.00    +0.010 C 
BRANCH  30  32
ATOM     32  C   UNL     1      -1.406  -3.444  -3.154  0.00  0.00    -0.072 C 
BRANCH  32  33
ATOM     33  N   UNL     1      -0.948  -4.808  -3.448  0.00  0.00    +0.376 N 
ATOM     34  C   UNL     1      -2.105  -5.711  -3.510  0.00  0.00    -0.097 C 
ATOM     35  C   UNL     1      -0.246  -4.822  -4.739  0.00  0.00    -0.097 C 
ATOM     36  H   UNL     1      -0.320  -5.116  -2.721  0.00  0.00    -0.083 HD
ENDBRANCH  32  33
ENDBRANCH  30  32
ENDBRANCH  28  30
ENDBRANCH  24  28
ENDBRANCH   1  25
TORSDOF 7
