REMARK  Name = ZINC30978463
REMARK  5 active torsions:
REMARK  status: ('A' for Active; 'I' for Inactive)
REMARK    1  A    between atoms: C_3  and  C_8
REMARK    2  A    between atoms: C_10  and  C_13
REMARK    3  A    between atoms: C_13  and  N_14
REMARK    4  A    between atoms: C_17  and  C_20
REMARK    5  A    between atoms: N_22  and  C_23
REMARK                            x       y       z     vdW  Elec       q    Type
REMARK                         _______ _______ _______ _____ _____    ______ ____
ROOT
ATOM      1  N   UNL     1       6.794  -4.679  -0.951  0.00  0.00    +0.386 N 
ATOM      2  C   UNL     1       6.032  -4.987   0.267  0.00  0.00    -0.077 C 
ATOM      3  C   UNL     1       4.694  -4.246   0.235  0.00  0.00    -0.006 C 
ATOM      4  C   UNL     1       4.953  -2.739   0.140  0.00  0.00    +0.072 C 
ATOM      5  C   UNL     1       5.788  -2.451  -1.111  0.00  0.00    -0.006 C 
ATOM      6  C   UNL     1       7.095  -3.244  -1.040  0.00  0.00    -0.077 C 
ATOM      7  H   UNL     1       6.166  -4.944  -1.814  0.00  0.00    -0.081 HD
ENDROOT
BRANCH   4   8
ATOM      8  C   UNL     1       3.639  -2.007   0.047  0.00  0.00    +0.220 C 
ATOM      9  O   UNL     1       2.597  -2.628   0.056  0.00  0.00    -0.275 OA
ATOM     10  N   UNL     1       3.621  -0.663  -0.045  0.00  0.00    -0.285 N 
ATOM     11  H   UNL     1       4.565  -0.106  -0.141  0.00  0.00    +0.155 HD
BRANCH  10  12
ATOM     12  C   UNL     1       2.401   0.025  -0.020  0.00  0.00    +0.037 A 
ATOM     13  C   UNL     1       1.345  -0.461   0.740  0.00  0.00    +0.027 A 
ATOM     14  C   UNL     1       0.142   0.217   0.764  0.00  0.00    +0.051 A 
ATOM     15  C   UNL     1      -0.016   1.383   0.029  0.00  0.00    +0.162 A 
ATOM     16  C   UNL     1       1.039   1.873  -0.730  0.00  0.00    +0.164 A 
ATOM     17  C   UNL     1       2.247   1.192  -0.755  0.00  0.00    +0.072 A 
ATOM     18  O   UNL     1       0.906   3.020  -1.450  0.00  0.00    -0.485 OA
ATOM     19  C   UNL     1      -0.430   3.473  -1.699  0.00  0.00    +0.270 C 
ATOM     20  C   UNL     1      -1.216   3.394  -0.384  0.00  0.00    +0.270 C 
ATOM     21  O   UNL     1      -1.213   2.032   0.059  0.00  0.00    -0.485 OA
ENDBRANCH  10  12
ENDBRANCH   4   8
BRANCH   1  22
ATOM     22  C   UNL     1       8.023  -5.480  -1.020  0.00  0.00    +0.022 C 
BRANCH  22  25
ATOM     23  C   UNL     1       9.798  -4.664  -4.037  0.00  0.00    +0.202 A 
ATOM     24  N   UNL     1       9.528  -4.420  -2.735  0.00  0.00    -0.193 NA
ATOM     25  C   UNL     1       8.648  -5.324  -2.382  0.00  0.00    +0.211 A 
ATOM     26  O   UNL     1       8.414  -6.085  -3.455  0.00  0.00    -0.340 OA
ATOM     27  N   UNL     1       9.074  -5.693  -4.394  0.00  0.00    -0.056 NA
BRANCH  23  30
ATOM     28  C   UNL     1      11.798  -3.569  -7.027  0.00  0.00    +0.002 A 
ATOM     29  C   UNL     1      10.920  -4.276  -6.230  0.00  0.00    +0.012 A 
ATOM     30  C   UNL     1      10.741  -3.908  -4.898  0.00  0.00    +0.023 A 
ATOM     31  C   UNL     1      11.446  -2.824  -4.379  0.00  0.00    +0.027 A 
ATOM     32  C   UNL     1      12.326  -2.127  -5.184  0.00  0.00    +0.019 A 
ATOM     33  C   UNL     1      12.500  -2.498  -6.506  0.00  0.00    +0.015 A 
ATOM     34 BR   UNL     1      13.290  -0.661  -4.480  0.00  0.00    -0.050 Br
ENDBRANCH  23  30
ENDBRANCH  22  25
ENDBRANCH   1  22
TORSDOF 5
