REMARK  Name = ZINC63809766
REMARK  11 active torsions:
REMARK  status: ('A' for Active; 'I' for Inactive)
REMARK    1  A    between atoms: C_1  and  C_2
REMARK    2  A    between atoms: C_2  and  C_3
REMARK    3  A    between atoms: C_2  and  C_4
REMARK    4  A    between atoms: C_2  and  C_5
REMARK    5  A    between atoms: N_7  and  C_8
REMARK    6  A    between atoms: C_8  and  C_9
REMARK    7  A    between atoms: C_13  and  C_15
REMARK    8  A    between atoms: C_15  and  C_17
REMARK    9  A    between atoms: C_17  and  N_18
REMARK   10  A    between atoms: C_21  and  C_26
REMARK   11  A    between atoms: C_26  and  C_27
REMARK                            x       y       z     vdW  Elec       q    Type
REMARK                         _______ _______ _______ _____ _____    ______ ____
ROOT
ATOM      1  N   UNL     1       5.454  -8.963  -1.696  0.00  0.00    -0.217 N 
ATOM      2  C   UNL     1       6.748  -8.873  -1.329  0.00  0.00    +0.244 C 
ATOM      3  O   UNL     1       7.525  -7.983  -1.597  0.00  0.00    -0.273 OA
ATOM      4  C   UNL     1       7.029 -10.118  -0.510  0.00  0.00    +0.165 C 
ATOM      5  N   UNL     1       5.740 -10.831  -0.511  0.00  0.00    -0.287 N 
ATOM      6  C   UNL     1       4.883 -10.077  -1.224  0.00  0.00    +0.310 C 
ATOM      7  O   UNL     1       3.722 -10.377  -1.420  0.00  0.00    -0.252 OA
ATOM      8  H   UNL     1       5.546 -11.678  -0.079  0.00  0.00    +0.151 HD
ENDROOT
BRANCH   1   9
ATOM      9  C   UNL     1       4.758  -7.962  -2.507  0.00  0.00    +0.198 C 
BRANCH   9  10
ATOM     10  C   UNL     1       4.141  -6.925  -1.605  0.00  0.00    +0.187 C 
ATOM     11  O   UNL     1       4.271  -7.013  -0.402  0.00  0.00    -0.290 OA
BRANCH  10  15
ATOM     12  C   UNL     1       1.553  -3.814  -2.673  0.00  0.00    +0.072 C 
ATOM     13  C   UNL     1       2.365  -4.364  -3.875  0.00  0.00    +0.044 C 
ATOM     14  C   UNL     1       3.153  -5.571  -3.478  0.00  0.00    -0.008 C 
ATOM     15  C   UNL     1       3.384  -5.807  -2.181  0.00  0.00    +0.048 C 
ATOM     16  S   UNL     1       2.578  -4.482  -1.296  0.00  0.00    -0.117 S 
BRANCH  12  17
ATOM     17  C   UNL     1       1.532  -2.285  -2.665  0.00  0.00    +0.119 C 
BRANCH  17  20
ATOM     18  C   UNL     1       0.707  -0.490  -1.238  0.00  0.00    +0.218 C 
ATOM     19  O   UNL     1       1.150   0.308  -2.036  0.00  0.00    -0.275 OA
ATOM     20  N   UNL     1       0.847  -1.812  -1.460  0.00  0.00    -0.314 N 
ATOM     21  H   UNL     1       0.493  -2.451  -0.821  0.00  0.00    +0.149 HD
BRANCH  18  23
ATOM     22  C   UNL     1      -0.019   1.526   0.010  0.00  0.00    +0.020 C 
ATOM     23  C   UNL     1       0.002  -0.004   0.002  0.00  0.00    +0.039 C 
ATOM     24  C   UNL     1       0.742  -0.511   1.242  0.00  0.00    +0.020 C 
ATOM     25  C   UNL     1      -1.433  -0.534   0.013  0.00  0.00    +0.020 C 
ENDBRANCH  18  23
ENDBRANCH  17  20
ENDBRANCH  12  17
ENDBRANCH  10  15
ENDBRANCH   9  10
ENDBRANCH   1   9
BRANCH   4  26
ATOM     26  C   UNL     1       8.117 -10.964  -1.173  0.00  0.00    +0.065 C 
BRANCH  26  27
ATOM     27  C   UNL     1       8.463 -12.128  -0.279  0.00  0.00    -0.039 C 
ATOM     28  C   UNL     1       7.960 -13.382  -0.345  0.00  0.00    -0.001 A 
ATOM     29  C   UNL     1       6.977 -14.013  -1.234  0.00  0.00    +0.010 A 
ATOM     30  C   UNL     1       6.669 -15.317  -1.050  0.00  0.00    +0.001 A 
ATOM     31  C   UNL     1       7.262 -16.078  -0.034  0.00  0.00    +0.002 A 
ATOM     32  C   UNL     1       8.173 -15.568   0.823  0.00  0.00    +0.026 A 
ATOM     33  C   UNL     1       8.572 -14.207   0.720  0.00  0.00    +0.043 A 
ATOM     34  N   UNL     1       9.420 -13.492   1.418  0.00  0.00    -0.380 N 
ATOM     35  C   UNL     1       9.447 -12.131   0.870  0.00  0.00    +0.144 C 
ATOM     36  H   UNL     1       9.946 -13.809   2.169  0.00  0.00    +0.160 HD
ENDBRANCH  26  27
ENDBRANCH   4  26
TORSDOF 8
