REMARK  Name = ZINC17296856
REMARK  11 active torsions:
REMARK  status: ('A' for Active; 'I' for Inactive)
REMARK    1  A    between atoms: C_1  and  C_2
REMARK    2  A    between atoms: C_2  and  O_3
REMARK    3  A    between atoms: O_3  and  C_4
REMARK    4  A    between atoms: C_4  and  C_6
REMARK    5  A    between atoms: C_7  and  C_30
REMARK    6  A    between atoms: C_14  and  S_17
REMARK    7  A    between atoms: S_17  and  C_18
REMARK    8  A    between atoms: C_18  and  C_19
REMARK    9  A    between atoms: C_19  and  C_20
REMARK   10  A    between atoms: C_19  and  C_21
REMARK   11  A    between atoms: C_22  and  C_24
REMARK                            x       y       z     vdW  Elec       q    Type
REMARK                         _______ _______ _______ _____ _____    ______ ____
ROOT
ATOM      1  C   UNL     1      -2.797  -2.419   0.178  0.00  0.00    +0.065 C 
ATOM      2  C   UNL     1      -2.936  -3.729  -0.087  0.00  0.00    +0.017 C 
ATOM      3  N   UNL     1      -4.175  -4.285  -0.254  0.00  0.00    -0.304 N 
ATOM      4  C   UNL     1      -5.264  -3.484  -0.516  0.00  0.00    +0.111 A 
ATOM      5  C   UNL     1      -5.216  -2.148  -0.266  0.00  0.00    +0.069 A 
ATOM      6  C   UNL     1      -6.351  -1.359  -0.553  0.00  0.00    +0.280 A 
ATOM      7  O   UNL     1      -6.333  -0.155  -0.342  0.00  0.00    -0.265 OA
ATOM      8  N   UNL     1      -7.451  -1.939  -1.058  0.00  0.00    -0.185 NA
ATOM      9  C   UNL     1      -7.487  -3.234  -1.293  0.00  0.00    +0.171 A 
ATOM     10  N   UNL     1      -6.411  -4.028  -1.032  0.00  0.00    -0.322 N 
ATOM     11  H   UNL     1      -6.457  -4.981  -1.211  0.00  0.00    +0.169 HD
ATOM     12  C   UNL     1      -3.984  -1.511   0.316  0.00  0.00    +0.097 C 
ATOM     13  C   UNL     1      -1.711  -4.599  -0.201  0.00  0.00    +0.061 C 
ATOM     14  H   UNL     1      -4.286  -5.246  -0.189  0.00  0.00    +0.153 HD
ENDROOT
BRANCH  12  15
ATOM     15  C   UNL     1      -4.215  -1.217   1.776  0.00  0.00    -0.017 A 
ATOM     16  C   UNL     1      -4.175   0.088   2.244  0.00  0.00    +0.007 A 
ATOM     17  C   UNL     1      -4.393   0.311   3.595  0.00  0.00    +0.020 A 
ATOM     18  C   UNL     1      -4.643  -0.767   4.424  0.00  0.00    +0.111 A 
ATOM     19  N   UNL     1      -4.674  -1.994   3.943  0.00  0.00    -0.263 NA
ATOM     20  C   UNL     1      -4.477  -2.243   2.663  0.00  0.00    +0.115 A 
ENDBRANCH  12  15
BRANCH   1  21
ATOM     21  C   UNL     1      -1.498  -1.883   0.336  0.00  0.00    +0.338 C 
ATOM     22  O   UNL     1      -1.012  -1.196  -0.544  0.00  0.00    -0.245 OA
BRANCH  21  23
ATOM     23  O   UNL     1      -0.797  -2.134   1.461  0.00  0.00    -0.462 OA
BRANCH  23  25
ATOM     24  C   UNL     1       1.144  -1.951   2.889  0.00  0.00    +0.048 C 
ATOM     25  C   UNL     1       0.508  -1.561   1.553  0.00  0.00    +0.229 C 
ENDBRANCH  23  25
ENDBRANCH  21  23
ENDBRANCH   1  21
BRANCH   9  26
ATOM     26  S   UNL     1      -8.953  -3.953  -1.956  0.00  0.00    -0.087 S 
BRANCH  26  27
ATOM     27  C   UNL     1     -10.088  -2.550  -2.134  0.00  0.00    +0.080 C 
BRANCH  27  28
ATOM     28  C   UNL     1     -11.419  -3.040  -2.708  0.00  0.00    -0.007 C 
ATOM     29  C   UNL     1     -12.417  -1.881  -2.743  0.00  0.00    +0.008 C 
ATOM     30  C   UNL     1     -11.199  -3.566  -4.128  0.00  0.00    +0.008 C 
ENDBRANCH  27  28
ENDBRANCH  26  27
ENDBRANCH   9  26
TORSDOF 7
