REMARK  Name = ZINC39710888
REMARK  9 active torsions:
REMARK  status: ('A' for Active; 'I' for Inactive)
REMARK    1  A    between atoms: C_1  and  C_2
REMARK    2  A    between atoms: C_8  and  C_14
REMARK    3  A    between atoms: C_14  and  C_16
REMARK    4  A    between atoms: C_14  and  N_28
REMARK    5  A    between atoms: N_21  and  C_22
REMARK    6  A    between atoms: N_28  and  C_29
REMARK    7  A    between atoms: N_28  and  C_36
REMARK    8  A    between atoms: C_29  and  C_30
REMARK    9  A    between atoms: C_36  and  C_37
REMARK                            x       y       z     vdW  Elec       q    Type
REMARK                         _______ _______ _______ _____ _____    ______ ____
ROOT
ATOM      1  C   UNL     1      -0.848  -2.974   4.872  0.00  0.00    -0.009 C 
ENDROOT
BRANCH   1   9
ATOM      2  C   UNL     1       3.322  -6.772   2.450  0.00  0.00    +0.045 C 
ATOM      3  C   UNL     1       3.399  -5.816   3.613  0.00  0.00    -0.029 A 
ATOM      4  C   UNL     1       4.420  -5.920   4.504  0.00  0.00    +0.005 A 
ATOM      5  C   UNL     1       4.551  -5.068   5.601  0.00  0.00    +0.001 A 
ATOM      6  C   UNL     1       3.653  -4.077   5.838  0.00  0.00    +0.009 A 
ATOM      7  C   UNL     1       2.528  -3.909   4.916  0.00  0.00    -0.007 A 
ATOM      8  C   UNL     1       1.602  -2.928   5.114  0.00  0.00    -0.006 C 
ATOM      9  C   UNL     1       0.471  -2.827   4.110  0.00  0.00    +0.088 C 
ATOM     10  C   UNL     1       0.461  -3.822   2.972  0.00  0.00    +0.223 C 
ATOM     11  O   UNL     1      -0.423  -3.786   2.137  0.00  0.00    -0.275 OA
ATOM     12  N   UNL     1       1.418  -4.731   2.886  0.00  0.00    -0.284 N 
ATOM     13  C   UNL     1       2.418  -4.820   3.764  0.00  0.00    +0.043 A 
ATOM     14  H   UNL     1       1.394  -5.360   2.148  0.00  0.00    +0.155 HD
ENDBRANCH   1   9
BRANCH   1  15
ATOM     15  C   UNL     1      -2.018  -2.718   3.921  0.00  0.00    +0.205 C 
ATOM     16  N   UNL     1      -1.961  -1.347   3.395  0.00  0.00    -0.152 NA
ATOM     17  N   UNL     1      -2.980  -0.745   3.740  0.00  0.00    -0.070 NA
ATOM     18  N   UNL     1      -3.844  -1.532   4.501  0.00  0.00    -0.179 N 
ATOM     19  N   UNL     1      -3.301  -2.785   4.651  0.00  0.00    -0.185 NA
ATOM     20  H   UNL     1      -4.694  -1.242   4.866  0.00  0.00    +0.191 HD
BRANCH  19  21
ATOM     21  C   UNL     1      -4.180  -3.813   4.079  0.00  0.00    +0.080 C 
ATOM     22  C   UNL     1      -5.429  -3.960   4.951  0.00  0.00    +0.021 C 
ATOM     23  C   UNL     1      -6.344  -5.031   4.355  0.00  0.00    +0.002 C 
ATOM     24  C   UNL     1      -6.755  -4.621   2.940  0.00  0.00    +0.000 C 
ATOM     25  C   UNL     1      -5.506  -4.475   2.068  0.00  0.00    +0.002 C 
ATOM     26  C   UNL     1      -4.591  -3.404   2.664  0.00  0.00    +0.021 C 
ENDBRANCH  19  21
ENDBRANCH   1  15
BRANCH   1  27
ATOM     27  N   UNL     1      -0.889  -2.001   5.972  0.00  0.00    +0.392 N 
ATOM     28  H   UNL     1      -0.058  -2.096   6.536  0.00  0.00    -0.080 HD
BRANCH  27  29
ATOM     29  C   UNL     1      -0.953  -0.641   5.420  0.00  0.00    -0.042 C 
BRANCH  29  30
ATOM     30  C   UNL     1      -0.531   0.349   6.475  0.00  0.00    -0.064 A 
ATOM     31  C   UNL     1      -1.473   0.894   7.328  0.00  0.00    +0.002 A 
ATOM     32  C   UNL     1      -1.086   1.802   8.295  0.00  0.00    +0.000 A 
ATOM     33  C   UNL     1       0.243   2.166   8.410  0.00  0.00    +0.000 A 
ATOM     34  C   UNL     1       1.185   1.620   7.558  0.00  0.00    +0.000 A 
ATOM     35  C   UNL     1       0.798   0.709   6.593  0.00  0.00    +0.002 A 
ENDBRANCH  29  30
ENDBRANCH  27  29
BRANCH  27  36
ATOM     36  C   UNL     1      -2.076  -2.249   6.801  0.00  0.00    -0.002 C 
BRANCH  36  37
ATOM     37  C   UNL     1      -2.038  -3.663   7.321  0.00  0.00    +0.089 A 
ATOM     38  C   UNL     1      -1.544  -4.051   8.511  0.00  0.00    +0.042 A 
ATOM     39  C   UNL     1      -1.710  -5.453   8.586  0.00  0.00    +0.041 A 
ATOM     40  C   UNL     1      -2.296  -5.838   7.438  0.00  0.00    +0.195 A 
ATOM     41  O   UNL     1      -2.497  -4.749   6.678  0.00  0.00    -0.470 OA
ENDBRANCH  36  37
ENDBRANCH  27  36
ENDBRANCH   1  27
TORSDOF 8
