REMARK  Name = ZINC22959929
REMARK  8 active torsions:
REMARK  status: ('A' for Active; 'I' for Inactive)
REMARK    1  A    between atoms: C_1  and  C_2
REMARK    2  A    between atoms: C_2  and  C_3
REMARK    3  A    between atoms: C_2  and  C_4
REMARK    4  A    between atoms: C_2  and  N_5
REMARK    5  A    between atoms: C_6  and  C_8
REMARK    6  A    between atoms: C_11  and  N_14
REMARK    7  A    between atoms: N_14  and  S_15
REMARK    8  A    between atoms: S_15  and  C_18
REMARK                            x       y       z     vdW  Elec       q    Type
REMARK                         _______ _______ _______ _____ _____    ______ ____
ROOT
ATOM      1  N   UNL     1      -1.850   2.457   1.632  0.00  0.00    -0.216 N 
ATOM      2  H   UNL     1      -2.250   1.552   2.114  0.00  0.00    +0.174 HD
ENDROOT
BRANCH   1   6
ATOM      3  C   UNL     1       0.562   5.070   3.793  0.00  0.00    +0.037 A 
ATOM      4  C   UNL     1      -0.818   5.046   4.014  0.00  0.00    +0.015 A 
ATOM      5  C   UNL     1      -1.613   4.180   3.298  0.00  0.00    +0.025 A 
ATOM      6  C   UNL     1      -1.044   3.330   2.354  0.00  0.00    +0.048 A 
ATOM      7  C   UNL     1       0.330   3.348   2.135  0.00  0.00    +0.025 A 
ATOM      8  C   UNL     1       1.130   4.215   2.844  0.00  0.00    +0.015 A 
BRANCH   3  10
ATOM      9  N   UNL     1       2.748   6.020   4.344  0.00  0.00    -0.307 N 
ATOM     10  C   UNL     1       1.417   5.997   4.558  0.00  0.00    +0.244 C 
ATOM     11  O   UNL     1       0.922   6.741   5.383  0.00  0.00    -0.270 OA
ATOM     12  H   UNL     1       3.196   5.347   3.598  0.00  0.00    +0.150 HD
BRANCH   9  14
ATOM     13  C   UNL     1       3.468   6.637   6.598  0.00  0.00    +0.031 C 
ATOM     14  C   UNL     1       3.597   6.940   5.104  0.00  0.00    +0.026 C 
ATOM     15  C   UNL     1       5.054   6.765   4.671  0.00  0.00    +0.031 C 
ATOM     16  C   UNL     1       3.155   8.380   4.836  0.00  0.00    +0.031 C 
ENDBRANCH   9  14
ENDBRANCH   3  10
ENDBRANCH   1   6
BRANCH   1  17
ATOM     17  S   UNL     1      -2.208   2.779   0.048  0.00  0.00    +0.072 S 
ATOM     18  O   UNL     1      -3.086   1.749  -0.388  0.00  0.00    -0.150 OA
ATOM     19  O   UNL     1      -0.974   3.053  -0.600  0.00  0.00    -0.150 OA
BRANCH  17  20
ATOM     20  C   UNL     1      -3.136   4.277   0.017  0.00  0.00    +0.109 A 
ATOM     21  C   UNL     1      -4.515   4.235   0.215  0.00  0.00    +0.029 A 
ATOM     22  C   UNL     1      -5.261   5.372   0.193  0.00  0.00    +0.010 A 
ATOM     23  C   UNL     1      -4.635   6.610  -0.034  0.00  0.00    -0.018 A 
ATOM     24  C   UNL     1      -5.373   7.806  -0.066  0.00  0.00    +0.008 A 
ATOM     25  C   UNL     1      -4.732   8.986  -0.288  0.00  0.00    +0.001 A 
ATOM     26  C   UNL     1      -3.353   9.028  -0.486  0.00  0.00    +0.001 A 
ATOM     27  C   UNL     1      -2.607   7.891  -0.463  0.00  0.00    +0.008 A 
ATOM     28  C   UNL     1      -3.233   6.653  -0.236  0.00  0.00    -0.016 A 
ATOM     29  C   UNL     1      -2.495   5.457  -0.205  0.00  0.00    +0.037 A 
ENDBRANCH  17  20
ENDBRANCH   1  17
TORSDOF 5
