REMARK  Name = ZINC08517827
REMARK  6 active torsions:
REMARK  status: ('A' for Active; 'I' for Inactive)
REMARK    1  A    between atoms: C_4  and  N_10
REMARK    2  A    between atoms: C_6  and  N_7
REMARK    3  A    between atoms: C_11  and  C_13
REMARK    4  A    between atoms: C_13  and  O_14
REMARK    5  A    between atoms: O_14  and  C_15
REMARK    6  A    between atoms: C_15  and  C_17
REMARK                            x       y       z     vdW  Elec       q    Type
REMARK                         _______ _______ _______ _____ _____    ______ ____
ROOT
ATOM      1  C   UNL     1       4.960  -2.727   0.154  0.00  0.00    +0.328 C 
ENDROOT
BRANCH   1   3
ATOM      2  N   UNL     1       3.622  -0.656  -0.037  0.00  0.00    -0.280 N 
ATOM      3  C   UNL     1       3.644  -2.000   0.058  0.00  0.00    +0.255 C 
ATOM      4  O   UNL     1       2.604  -2.624   0.065  0.00  0.00    -0.272 OA
ATOM      5  H   UNL     1       4.452  -0.162  -0.123  0.00  0.00    +0.155 HD
BRANCH   2   9
ATOM      6  C   UNL     1      -0.015   1.380   0.043  0.00  0.00    +0.035 A 
ATOM      7  C   UNL     1       1.083   1.955  -0.571  0.00  0.00    +0.042 A 
ATOM      8  C   UNL     1       2.291   1.283  -0.600  0.00  0.00    +0.145 A 
ATOM      9  C   UNL     1       2.400   0.029  -0.009  0.00  0.00    +0.071 A 
ATOM     10  C   UNL     1       1.296  -0.544   0.606  0.00  0.00    +0.059 A 
ATOM     11  C   UNL     1       0.092   0.133   0.630  0.00  0.00    +0.128 A 
ATOM     12  F   UNL     1       3.363   1.845  -1.200  0.00  0.00    -0.204 F 
BRANCH  11  13
ATOM     13  N   UNL     1      -1.086  -0.477   1.287  0.00  0.00    +0.056 N 
ATOM     14  O   UNL     1      -2.140   0.114   1.310  0.00  0.00    -0.126 OA
ATOM     15  O   UNL     1      -0.994  -1.568   1.801  0.00  0.00    -0.126 OA
ENDBRANCH  11  13
ENDBRANCH   2   9
ENDBRANCH   1   3
BRANCH   1  16
ATOM     16  O   UNL     1       4.722  -4.133   0.244  0.00  0.00    -0.452 OA
BRANCH  16  17
ATOM     17  C   UNL     1       5.804  -4.933   0.337  0.00  0.00    +0.339 C 
ATOM     18  O   UNL     1       6.920  -4.449   0.342  0.00  0.00    -0.245 OA
BRANCH  17  19
ATOM     19  C   UNL     1       5.641  -6.339   0.429  0.00  0.00    +0.074 C 
ATOM     20  C   UNL     1       6.728  -7.143   0.529  0.00  0.00    +0.025 C 
ATOM     21  C   UNL     1       6.514  -8.597   0.563  0.00  0.00    +0.019 A 
ATOM     22  C   UNL     1       7.536  -9.473   0.928  0.00  0.00    +0.031 A 
ATOM     23  C   UNL     1       7.286 -10.830   0.969  0.00  0.00    +0.042 A 
ATOM     24  C   UNL     1       6.028 -11.320   0.651  0.00  0.00    +0.023 A 
ATOM     25  C   UNL     1       5.011 -10.461   0.280  0.00  0.00    +0.048 A 
ATOM     26  C   UNL     1       5.246  -9.098   0.223  0.00  0.00    +0.128 A 
ATOM     27  O   UNL     1       4.280  -8.236  -0.180  0.00  0.00    -0.487 OA
ATOM     28  C   UNL     1       4.260  -6.940   0.423  0.00  0.00    +0.271 C 
ATOM     29 CL   UNL     1       8.553 -11.928   1.418  0.00  0.00    -0.084 Cl
ENDBRANCH  17  19
ENDBRANCH  16  17
ENDBRANCH   1  16
TORSDOF 6
