REMARK  Name = ZINC36056510
REMARK  6 active torsions:
REMARK  status: ('A' for Active; 'I' for Inactive)
REMARK    1  A    between atoms: C_3  and  C_6
REMARK    2  A    between atoms: C_6  and  C_8
REMARK    3  A    between atoms: C_10  and  C_22
REMARK    4  A    between atoms: C_16  and  C_17
REMARK    5  A    between atoms: C_16  and  O_21
REMARK    6  A    between atoms: C_25  and  N_28
REMARK                            x       y       z     vdW  Elec       q    Type
REMARK                         _______ _______ _______ _____ _____    ______ ____
ROOT
ATOM      1  C   UNL     1       4.868   0.355   0.080  0.00  0.00    +0.145 C 
ATOM      2  C   UNL     1       6.050   1.209   0.552  0.00  0.00    +0.120 C 
ATOM      3  N   UNL     1       6.235   2.327  -0.373  0.00  0.00    -0.292 N 
ATOM      4  C   UNL     1       5.896   2.225  -1.667  0.00  0.00    +0.302 C 
ATOM      5  O   UNL     1       6.081   3.181  -2.396  0.00  0.00    -0.253 OA
ATOM      6  N   UNL     1       5.362   1.111  -2.189  0.00  0.00    -0.264 N 
ATOM      7  C   UNL     1       5.124  -0.081  -1.367  0.00  0.00    +0.243 C 
ATOM      8  H   UNL     1       6.610   3.159  -0.044  0.00  0.00    +0.151 HD
ATOM      9  H   UNL     1       5.127   1.093  -3.130  0.00  0.00    +0.153 HD
ENDROOT
BRANCH   2  10
ATOM     10  C   UNL     1       5.768   1.739   1.935  0.00  0.00    -0.026 A 
ATOM     11  C   UNL     1       6.208   1.043   3.045  0.00  0.00    +0.008 A 
ATOM     12  C   UNL     1       5.949   1.529   4.313  0.00  0.00    +0.033 A 
ATOM     13  C   UNL     1       5.250   2.711   4.470  0.00  0.00    +0.126 A 
ATOM     14  C   UNL     1       4.810   3.407   3.360  0.00  0.00    +0.033 A 
ATOM     15  C   UNL     1       5.073   2.923   2.092  0.00  0.00    +0.008 A 
BRANCH  13  16
ATOM     16  N   UNL     1       4.972   3.231   5.828  0.00  0.00    +0.056 N 
ATOM     17  O   UNL     1       5.356   2.622   6.799  0.00  0.00    -0.126 OA
ATOM     18  O   UNL     1       4.360   4.265   5.966  0.00  0.00    -0.126 OA
ENDBRANCH  13  16
ENDBRANCH   2  10
BRANCH   7  19
ATOM     19  C   UNL     1       3.905  -0.840  -1.895  0.00  0.00    +0.436 C 
ATOM     20  F   UNL     1       2.783  -0.006  -1.852  0.00  0.00    -0.166 F 
ATOM     21  F   UNL     1       4.140  -1.238  -3.216  0.00  0.00    -0.166 F 
ATOM     22  F   UNL     1       3.679  -1.969  -1.101  0.00  0.00    -0.166 F 
ENDBRANCH   7  19
BRANCH   1  23
ATOM     23  C   UNL     1       3.600   1.166   0.147  0.00  0.00    +0.179 C 
ATOM     24  O   UNL     1       3.581   2.300  -0.286  0.00  0.00    -0.291 OA
BRANCH  23  27
ATOM     25  C   UNL     1       0.229   0.378   1.462  0.00  0.00    +0.008 A 
ATOM     26  C   UNL     1       1.173   1.177   0.870  0.00  0.00    +0.019 A 
ATOM     27  C   UNL     1       2.433   0.606   0.713  0.00  0.00    +0.055 A 
ATOM     28  S   UNL     1       2.190  -1.015   1.413  0.00  0.00    -0.094 S 
ATOM     29  C   UNL     1       0.572  -0.879   1.845  0.00  0.00    +0.046 A 
ENDBRANCH  23  27
ENDBRANCH   1  23
BRANCH   7  30
ATOM     30  O   UNL     1       6.273  -0.929  -1.413  0.00  0.00    -0.364 OA
ATOM     31  H   UNL     1       6.494  -1.244  -2.301  0.00  0.00    +0.212 HD
ENDBRANCH   7  30
TORSDOF 6
