REMARK  Name = ZINC46581479
REMARK  8 active torsions:
REMARK  status: ('A' for Active; 'I' for Inactive)
REMARK    1  A    between atoms: C_1  and  C_2
REMARK    2  A    between atoms: C_2  and  C_3
REMARK    3  A    between atoms: C_3  and  C_5
REMARK    4  A    between atoms: C_3  and  S_14
REMARK    5  A    between atoms: C_10  and  C_13
REMARK    6  A    between atoms: S_14  and  C_15
REMARK    7  A    between atoms: C_19  and  C_25
REMARK    8  A    between atoms: C_20  and  C_24
REMARK                            x       y       z     vdW  Elec       q    Type
REMARK                         _______ _______ _______ _____ _____    ______ ____
ROOT
ATOM      1  S   UNL     1      -0.207  -0.480   2.664  0.00  0.00    -0.073 S 
ENDROOT
BRANCH   1   2
ATOM      2  C   UNL     1       0.854  -1.155   3.898  0.00  0.00    +0.192 A 
ATOM      3  N   UNL     1       1.986  -1.746   3.533  0.00  0.00    -0.207 NA
ATOM      4  C   UNL     1       2.821  -2.269   4.413  0.00  0.00    +0.129 A 
ATOM      5  C   UNL     1       2.505  -2.202   5.799  0.00  0.00    +0.050 A 
ATOM      6  C   UNL     1       3.250  -2.696   6.945  0.00  0.00    -0.028 A 
ATOM      7  C   UNL     1       2.751  -2.517   8.177  0.00  0.00    -0.008 A 
ATOM      8  S   UNL     1       1.217  -1.656   7.884  0.00  0.00    -0.073 S 
ATOM      9  C   UNL     1       1.288  -1.561   6.115  0.00  0.00    +0.115 A 
ATOM     10  N   UNL     1       0.510  -1.058   5.176  0.00  0.00    -0.214 NA
ATOM     11  C   UNL     1       3.345  -2.942   9.495  0.00  0.00    +0.052 C 
ATOM     12  C   UNL     1       4.567  -3.402   6.752  0.00  0.00    +0.045 C 
ATOM     13  N   UNL     1       3.990  -2.877   3.992  0.00  0.00    -0.343 N 
ATOM     14  H   UNL     1       4.028  -3.304   3.122  0.00  0.00    +0.144 HD
ATOM     15  H   UNL     1       4.771  -2.876   4.567  0.00  0.00    +0.144 HD
ENDBRANCH   1   2
BRANCH   1  16
ATOM     16  C   UNL     1       0.584  -0.951   1.101  0.00  0.00    +0.140 C 
BRANCH  16  17
ATOM     17  C   UNL     1       0.576  -2.451   0.965  0.00  0.00    +0.232 C 
ATOM     18  O   UNL     1      -0.262  -3.108   1.546  0.00  0.00    -0.274 OA
ATOM     19  N   UNL     1       1.501  -3.063   0.199  0.00  0.00    -0.267 N 
ATOM     20  C   UNL     1       1.494  -4.453   0.074  0.00  0.00    +0.168 A 
ATOM     21  C   UNL     1       0.578  -5.338   0.685  0.00  0.00    +0.091 A 
ATOM     22  C   UNL     1       0.903  -6.592   0.321  0.00  0.00    +0.136 A 
ATOM     23  O   UNL     1       1.974  -6.529  -0.485  0.00  0.00    -0.358 OA
ATOM     24  N   UNL     1       2.331  -5.166  -0.635  0.00  0.00    -0.063 NA
ATOM     25  C   UNL     1       0.188  -7.849   0.745  0.00  0.00    +0.089 C 
ATOM     26  H   UNL     1       2.171  -2.538  -0.265  0.00  0.00    +0.156 HD
ENDBRANCH  16  17
BRANCH  16  28
ATOM     27  C   UNL     1      -0.179   1.194   0.071  0.00  0.00    +0.005 C 
ATOM     28  C   UNL     1      -0.185  -0.329  -0.067  0.00  0.00    +0.020 C 
ENDBRANCH  16  28
ENDBRANCH   1  16
TORSDOF 4
