REMARK  Name = ZINC08765481
REMARK  10 active torsions:
REMARK  status: ('A' for Active; 'I' for Inactive)
REMARK    1  A    between atoms: C_1  and  C_2
REMARK    2  A    between atoms: C_6  and  C_29
REMARK    3  A    between atoms: C_7  and  C_11
REMARK    4  A    between atoms: C_11  and  C_12
REMARK    5  A    between atoms: N_14  and  C_15
REMARK    6  A    between atoms: C_15  and  C_17
REMARK    7  A    between atoms: C_15  and  C_18
REMARK    8  A    between atoms: C_18  and  C_19
REMARK    9  A    between atoms: C_32  and  C_36
REMARK   10  A    between atoms: C_33  and  C_35
REMARK                            x       y       z     vdW  Elec       q    Type
REMARK                         _______ _______ _______ _____ _____    ______ ____
ROOT
ATOM      1  C   UNL     1       0.728   7.917   0.645  0.00  0.00    +0.044 C 
ATOM      2  C   UNL     1       0.844   6.419   0.529  0.00  0.00    -0.036 A 
ATOM      3  C   UNL     1      -0.285   5.654   0.470  0.00  0.00    +0.051 A 
ATOM      4  C   UNL     1      -0.196   4.268   0.364  0.00  0.00    +0.143 A 
ATOM      5  C   UNL     1       1.064   3.649   0.317  0.00  0.00    +0.064 A 
ATOM      6  C   UNL     1       1.137   2.192   0.206  0.00  0.00    -0.026 A 
ATOM      7  C   UNL     1      -0.026   1.492   0.152  0.00  0.00    +0.049 A 
ATOM      8  C   UNL     1      -1.257   2.178   0.198  0.00  0.00    +0.341 A 
ATOM      9  O   UNL     1      -2.294   1.541   0.143  0.00  0.00    -0.245 OA
ATOM     10  O   UNL     1      -1.315   3.514   0.306  0.00  0.00    -0.422 OA
ATOM     11  C   UNL     1       2.468   1.486   0.152  0.00  0.00    +0.045 C 
ATOM     12  C   UNL     1       2.230   4.430   0.378  0.00  0.00    +0.147 A 
ATOM     13  C   UNL     1       2.108   5.822   0.484  0.00  0.00    +0.027 A 
ATOM     14  C   UNL     1       3.483   6.334   0.525  0.00  0.00    -0.002 A 
ATOM     15  C   UNL     1       4.283   5.262   0.443  0.00  0.00    +0.106 A 
ATOM     16  O   UNL     1       3.544   4.142   0.357  0.00  0.00    -0.459 OA
ATOM     17  C   UNL     1       5.789   5.306   0.448  0.00  0.00    +0.086 C 
ATOM     18  C   UNL     1       3.910   7.776   0.635  0.00  0.00    +0.048 C 
ENDROOT
BRANCH   7  19
ATOM     19  C   UNL     1      -0.001  -0.011   0.038  0.00  0.00    +0.138 C 
BRANCH  19  20
ATOM     20  C   UNL     1       0.007  -0.620   1.416  0.00  0.00    +0.218 C 
ATOM     21  O   UNL     1      -0.007   0.096   2.395  0.00  0.00    -0.275 OA
ATOM     22  N   UNL     1       0.029  -1.959   1.561  0.00  0.00    -0.312 N 
ATOM     23  H   UNL     1       0.040  -2.532   0.778  0.00  0.00    +0.149 HD
BRANCH  22  24
ATOM     24  C   UNL     1       0.037  -2.551   2.901  0.00  0.00    +0.074 C 
ATOM     25  C   UNL     1      -1.399  -2.666   3.416  0.00  0.00    +0.028 C 
BRANCH  24  26
ATOM     26  C   UNL     1       0.670  -3.943   2.840  0.00  0.00    +0.059 C 
BRANCH  26  27
ATOM     27  C   UNL     1       2.120  -3.818   2.451  0.00  0.00    -0.021 A 
ATOM     28  C   UNL     1       2.628  -3.930   1.213  0.00  0.00    +0.087 A 
ATOM     29  N   UNL     1       3.984  -3.755   1.247  0.00  0.00    -0.360 N 
ATOM     30  H   UNL     1       4.570  -3.789   0.475  0.00  0.00    +0.165 HD
ATOM     31  C   UNL     1       4.395  -3.529   2.542  0.00  0.00    +0.047 A 
ATOM     32  C   UNL     1       3.245  -3.559   3.353  0.00  0.00    +0.003 A 
ATOM     33  C   UNL     1       3.359  -3.357   4.730  0.00  0.00    +0.010 A 
ATOM     34  C   UNL     1       4.588  -3.132   5.284  0.00  0.00    +0.001 A 
ATOM     35  C   UNL     1       5.724  -3.102   4.488  0.00  0.00    +0.002 A 
ATOM     36  C   UNL     1       5.635  -3.298   3.127  0.00  0.00    +0.026 A 
ENDBRANCH  26  27
ENDBRANCH  24  26
ENDBRANCH  22  24
ENDBRANCH  19  20
ENDBRANCH   7  19
TORSDOF 5
