REMARK  Name = ZINC36548474
REMARK  6 active torsions:
REMARK  status: ('A' for Active; 'I' for Inactive)
REMARK    1  A    between atoms: C_5  and  N_7
REMARK    2  A    between atoms: N_7  and  C_8
REMARK    3  A    between atoms: C_8  and  C_10
REMARK    4  A    between atoms: C_8  and  C_18
REMARK    5  A    between atoms: N_20  and  C_21
REMARK    6  A    between atoms: C_27  and  C_29
REMARK                            x       y       z     vdW  Elec       q    Type
REMARK                         _______ _______ _______ _____ _____    ______ ____
ROOT
ATOM      1  C   UNL     1       1.116  -2.943  -1.257  0.00  0.00    +0.200 C 
ENDROOT
BRANCH   1   2
ATOM      2  C   UNL     1       2.249  -2.963  -2.250  0.00  0.00    +0.019 A 
ATOM      3  C   UNL     1       2.710  -1.780  -2.799  0.00  0.00    +0.048 A 
ATOM      4  C   UNL     1       3.750  -1.800  -3.711  0.00  0.00    +0.020 A 
ATOM      5  C   UNL     1       4.329  -3.002  -4.074  0.00  0.00    +0.003 A 
ATOM      6  C   UNL     1       3.869  -4.184  -3.526  0.00  0.00    +0.020 A 
ATOM      7  C   UNL     1       2.833  -4.165  -2.609  0.00  0.00    +0.048 A 
ATOM      8 CL   UNL     1       2.260  -5.650  -1.915  0.00  0.00    -0.083 Cl
ATOM      9 CL   UNL     1       1.983  -0.271  -2.344  0.00  0.00    -0.083 Cl
ENDBRANCH   1   2
BRANCH   1  10
ATOM     10  C   UNL     1      -0.071  -2.241  -1.864  0.00  0.00    +0.239 C 
ATOM     11  O   UNL     1      -0.568  -1.290  -1.299  0.00  0.00    -0.273 OA
ATOM     12  N   UNL     1      -0.582  -2.671  -3.035  0.00  0.00    -0.311 N 
ATOM     13  H   UNL     1      -0.185  -3.433  -3.487  0.00  0.00    +0.149 HD
BRANCH  12  14
ATOM     14  C   UNL     1      -1.736  -1.990  -3.625  0.00  0.00    +0.073 C 
ATOM     15  C   UNL     1      -3.025  -2.555  -3.024  0.00  0.00    +0.022 C 
ATOM     16  C   UNL     1      -4.231  -1.843  -3.641  0.00  0.00    +0.002 C 
ATOM     17  C   UNL     1      -4.234  -2.064  -5.155  0.00  0.00    +0.000 C 
ATOM     18  C   UNL     1      -2.946  -1.499  -5.756  0.00  0.00    +0.002 C 
ATOM     19  C   UNL     1      -1.740  -2.211  -5.139  0.00  0.00    +0.022 C 
ENDBRANCH  12  14
ENDBRANCH   1  10
BRANCH   1  20
ATOM     20  N   UNL     1       1.539  -2.230  -0.049  0.00  0.00    -0.252 N 
ATOM     21  C   UNL     1       2.845  -1.970   0.158  0.00  0.00    +0.241 C 
ATOM     22  O   UNL     1       3.657  -2.219  -0.708  0.00  0.00    -0.273 OA
BRANCH  20  27
ATOM     23  C   UNL     1      -0.819  -2.305   2.773  0.00  0.00    +0.002 A 
ATOM     24  C   UNL     1      -1.298  -1.008   2.748  0.00  0.00    +0.002 A 
ATOM     25  C   UNL     1      -0.839  -0.115   1.798  0.00  0.00    +0.022 A 
ATOM     26  C   UNL     1       0.102  -0.517   0.868  0.00  0.00    +0.062 A 
ATOM     27  C   UNL     1       0.586  -1.819   0.891  0.00  0.00    +0.056 A 
ATOM     28  C   UNL     1       0.122  -2.712   1.848  0.00  0.00    +0.025 A 
ATOM     29 CL   UNL     1       0.678   0.604  -0.326  0.00  0.00    -0.082 Cl
ENDBRANCH  20  27
BRANCH  21  30
ATOM     30  C   UNL     1       3.296  -1.370   1.465  0.00  0.00    +0.160 C 
ATOM     31  C   UNL     1       3.071   0.158   1.457  0.00  0.00    +0.041 C 
ATOM     32  C   UNL     1       4.445   0.677   0.973  0.00  0.00    +0.098 C 
ATOM     33  C   UNL     1       5.413  -0.420   1.359  0.00  0.00    +0.214 C 
ATOM     34  O   UNL     1       6.618  -0.295   1.414  0.00  0.00    -0.276 OA
ATOM     35  N   UNL     1       4.742  -1.554   1.635  0.00  0.00    -0.304 N 
ATOM     36  H   UNL     1       5.159  -2.385   1.912  0.00  0.00    +0.149 HD
ENDBRANCH  21  30
ENDBRANCH   1  20
TORSDOF 6
