REMARK  Name = ZINC39197892
REMARK  13 active torsions:
REMARK  status: ('A' for Active; 'I' for Inactive)
REMARK    1  A    between atoms: C_1  and  C_2
REMARK    2  A    between atoms: C_2  and  C_3
REMARK    3  A    between atoms: C_2  and  S_4
REMARK    4  A    between atoms: S_4  and  C_5
REMARK    5  A    between atoms: C_5  and  C_7
REMARK    6  A    between atoms: C_5  and  N_24
REMARK    7  A    between atoms: N_9  and  C_10
REMARK    8  A    between atoms: C_10  and  C_11
REMARK    9  A    between atoms: C_11  and  C_13
REMARK   10  A    between atoms: C_11  and  N_19
REMARK   11  A    between atoms: C_25  and  O_27
REMARK   12  A    between atoms: O_27  and  C_28
REMARK   13  A    between atoms: C_28  and  C_29
REMARK                            x       y       z     vdW  Elec       q    Type
REMARK                         _______ _______ _______ _____ _____    ______ ____
ROOT
ATOM      1  C   UNL     1      -0.912  -2.348  -1.876  0.00  0.00    +0.244 C 
ATOM      2  O   UNL     1      -1.380  -3.127  -2.679  0.00  0.00    -0.273 OA
ATOM      3  N   UNL     1       0.013  -1.449  -2.270  0.00  0.00    -0.314 N 
ATOM      4  H   UNL     1       0.438  -0.873  -1.615  0.00  0.00    +0.149 HD
ENDROOT
BRANCH   1   5
ATOM      5  C   UNL     1      -1.363  -2.385  -0.439  0.00  0.00    +0.220 C 
BRANCH   5   6
ATOM      6  N   UNL     1      -0.316  -2.993   0.386  0.00  0.00    -0.261 N 
ATOM      7  C   UNL     1      -0.643  -3.894   1.334  0.00  0.00    +0.402 C 
ATOM      8  O   UNL     1      -1.794  -4.268   1.445  0.00  0.00    -0.226 OA
ATOM      9  H   UNL     1       0.612  -2.748   0.250  0.00  0.00    +0.154 HD
BRANCH   7  10
ATOM     10  O   UNL     1       0.305  -4.379   2.157  0.00  0.00    -0.446 OA
BRANCH  10  11
ATOM     11  C   UNL     1      -0.113  -5.330   3.138  0.00  0.00    +0.269 C 
BRANCH  11  12
ATOM     12  C   UNL     1       1.075  -5.758   3.962  0.00  0.00    -0.010 A 
ATOM     13  C   UNL     1       1.838  -6.840   3.565  0.00  0.00    +0.007 A 
ATOM     14  C   UNL     1       2.927  -7.232   4.320  0.00  0.00    +0.000 A 
ATOM     15  C   UNL     1       3.254  -6.541   5.472  0.00  0.00    +0.000 A 
ATOM     16  C   UNL     1       2.492  -5.458   5.868  0.00  0.00    +0.000 A 
ATOM     17  C   UNL     1       1.405  -5.063   5.111  0.00  0.00    +0.007 A 
ENDBRANCH  11  12
ENDBRANCH  10  11
ENDBRANCH   7  10
ENDBRANCH   5   6
BRANCH   5  18
ATOM     18  S   UNL     1      -1.682  -0.695   0.138  0.00  0.00    -0.126 S 
BRANCH  18  20
ATOM     19  C   UNL     1      -3.838   0.988   0.150  0.00  0.00    +0.019 C 
ATOM     20  C   UNL     1      -3.373  -0.353  -0.422  0.00  0.00    +0.043 C 
ATOM     21  C   UNL     1      -3.402  -0.292  -1.950  0.00  0.00    +0.019 C 
ENDBRANCH  18  20
ENDBRANCH   5  18
ENDBRANCH   1   5
BRANCH   3  22
ATOM     22  C   UNL     1       0.374  -1.342  -3.685  0.00  0.00    +0.093 C 
BRANCH  22  23
ATOM     23  C   UNL     1       1.519  -0.340  -3.844  0.00  0.00    -0.019 C 
BRANCH  23  24
ATOM     24  C   UNL     1       1.048   1.031  -3.431  0.00  0.00    -0.041 A 
ATOM     25  C   UNL     1       1.364   1.534  -2.178  0.00  0.00    +0.005 A 
ATOM     26  C   UNL     1       0.910   2.799  -1.841  0.00  0.00    +0.020 A 
ATOM     27  C   UNL     1       0.162   3.513  -2.758  0.00  0.00    +0.111 A 
ATOM     28  N   UNL     1      -0.120   3.003  -3.941  0.00  0.00    -0.263 NA
ATOM     29  C   UNL     1       0.301   1.805  -4.298  0.00  0.00    +0.112 A 
ENDBRANCH  23  24
BRANCH  23  30
ATOM     30  N   UNL     1       1.949  -0.307  -5.249  0.00  0.00    +0.385 N 
ATOM     31  C   UNL     1       3.161   0.540  -5.393  0.00  0.00    -0.078 C 
ATOM     32  C   UNL     1       3.790   0.035  -6.716  0.00  0.00    -0.020 C 
ATOM     33  C   UNL     1       3.530  -1.488  -6.664  0.00  0.00    -0.020 C 
ATOM     34  C   UNL     1       2.348  -1.660  -5.692  0.00  0.00    -0.078 C 
ATOM     35  H   UNL     1       1.206   0.045  -5.833  0.00  0.00    -0.081 HD
ENDBRANCH  23  30
ENDBRANCH  22  23
ENDBRANCH   3  22
TORSDOF 11
