REMARK  Name = ZINC12145922
REMARK  8 active torsions:
REMARK  status: ('A' for Active; 'I' for Inactive)
REMARK    1  A    between atoms: C_1  and  C_2
REMARK    2  A    between atoms: C_2  and  C_3
REMARK    3  A    between atoms: C_2  and  C_4
REMARK    4  A    between atoms: C_2  and  C_5
REMARK    5  A    between atoms: C_8  and  C_11
REMARK    6  A    between atoms: C_13  and  C_29
REMARK    7  A    between atoms: N_17  and  C_22
REMARK    8  A    between atoms: C_22  and  C_23
REMARK                            x       y       z     vdW  Elec       q    Type
REMARK                         _______ _______ _______ _____ _____    ______ ____
ROOT
ATOM      1  C   UNL     1       1.109   2.025   0.002  0.00  0.00    +0.163 A 
ATOM      2  N   UNL     1      -0.016   1.329   0.009  0.00  0.00    -0.220 NA
ATOM      3  C   UNL     1       0.002  -0.004   0.002  0.00  0.00    +0.154 A 
ATOM      4  C   UNL     1       1.237  -0.655  -0.013  0.00  0.00    +0.117 A 
ATOM      5  C   UNL     1       2.408   0.125  -0.020  0.00  0.00    +0.166 A 
ATOM      6  N   UNL     1       2.302   1.442  -0.012  0.00  0.00    -0.208 NA
ATOM      7  N   UNL     1       3.471  -0.759  -0.035  0.00  0.00    -0.274 N 
ATOM      8  C   UNL     1       2.982  -2.014  -0.036  0.00  0.00    +0.329 A 
ATOM      9  O   UNL     1       3.656  -3.027  -0.047  0.00  0.00    -0.246 OA
ATOM     10  N   UNL     1       1.636  -1.979  -0.024  0.00  0.00    -0.303 N 
ATOM     11  H   UNL     1       1.047  -2.750  -0.022  0.00  0.00    +0.171 HD
ENDROOT
BRANCH   1  15
ATOM     12  C   UNL     1       0.899   6.272   0.027  0.00  0.00    -0.042 A 
ATOM     13  C   UNL     1      -0.265   5.524   0.034  0.00  0.00    +0.005 A 
ATOM     14  C   UNL     1      -0.203   4.146   0.026  0.00  0.00    +0.012 A 
ATOM     15  C   UNL     1       1.036   3.507   0.011  0.00  0.00    +0.019 A 
ATOM     16  C   UNL     1       2.205   4.265   0.010  0.00  0.00    +0.012 A 
ATOM     17  C   UNL     1       2.131   5.643   0.011  0.00  0.00    +0.005 A 
BRANCH  12  19
ATOM     18  C   UNL     1       0.091   8.244   1.294  0.00  0.00    +0.015 C 
ATOM     19  C   UNL     1       0.824   7.777   0.035  0.00  0.00    -0.013 C 
ATOM     20  C   UNL     1       2.240   8.358   0.024  0.00  0.00    +0.015 C 
ATOM     21  C   UNL     1       0.067   8.257  -1.205  0.00  0.00    +0.015 C 
ENDBRANCH  12  19
ENDBRANCH   1  15
BRANCH   3  22
ATOM     22  C   UNL     1      -1.261  -0.778   0.009  0.00  0.00    +0.262 C 
ATOM     23  O   UNL     1      -1.229  -1.993   0.003  0.00  0.00    -0.269 OA
ATOM     24  N   UNL     1      -2.445  -0.135   0.024  0.00  0.00    -0.324 N 
ATOM     25  H   UNL     1      -2.470   0.835   0.029  0.00  0.00    +0.145 HD
ATOM     26  H   UNL     1      -3.272  -0.641   0.029  0.00  0.00    +0.145 HD
ENDBRANCH   3  22
BRANCH   7  27
ATOM     27  C   UNL     1       4.889  -0.392  -0.047  0.00  0.00    +0.160 C 
BRANCH  27  28
ATOM     28  C   UNL     1       5.397  -0.271   1.392  0.00  0.00    +0.138 C 
ATOM     29  C   UNL     1       6.877   0.185   1.403  0.00  0.00    +0.035 C 
ATOM     30  C   UNL     1       6.972   0.845   2.806  0.00  0.00    +0.031 C 
ATOM     31  C   UNL     1       5.564   1.455   2.976  0.00  0.00    +0.160 C 
ATOM     32  O   UNL     1       4.680   0.761   2.088  0.00  0.00    -0.375 OA
ENDBRANCH  27  28
ENDBRANCH   7  27
TORSDOF 5
