REMARK  Name = ZINC39749209
REMARK  7 active torsions:
REMARK  status: ('A' for Active; 'I' for Inactive)
REMARK    1  A    between atoms: C_1  and  O_2
REMARK    2  A    between atoms: O_2  and  C_3
REMARK    3  A    between atoms: C_8  and  C_9
REMARK    4  A    between atoms: C_15  and  S_19
REMARK    5  A    between atoms: S_19  and  C_20
REMARK    6  A    between atoms: C_20  and  C_21
REMARK    7  A    between atoms: C_24  and  N_27
REMARK                            x       y       z     vdW  Elec       q    Type
REMARK                         _______ _______ _______ _____ _____    ______ ____
ROOT
ATOM      1  C   UNL     1       0.052  -2.828   0.005  0.00  0.00    +0.077 C 
ATOM      2  C   UNL     1       1.113  -3.704  -0.655  0.00  0.00    +0.157 C 
ATOM      3  C   UNL     1       1.527  -4.795   0.293  0.00  0.00    +0.145 C 
ATOM      4  N   UNL     1       2.799  -5.097   0.452  0.00  0.00    -0.208 NA
ATOM      5  C   UNL     1       3.772  -4.390  -0.122  0.00  0.00    +0.182 C 
ATOM      6  N   UNL     1       3.530  -3.301  -0.842  0.00  0.00    -0.154 NA
ATOM      7  C   UNL     1       2.300  -2.907  -1.094  0.00  0.00    +0.250 C 
ATOM      8  O   UNL     1       2.132  -1.872  -1.710  0.00  0.00    -0.273 OA
ATOM      9  N   UNL     1       0.603  -5.414   1.021  0.00  0.00    -0.236 NA
ATOM     10  C   UNL     1      -0.645  -4.991   1.091  0.00  0.00    +0.050 C 
ATOM     11  C   UNL     1      -1.009  -3.733   0.596  0.00  0.00    +0.025 C 
ATOM     12  C   UNL     1      -2.291  -3.303   0.631  0.00  0.00    +0.162 C 
ATOM     13  O   UNL     1      -2.588  -2.097   0.115  0.00  0.00    -0.292 OA
ATOM     14  C   UNL     1      -3.392  -4.133   1.229  0.00  0.00    +0.080 C 
ATOM     15  C   UNL     1      -3.041  -5.618   1.115  0.00  0.00    +0.014 C 
ATOM     16  C   UNL     1      -1.676  -5.855   1.775  0.00  0.00    +0.056 C 
ENDROOT
BRANCH   1  22
ATOM     17  C   UNL     1       0.626  -0.618   1.042  0.00  0.00    +0.124 A 
ATOM     18  C   UNL     1       1.202   0.139   2.051  0.00  0.00    +0.046 A 
ATOM     19  C   UNL     1       1.835  -0.488   3.107  0.00  0.00    +0.004 A 
ATOM     20  C   UNL     1       1.895  -1.869   3.158  0.00  0.00    +0.001 A 
ATOM     21  C   UNL     1       1.321  -2.625   2.153  0.00  0.00    +0.008 A 
ATOM     22  C   UNL     1       0.682  -2.003   1.097  0.00  0.00    +0.003 A 
BRANCH  17  24
ATOM     23  C   UNL     1      -0.017   1.425   0.010  0.00  0.00    +0.277 C 
ATOM     24  O   UNL     1       0.002  -0.004   0.002  0.00  0.00    -0.495 OA
ENDBRANCH  17  24
ENDBRANCH   1  22
BRANCH   5  25
ATOM     25  S   UNL     1       5.441  -4.918   0.083  0.00  0.00    -0.084 S 
BRANCH  25  26
ATOM     26  C   UNL     1       6.406  -3.693  -0.843  0.00  0.00    +0.112 C 
BRANCH  26  27
ATOM     27  C   UNL     1       7.871  -4.032  -0.749  0.00  0.00    -0.037 A 
ATOM     28  C   UNL     1       8.634  -3.519   0.284  0.00  0.00    +0.007 A 
ATOM     29  C   UNL     1       9.978  -3.830   0.371  0.00  0.00    +0.033 A 
ATOM     30  C   UNL     1      10.559  -4.654  -0.575  0.00  0.00    +0.126 A 
ATOM     31  C   UNL     1       9.796  -5.168  -1.606  0.00  0.00    +0.033 A 
ATOM     32  C   UNL     1       8.451  -4.860  -1.691  0.00  0.00    +0.007 A 
BRANCH  30  33
ATOM     33  N   UNL     1      11.999  -4.986  -0.482  0.00  0.00    +0.056 N 
ATOM     34  O   UNL     1      12.666  -4.537   0.420  0.00  0.00    -0.126 OA
ATOM     35  O   UNL     1      12.507  -5.707  -1.309  0.00  0.00    -0.126 OA
ENDBRANCH  30  33
ENDBRANCH  26  27
ENDBRANCH  25  26
ENDBRANCH   5  25
TORSDOF 6
