REMARK  Name = ZINC02271432
REMARK  6 active torsions:
REMARK  status: ('A' for Active; 'I' for Inactive)
REMARK    1  A    between atoms: C_1  and  C_2
REMARK    2  A    between atoms: C_2  and  C_31
REMARK    3  A    between atoms: C_3  and  N_28
REMARK    4  A    between atoms: C_5  and  C_21
REMARK    5  A    between atoms: C_7  and  C_14
REMARK    6  A    between atoms: C_9  and  N_11
REMARK                            x       y       z     vdW  Elec       q    Type
REMARK                         _______ _______ _______ _____ _____    ______ ____
ROOT
ATOM      1  C   UNL     1      -1.143   8.837  -2.576  0.00  0.00    +0.015 C 
ATOM      2  C   UNL     1      -0.493   7.868  -1.587  0.00  0.00    +0.017 C 
ATOM      3  C   UNL     1      -1.400   7.700  -0.364  0.00  0.00    +0.168 C 
ATOM      4  C   UNL     1      -0.773   6.684   0.594  0.00  0.00    -0.010 C 
ATOM      5  C   UNL     1       0.296   5.524  -1.245  0.00  0.00    -0.010 C 
ATOM      6  C   UNL     1      -0.298   6.505  -2.258  0.00  0.00    +0.168 C 
ATOM      7  C   UNL     1       0.863   8.421  -1.146  0.00  0.00    +0.015 C 
ATOM      8  N   UNL     1      -0.613   5.387  -0.092  0.00  0.00    +0.391 N 
ATOM      9  H   UNL     1      -1.530   5.063  -0.421  0.00  0.00    -0.084 HD
ATOM     10  H   UNL     1      -0.224   4.702   0.567  0.00  0.00    -0.084 HD
ENDROOT
BRANCH   5  11
ATOM     11  C   UNL     1       0.472   4.176  -1.896  0.00  0.00    -0.058 A 
ATOM     12  C   UNL     1      -0.611   3.327  -2.031  0.00  0.00    +0.002 A 
ATOM     13  C   UNL     1      -0.451   2.093  -2.633  0.00  0.00    +0.001 A 
ATOM     14  C   UNL     1       0.793   1.703  -3.091  0.00  0.00    +0.015 A 
ATOM     15  C   UNL     1       1.877   2.552  -2.956  0.00  0.00    +0.018 A 
ATOM     16  C   UNL     1       1.716   3.789  -2.358  0.00  0.00    +0.017 A 
ATOM     17 BR   UNL     1       3.578   2.022  -3.590  0.00  0.00    -0.050 Br
ENDBRANCH   5  11
BRANCH   4  18
ATOM     18  C   UNL     1       0.572   7.186   1.049  0.00  0.00    -0.058 A 
ATOM     19  C   UNL     1       1.663   6.337   1.052  0.00  0.00    +0.002 A 
ATOM     20  C   UNL     1       2.899   6.799   1.464  0.00  0.00    +0.001 A 
ATOM     21  C   UNL     1       3.042   8.108   1.885  0.00  0.00    +0.015 A 
ATOM     22  C   UNL     1       1.950   8.957   1.887  0.00  0.00    +0.018 A 
ATOM     23  C   UNL     1       0.715   8.495   1.469  0.00  0.00    +0.017 A 
ATOM     24 BR   UNL     1       2.146  10.747   2.463  0.00  0.00    -0.050 Br
ENDBRANCH   4  18
BRANCH   6  25
ATOM     25  N   UNL     1       0.615   6.647  -3.395  0.00  0.00    +0.025 N 
ATOM     26  O   UNL     1       0.240   6.355  -4.517  0.00  0.00    -0.131 OA
ATOM     27  O   UNL     1       1.748   7.056  -3.220  0.00  0.00    -0.131 OA
ENDBRANCH   6  25
BRANCH   3  28
ATOM     28  N   UNL     1      -2.716   7.221  -0.793  0.00  0.00    +0.025 N 
ATOM     29  O   UNL     1      -3.711   7.883  -0.559  0.00  0.00    -0.131 OA
ATOM     30  O   UNL     1      -2.815   6.161  -1.384  0.00  0.00    -0.131 OA
ENDBRANCH   3  28
TORSDOF 4
