REMARK  Name = ZINC39674455
REMARK  12 active torsions:
REMARK  status: ('A' for Active; 'I' for Inactive)
REMARK    1  A    between atoms: C_1  and  C_2
REMARK    2  A    between atoms: C_4  and  C_9
REMARK    3  A    between atoms: C_5  and  C_8
REMARK    4  A    between atoms: C_9  and  C_11
REMARK    5  A    between atoms: C_9  and  N_12
REMARK    6  A    between atoms: C_13  and  C_15
REMARK    7  A    between atoms: C_26  and  C_28
REMARK    8  A    between atoms: C_31  and  C_38
REMARK    9  A    between atoms: N_33  and  C_34
REMARK   10  A    between atoms: C_34  and  C_35
REMARK   11  A    between atoms: C_34  and  C_36
REMARK   12  A    between atoms: C_34  and  C_37
REMARK                            x       y       z     vdW  Elec       q    Type
REMARK                         _______ _______ _______ _____ _____    ______ ____
ROOT
ATOM      1  C   UNL     1       1.257   4.582  -4.670  0.00  0.00    +0.100 C 
ATOM      2  C   UNL     1      -0.164   4.460  -4.075  0.00  0.00    +0.121 C 
ATOM      3  N   UNL     1      -1.063   4.948  -5.147  0.00  0.00    -0.299 N 
ATOM      4  C   UNL     1      -0.472   4.410  -6.396  0.00  0.00    +0.115 C 
ATOM      5  C   UNL     1       1.050   4.547  -6.194  0.00  0.00    -0.004 C 
ATOM      6  C   UNL     1       1.773   3.347  -6.798  0.00  0.00    -0.010 C 
ATOM      7  C   UNL     1       1.602   3.367  -8.320  0.00  0.00    -0.082 C 
ATOM      8  N   UNL     1       2.151   4.616  -8.860  0.00  0.00    +0.379 N 
ATOM      9  C   UNL     1       1.390   5.761  -8.345  0.00  0.00    -0.082 C 
ATOM     10  C   UNL     1       1.552   5.843  -6.825  0.00  0.00    -0.010 C 
ATOM     11  C   UNL     1      -2.167   5.709  -5.017  0.00  0.00    +0.238 C 
ATOM     12  O   UNL     1      -2.803   6.028  -5.999  0.00  0.00    -0.273 OA
ATOM     13  H   UNL     1       3.117   4.705  -8.583  0.00  0.00    -0.086 HD
ATOM     14  H   UNL     1       2.093   4.601  -9.867  0.00  0.00    -0.086 HD
ENDROOT
BRANCH  11  15
ATOM     15  C   UNL     1      -2.612   6.163  -3.651  0.00  0.00    +0.184 C 
ATOM     16  C   UNL     1      -3.586   5.142  -3.028  0.00  0.00    +0.085 C 
ATOM     17  C   UNL     1      -4.864   5.928  -2.844  0.00  0.00    +0.036 C 
ATOM     18  N   UNL     1      -4.699   7.119  -3.253  0.00  0.00    -0.192 NA
ATOM     19  N   UNL     1      -3.421   7.390  -3.749  0.00  0.00    -0.238 N 
ATOM     20  C   UNL     1      -6.143   5.381  -2.263  0.00  0.00    +0.062 C 
BRANCH  19  21
ATOM     21  C   UNL     1      -2.962   8.676  -4.279  0.00  0.00    +0.044 C 
ATOM     22  C   UNL     1      -1.548   8.519  -4.843  0.00  0.00    +0.033 C 
ATOM     23  C   UNL     1      -3.906   9.136  -5.391  0.00  0.00    +0.033 C 
ATOM     24  C   UNL     1      -2.950   9.715  -3.157  0.00  0.00    +0.033 C 
ENDBRANCH  19  21
ENDBRANCH  11  15
BRANCH   1  26
ATOM     25  N   UNL     1       3.453   3.545  -4.201  0.00  0.00    -0.309 N 
ATOM     26  C   UNL     1       2.111   3.421  -4.230  0.00  0.00    +0.219 C 
ATOM     27  O   UNL     1       1.591   2.376  -3.902  0.00  0.00    -0.275 OA
ATOM     28  H   UNL     1       3.869   4.381  -4.464  0.00  0.00    +0.149 HD
BRANCH  25  29
ATOM     29  C   UNL     1       4.284   2.417  -3.773  0.00  0.00    +0.100 C 
ATOM     30  C   UNL     1       4.298   2.345  -2.245  0.00  0.00    +0.033 C 
BRANCH  29  33
ATOM     31  C   UNL     1       6.031   5.073  -4.588  0.00  0.00    +0.039 C 
ATOM     32  C   UNL     1       6.624   3.777  -4.031  0.00  0.00    +0.154 C 
ATOM     33  C   UNL     1       5.690   2.607  -4.281  0.00  0.00    -0.001 C 
ATOM     34  C   UNL     1       6.403   1.786  -5.055  0.00  0.00    +0.063 C 
ATOM     35  N   UNL     1       7.628   2.301  -5.300  0.00  0.00    -0.159 NA
ATOM     36  N   UNL     1       7.840   3.400  -4.771  0.00  0.00    -0.180 NA
ATOM     37  C   UNL     1       5.909   0.464  -5.583  0.00  0.00    +0.067 C 
ENDBRANCH  29  33
ENDBRANCH  25  29
ENDBRANCH   1  26
TORSDOF 5
