REMARK  Name = ZINC67632145
REMARK  10 active torsions:
REMARK  status: ('A' for Active; 'I' for Inactive)
REMARK    1  A    between atoms: C_1  and  C_2
REMARK    2  A    between atoms: C_2  and  C_4
REMARK    3  A    between atoms: C_2  and  N_22
REMARK    4  A    between atoms: C_4  and  C_5
REMARK    5  A    between atoms: C_5  and  O_7
REMARK    6  A    between atoms: O_7  and  C_8
REMARK    7  A    between atoms: C_8  and  C_10
REMARK    8  A    between atoms: C_8  and  C_11
REMARK    9  A    between atoms: C_14  and  N_17
REMARK   10  A    between atoms: C_23  and  C_25
REMARK                            x       y       z     vdW  Elec       q    Type
REMARK                         _______ _______ _______ _____ _____    ______ ____
ROOT
ATOM      1  C   UNL     1       0.870  -2.011   1.172  0.00  0.00    +0.309 C 
ATOM      2  O   UNL     1       0.416  -2.613   0.228  0.00  0.00    -0.251 OA
ENDROOT
BRANCH   1   3
ATOM      3  C   UNL     1       0.742  -0.511   1.242  0.00  0.00    +0.142 C 
BRANCH   3   5
ATOM      4  C   UNL     1      -0.019   1.526   0.010  0.00  0.00    +0.028 C 
ATOM      5  C   UNL     1       0.002  -0.004   0.002  0.00  0.00    +0.080 C 
BRANCH   5   6
ATOM      6  N   UNL     1      -1.372  -0.511   0.012  0.00  0.00    -0.312 N 
ATOM      7  C   UNL     1      -2.051  -0.643  -1.145  0.00  0.00    +0.216 C 
ATOM      8  O   UNL     1      -1.524  -0.341  -2.194  0.00  0.00    -0.276 OA
ATOM      9  H   UNL     1      -1.794  -0.752   0.852  0.00  0.00    +0.149 HD
BRANCH   7  10
ATOM     10  C   UNL     1      -3.465  -1.164  -1.134  0.00  0.00    +0.075 C 
ATOM     11  C   UNL     1      -3.485  -2.571  -0.532  0.00  0.00    +0.013 C 
ATOM     12  C   UNL     1      -4.920  -3.100  -0.521  0.00  0.00    +0.001 C 
ATOM     13  C   UNL     1      -5.456  -3.151  -1.953  0.00  0.00    +0.000 C 
ATOM     14  C   UNL     1      -5.436  -1.745  -2.555  0.00  0.00    +0.001 C 
ATOM     15  C   UNL     1      -4.000  -1.215  -2.566  0.00  0.00    +0.013 C 
ENDBRANCH   7  10
ENDBRANCH   5   6
ENDBRANCH   3   5
ENDBRANCH   1   3
BRANCH   1  16
ATOM     16  O   UNL     1       1.488  -2.678   2.159  0.00  0.00    -0.457 OA
BRANCH  16  17
ATOM     17  C   UNL     1       1.573  -4.099   2.027  0.00  0.00    +0.203 C 
ATOM     18  C   UNL     1       0.347  -4.745   2.674  0.00  0.00    +0.057 C 
BRANCH  17  19
ATOM     19  C   UNL     1       2.821  -4.593   2.713  0.00  0.00    -0.007 A 
ATOM     20  C   UNL     1       3.207  -4.046   3.923  0.00  0.00    +0.009 A 
ATOM     21  C   UNL     1       4.350  -4.497   4.553  0.00  0.00    +0.028 A 
ATOM     22  C   UNL     1       5.112  -5.500   3.971  0.00  0.00    +0.067 A 
ATOM     23  C   UNL     1       4.723  -6.048   2.756  0.00  0.00    +0.028 A 
ATOM     24  C   UNL     1       3.576  -5.596   2.133  0.00  0.00    +0.009 A 
BRANCH  22  25
ATOM     25  N   UNL     1       6.273  -5.960   4.609  0.00  0.00    -0.220 N 
ATOM     26  C   UNL     1       7.112  -6.917   4.167  0.00  0.00    +0.225 A 
ATOM     27  N   UNL     1       8.071  -7.052   5.047  0.00  0.00    -0.222 NA
ATOM     28  C   UNL     1       7.881  -6.205   6.057  0.00  0.00    +0.245 A 
ATOM     29  N   UNL     1       6.796  -5.510   5.832  0.00  0.00    -0.154 NA
ENDBRANCH  22  25
ENDBRANCH  17  19
ENDBRANCH  16  17
ENDBRANCH   1  16
TORSDOF 8
