REMARK  Name = ZINC06472317
REMARK  9 active torsions:
REMARK  status: ('A' for Active; 'I' for Inactive)
REMARK    1  A    between atoms: C_1  and  C_2
REMARK    2  A    between atoms: C_2  and  C_3
REMARK    3  A    between atoms: C_3  and  C_4
REMARK    4  A    between atoms: C_4  and  C_5
REMARK    5  A    between atoms: C_5  and  N_6
REMARK    6  A    between atoms: C_14  and  C_17
REMARK    7  A    between atoms: N_19  and  C_20
REMARK    8  A    between atoms: C_23  and  N_27
REMARK    9  A    between atoms: C_25  and  O_26
REMARK                            x       y       z     vdW  Elec       q    Type
REMARK                         _______ _______ _______ _____ _____    ______ ____
ROOT
ATOM      1  N   UNL     1       0.012   0.025  -0.015  0.00  0.00    -0.307 N 
ATOM      2  C   UNL     1       0.004   1.405  -0.009  0.00  0.00    +0.056 A 
ATOM      3  C   UNL     1      -1.204   2.099  -0.005  0.00  0.00    +0.026 A 
ATOM      4  C   UNL     1      -1.204   3.477   0.007  0.00  0.00    +0.002 A 
ATOM      5  C   UNL     1      -0.010   4.185   0.003  0.00  0.00    +0.001 A 
ATOM      6  C   UNL     1       1.186   3.526  -0.006  0.00  0.00    +0.014 A 
ATOM      7  C   UNL     1       1.210   2.127  -0.012  0.00  0.00    +0.046 A 
ATOM      8  C   UNL     1       2.486   1.402  -0.021  0.00  0.00    +0.205 A 
ATOM      9  C   UNL     1       2.453   0.006  -0.027  0.00  0.00    +0.148 A 
ATOM     10  C   UNL     1       1.159  -0.675  -0.023  0.00  0.00    +0.268 A 
ATOM     11  O   UNL     1       1.119  -1.892  -0.029  0.00  0.00    -0.267 OA
ATOM     12  O   UNL     1       3.660   2.067  -0.024  0.00  0.00    -0.286 OA
ENDROOT
BRANCH   9  13
ATOM     13  C   UNL     1       3.701  -0.768  -0.036  0.00  0.00    +0.257 C 
ATOM     14  O   UNL     1       4.070  -1.316  -1.058  0.00  0.00    -0.270 OA
ATOM     15  N   UNL     1       4.437  -0.872   1.088  0.00  0.00    -0.278 N 
ATOM     16  H   UNL     1       4.060  -0.455   2.034  0.00  0.00    +0.155 HD
BRANCH  15  17
ATOM     17  C   UNL     1       5.683  -1.511   1.053  0.00  0.00    +0.076 A 
ATOM     18  C   UNL     1       6.396  -1.578  -0.136  0.00  0.00    +0.029 A 
ATOM     19  C   UNL     1       7.625  -2.209  -0.168  0.00  0.00    +0.035 A 
ATOM     20  C   UNL     1       8.147  -2.774   0.981  0.00  0.00    +0.130 A 
ATOM     21  C   UNL     1       7.443  -2.710   2.169  0.00  0.00    +0.080 A 
ATOM     22  C   UNL     1       6.212  -2.075   2.211  0.00  0.00    +0.140 A 
BRANCH  20  23
ATOM     23  N   UNL     1       9.464  -3.449   0.940  0.00  0.00    +0.057 N 
ATOM     24  O   UNL     1      10.087  -3.505  -0.106  0.00  0.00    -0.126 OA
ATOM     25  O   UNL     1       9.926  -3.946   1.951  0.00  0.00    -0.126 OA
ENDBRANCH  20  23
BRANCH  22  26
ATOM     26  O   UNL     1       5.521  -2.006   3.380  0.00  0.00    -0.505 OA
ATOM     27  H   UNL     1       5.940  -2.452   4.294  0.00  0.00    +0.292 HD
ENDBRANCH  22  26
ENDBRANCH  15  17
ENDBRANCH   9  13
BRANCH   1  28
ATOM     28  C   UNL     1      -1.264  -0.695  -0.012  0.00  0.00    +0.125 C 
BRANCH  28  29
ATOM     29  C   UNL     1      -1.715  -0.940  -1.453  0.00  0.00    +0.022 C 
BRANCH  29  30
ATOM     30  C   UNL     1      -3.047  -1.692  -1.450  0.00  0.00    +0.001 C 
BRANCH  30  32
ATOM     31  C   UNL     1      -4.830  -2.689  -2.888  0.00  0.00    +0.004 C 
ATOM     32  C   UNL     1      -3.498  -1.937  -2.891  0.00  0.00    -0.003 C 
ENDBRANCH  30  32
ENDBRANCH  29  30
ENDBRANCH  28  29
ENDBRANCH   1  28
TORSDOF 8
