REMARK  Name = ZINC23718352
REMARK  10 active torsions:
REMARK  status: ('A' for Active; 'I' for Inactive)
REMARK    1  A    between atoms: C_1  and  C_2
REMARK    2  A    between atoms: C_5  and  C_7
REMARK    3  A    between atoms: C_7  and  C_9
REMARK    4  A    between atoms: C_7  and  N_24
REMARK    5  A    between atoms: C_9  and  N_10
REMARK    6  A    between atoms: C_11  and  C_13
REMARK    7  A    between atoms: C_13  and  O_14
REMARK    8  A    between atoms: O_14  and  C_15
REMARK    9  A    between atoms: C_18  and  C_21
REMARK   10  A    between atoms: C_21  and  C_23
REMARK                            x       y       z     vdW  Elec       q    Type
REMARK                         _______ _______ _______ _____ _____    ______ ____
ROOT
ATOM      1  N   UNL     1      -5.614   4.073   2.884  0.00  0.00    -0.311 N 
ATOM      2  C   UNL     1      -6.301   5.139   2.428  0.00  0.00    +0.251 C 
ATOM      3  O   UNL     1      -5.732   6.002   1.794  0.00  0.00    -0.272 OA
ATOM      4  H   UNL     1      -6.130   3.290   3.458  0.00  0.00    +0.149 HD
ENDROOT
BRANCH   1   5
ATOM      5  C   UNL     1      -4.178   3.958   2.614  0.00  0.00    +0.131 C 
BRANCH   5   6
ATOM      6  C   UNL     1      -3.671   2.608   3.124  0.00  0.00    +0.140 C 
BRANCH   6  11
ATOM      7  C   UNL     1      -7.035  -0.774   1.486  0.00  0.00    +0.086 C 
ATOM      8  C   UNL     1      -5.765   0.028   1.611  0.00  0.00    +0.102 A 
ATOM      9  C   UNL     1      -4.666  -0.116   0.850  0.00  0.00    +0.045 A 
ATOM     10  C   UNL     1      -3.723   0.832   1.309  0.00  0.00    +0.046 A 
ATOM     11  C   UNL     1      -4.302   1.498   2.324  0.00  0.00    +0.124 A 
ATOM     12  O   UNL     1      -5.541   1.010   2.499  0.00  0.00    -0.463 OA
ENDBRANCH   6  11
BRANCH   6  13
ATOM     13  N   UNL     1      -4.028   2.454   4.541  0.00  0.00    -0.287 NA
ATOM     14  C   UNL     1      -3.450   3.537   5.351  0.00  0.00    +0.113 C 
ATOM     15  C   UNL     1      -3.895   3.372   6.806  0.00  0.00    +0.175 C 
ATOM     16  O   UNL     1      -3.506   2.079   7.275  0.00  0.00    -0.377 OA
ATOM     17  C   UNL     1      -4.051   1.000   6.510  0.00  0.00    +0.175 C 
ATOM     18  C   UNL     1      -3.607   1.141   5.051  0.00  0.00    +0.113 C 
ENDBRANCH   6  13
ENDBRANCH   5   6
ENDBRANCH   1   5
BRANCH   2  19
ATOM     19  C   UNL     1      -7.778   5.258   2.705  0.00  0.00    +0.324 C 
BRANCH  19  20
ATOM     20  O   UNL     1      -8.276   6.464   2.123  0.00  0.00    -0.483 OA
BRANCH  20  21
ATOM     21  C   UNL     1      -9.598   6.724   2.282  0.00  0.00    +0.121 A 
ATOM     22  C   UNL     1     -10.401   5.830   2.982  0.00  0.00    +0.046 A 
ATOM     23  C   UNL     1     -11.737   6.091   3.150  0.00  0.00    +0.015 A 
ATOM     24  C   UNL     1     -12.294   7.255   2.606  0.00  0.00    +0.017 A 
ATOM     25  C   UNL     1     -11.482   8.149   1.898  0.00  0.00    +0.015 A 
ATOM     26  C   UNL     1     -10.147   7.882   1.740  0.00  0.00    +0.046 A 
BRANCH  24  27
ATOM     27  C   UNL     1     -13.725   7.537   2.779  0.00  0.00    +0.160 C 
ATOM     28  O   UNL     1     -14.206   8.546   2.307  0.00  0.00    -0.292 OA
ATOM     29  C   UNL     1     -14.597   6.572   3.542  0.00  0.00    +0.091 C 
ENDBRANCH  24  27
ENDBRANCH  20  21
ENDBRANCH  19  20
ENDBRANCH   2  19
TORSDOF 8
