REMARK  Name = ZINC63547056
REMARK  11 active torsions:
REMARK  status: ('A' for Active; 'I' for Inactive)
REMARK    1  A    between atoms: C_1  and  C_2
REMARK    2  A    between atoms: C_2  and  C_3
REMARK    3  A    between atoms: C_2  and  C_4
REMARK    4  A    between atoms: C_7  and  C_10
REMARK    5  A    between atoms: C_14  and  C_25
REMARK    6  A    between atoms: C_19  and  C_21
REMARK    7  A    between atoms: N_27  and  C_28
REMARK    8  A    between atoms: C_28  and  C_29
REMARK    9  A    between atoms: C_29  and  C_30
REMARK   10  A    between atoms: C_33  and  O_39
REMARK   11  A    between atoms: O_39  and  C_40
REMARK                            x       y       z     vdW  Elec       q    Type
REMARK                         _______ _______ _______ _____ _____    ______ ____
ROOT
ATOM      1  C   UNL     1      -5.400  -1.998   0.043  0.00  0.00    +0.070 C 
ATOM      2  N   UNL     1      -6.187  -1.677   1.039  0.00  0.00    -0.254 NA
ATOM      3  C   UNL     1      -7.568  -2.167   1.071  0.00  0.00    +0.246 C 
ATOM      4  C   UNL     1      -8.513  -1.100   1.571  0.00  0.00    +0.073 C 
ATOM      5  H   UNL     1      -9.851  -1.885  -1.188  0.00  0.00    +0.170 HD
ATOM      6  C   UNL     1      -9.454  -0.934   0.618  0.00  0.00    +0.100 C 
ATOM      7  N   UNL     1      -9.233  -1.752  -0.453  0.00  0.00    -0.269 N 
ATOM      8  N   UNL     1      -7.985  -2.386  -0.332  0.00  0.00    -0.220 N 
ATOM      9  C   UNL     1      -7.188  -3.025  -1.248  0.00  0.00    +0.132 C 
ATOM     10  C   UNL     1      -5.853  -2.844  -1.065  0.00  0.00    +0.057 C 
ENDROOT
BRANCH   1  14
ATOM     11  C   UNL     1      -1.412  -0.526   0.013  0.00  0.00    -0.045 A 
ATOM     12  C   UNL     1      -2.257  -0.202   1.059  0.00  0.00    +0.004 A 
ATOM     13  C   UNL     1      -3.553  -0.677   1.074  0.00  0.00    +0.010 A 
ATOM     14  C   UNL     1      -4.009  -1.484   0.032  0.00  0.00    +0.000 A 
ATOM     15  C   UNL     1      -3.152  -1.806  -1.019  0.00  0.00    +0.010 A 
ATOM     16  C   UNL     1      -1.861  -1.321  -1.026  0.00  0.00    +0.004 A 
BRANCH  11  18
ATOM     17  C   UNL     1      -0.019   1.526   0.010  0.00  0.00    +0.012 C 
ATOM     18  C   UNL     1       0.002  -0.004   0.002  0.00  0.00    +0.013 C 
ATOM     19  C   UNL     1       0.742  -0.511   1.242  0.00  0.00    +0.012 C 
ENDBRANCH  11  18
ENDBRANCH   1  14
BRANCH   9  20
ATOM     20  C   UNL     1      -7.748  -3.857  -2.372  0.00  0.00    +0.432 C 
ATOM     21  F   UNL     1      -6.698  -4.378  -3.135  0.00  0.00    -0.165 F 
ATOM     22  F   UNL     1      -8.505  -4.908  -1.841  0.00  0.00    -0.165 F 
ATOM     23  F   UNL     1      -8.563  -3.059  -3.182  0.00  0.00    -0.165 F 
ENDBRANCH   9  20
BRANCH   4  24
ATOM     24  C   UNL     1      -8.429  -0.409   2.802  0.00  0.00    +0.245 C 
ATOM     25  O   UNL     1      -9.262   0.434   3.085  0.00  0.00    -0.270 OA
ATOM     26  N   UNL     1      -7.428  -0.682   3.662  0.00  0.00    -0.311 N 
ATOM     27  H   UNL     1      -6.765  -1.353   3.436  0.00  0.00    +0.149 HD
BRANCH  26  28
ATOM     28  C   UNL     1      -7.341   0.034   4.936  0.00  0.00    +0.109 C 
BRANCH  28  29
ATOM     29  C   UNL     1      -6.122  -0.461   5.718  0.00  0.00    +0.052 C 
BRANCH  29  30
ATOM     30  C   UNL     1      -6.033   0.276   7.029  0.00  0.00    -0.040 C 
ATOM     31  C   UNL     1      -6.509  -0.135   8.226  0.00  0.00    +0.002 A 
ATOM     32  C   UNL     1      -7.227  -1.341   8.652  0.00  0.00    +0.055 A 
ATOM     33  C   UNL     1      -7.587  -1.481   9.950  0.00  0.00    +0.121 A 
ATOM     34  C   UNL     1      -7.297  -0.503  10.918  0.00  0.00    +0.047 A 
ATOM     35  C   UNL     1      -6.642   0.640  10.624  0.00  0.00    +0.029 A 
ATOM     36  C   UNL     1      -6.205   0.894   9.248  0.00  0.00    +0.043 A 
ATOM     37  N   UNL     1      -5.566   1.900   8.703  0.00  0.00    -0.380 N 
ATOM     38  C   UNL     1      -5.386   1.621   7.274  0.00  0.00    +0.144 C 
ATOM     39  H   UNL     1      -5.260   2.694   9.168  0.00  0.00    +0.160 HD
BRANCH  33  40
ATOM     40  O   UNL     1      -8.251  -2.604  10.330  0.00  0.00    -0.495 OA
ATOM     41  C   UNL     1      -8.612  -2.710  11.709  0.00  0.00    +0.277 C 
ENDBRANCH  33  40
ENDBRANCH  29  30
ENDBRANCH  28  29
ENDBRANCH  26  28
ENDBRANCH   4  24
TORSDOF 8
