REMARK  Name = ZINC35555021
REMARK  8 active torsions:
REMARK  status: ('A' for Active; 'I' for Inactive)
REMARK    1  A    between atoms: C_1  and  C_2
REMARK    2  A    between atoms: C_5  and  C_8
REMARK    3  A    between atoms: N_10  and  C_11
REMARK    4  A    between atoms: C_11  and  C_12
REMARK    5  A    between atoms: N_14  and  C_15
REMARK    6  A    between atoms: C_17  and  C_21
REMARK    7  A    between atoms: C_19  and  C_20
REMARK    8  A    between atoms: C_23  and  C_26
REMARK                            x       y       z     vdW  Elec       q    Type
REMARK                         _______ _______ _______ _____ _____    ______ ____
ROOT
ATOM      1  C   UNL     1      -0.472  -7.060   2.502  0.00  0.00    +0.234 C 
ATOM      2  O   UNL     1      -1.009  -6.420   3.381  0.00  0.00    -0.274 OA
ATOM      3  N   UNL     1       0.126  -8.233   2.791  0.00  0.00    -0.283 N 
ATOM      4  H   UNL     1       0.484  -8.784   2.077  0.00  0.00    +0.155 HD
ENDROOT
BRANCH   3   5
ATOM      5  C   UNL     1       0.231  -8.658   4.128  0.00  0.00    +0.044 A 
ATOM      6  C   UNL     1       0.211  -7.740   5.159  0.00  0.00    +0.043 A 
ATOM      7  C   UNL     1       0.316  -8.194   6.447  0.00  0.00    +0.062 A 
ATOM      8  S   UNL     1       0.446  -9.959   6.208  0.00  0.00    -0.088 S 
ATOM      9  C   UNL     1       0.348  -9.982   4.426  0.00  0.00    +0.009 A 
ATOM     10  C   UNL     1       0.387 -11.164   3.491  0.00  0.00    +0.053 C 
BRANCH   7  11
ATOM     11  C   UNL     1       0.321  -7.424   7.707  0.00  0.00    +0.209 A 
ATOM     12  N   UNL     1       0.434  -7.942   8.945  0.00  0.00    -0.191 NA
ATOM     13  C   UNL     1       0.402  -6.989   9.832  0.00  0.00    +0.231 A 
ATOM     14  O   UNL     1       0.267  -5.818   9.195  0.00  0.00    -0.337 OA
ATOM     15  N   UNL     1       0.222  -6.118   7.808  0.00  0.00    -0.056 NA
BRANCH  13  16
ATOM     16  C   UNL     1       0.500  -7.172  11.324  0.00  0.00    +0.078 C 
ATOM     17  C   UNL     1      -0.399  -6.213  12.123  0.00  0.00    +0.013 C 
ATOM     18  C   UNL     1       0.765  -6.078  13.120  0.00  0.00    +0.001 C 
ATOM     19  C   UNL     1       1.700  -6.447  11.956  0.00  0.00    +0.013 C 
ENDBRANCH  13  16
ENDBRANCH   7  11
ENDBRANCH   3   5
BRANCH   1  20
ATOM     20  C   UNL     1      -0.474  -6.544   1.086  0.00  0.00    +0.200 C 
BRANCH  20  23
ATOM     21  C   UNL     1      -1.308  -4.610  -0.139  0.00  0.00    +0.244 C 
ATOM     22  O   UNL     1      -0.836  -5.085  -1.153  0.00  0.00    -0.270 OA
ATOM     23  N   UNL     1      -1.181  -5.262   1.034  0.00  0.00    -0.303 N 
ATOM     24  H   UNL     1      -1.557  -4.883   1.843  0.00  0.00    +0.150 HD
BRANCH  21  29
ATOM     25  C   UNL     1      -4.087   0.426  -0.343  0.00  0.00    +0.044 C 
ATOM     26  C   UNL     1      -3.359  -0.893  -0.289  0.00  0.00    -0.050 A 
ATOM     27  C   UNL     1      -2.823  -1.431  -1.446  0.00  0.00    +0.004 A 
ATOM     28  C   UNL     1      -2.155  -2.638  -1.403  0.00  0.00    +0.013 A 
ATOM     29  C   UNL     1      -2.022  -3.316  -0.191  0.00  0.00    +0.037 A 
ATOM     30  C   UNL     1      -2.565  -2.768   0.972  0.00  0.00    +0.013 A 
ATOM     31  C   UNL     1      -3.225  -1.557   0.917  0.00  0.00    +0.004 A 
ENDBRANCH  21  29
ENDBRANCH  20  23
ENDBRANCH   1  20
TORSDOF 6
