REMARK  Name = ZINC11170190
REMARK  7 active torsions:
REMARK  status: ('A' for Active; 'I' for Inactive)
REMARK    1  A    between atoms: C_3  and  N_28
REMARK    2  A    between atoms: C_6  and  C_7
REMARK    3  A    between atoms: C_7  and  C_9
REMARK    4  A    between atoms: C_7  and  O_27
REMARK    5  A    between atoms: C_9  and  C_11
REMARK    6  A    between atoms: C_9  and  N_13
REMARK    7  A    between atoms: C_11  and  O_12
REMARK                            x       y       z     vdW  Elec       q    Type
REMARK                         _______ _______ _______ _____ _____    ______ ____
ROOT
ATOM      1  C   UNK A   1      -1.640  -1.356   1.487  0.00  0.00    +0.130 C 
ENDROOT
BRANCH   1   2
ATOM      2  N   UNK A   1      -3.046  -1.723   1.298  0.00  0.00    -0.321 N 
ATOM      3  C   UNK A   0      -3.903  -1.760   2.382  0.00  0.00    +0.131 A 
ATOM      4  C   UNK A   0      -5.238  -2.227   2.231  0.00  0.00    +0.051 A 
ATOM      5  C   UNK A   0      -5.908  -2.711   1.022  0.00  0.00    -0.025 A 
ATOM      6  C   UNK A   0      -7.193  -3.101   1.149  0.00  0.00    -0.004 A 
ATOM      7  S   UNK A   0      -7.585  -2.851   2.860  0.00  0.00    -0.073 S 
ATOM      8  C   UNK A   0      -6.018  -2.221   3.404  0.00  0.00    +0.114 A 
ATOM      9  N   UNK A   0      -5.528  -1.805   4.556  0.00  0.00    -0.228 NA
ATOM     10  C   UNK A   0      -4.282  -1.382   4.635  0.00  0.00    +0.224 A 
ATOM     11  N   UNK A   0      -3.491  -1.367   3.577  0.00  0.00    -0.220 NA
ATOM     12  C   UNK A   0      -8.092  -3.629   0.073  0.00  0.00    +0.043 C 
ATOM     13  C   UNK A   0      -7.454  -3.316  -1.288  0.00  0.00    +0.005 C 
ATOM     14  C   UNK A   0      -5.979  -3.727  -1.245  0.00  0.00    +0.005 C 
ATOM     15  C   UNK A   0      -5.203  -2.780  -0.330  0.00  0.00    +0.037 C 
ATOM     16  H   UNK A   1      -3.375  -1.940   0.411  0.00  0.00    +0.148 HD
ENDBRANCH   1   2
BRANCH   1  17
ATOM     17  C   UNK A   1      -1.080  -0.790   0.180  0.00  0.00    +0.167 C 
BRANCH  17  23
ATOM     18  C   UNK A   1      -2.920   0.323  -1.100  0.00  0.00    +0.008 A 
ATOM     19  C   UNK A   1      -3.640   1.446  -1.462  0.00  0.00    +0.033 A 
ATOM     20  C   UNK A   1      -3.304   2.681  -0.938  0.00  0.00    +0.126 A 
ATOM     21  C   UNK A   1      -2.249   2.792  -0.052  0.00  0.00    +0.033 A 
ATOM     22  C   UNK A   1      -1.530   1.668   0.311  0.00  0.00    +0.008 A 
ATOM     23  C   UNK A   1      -1.865   0.434  -0.214  0.00  0.00    -0.017 A 
BRANCH  20  24
ATOM     24  N   UNK A   1      -4.074   3.884  -1.326  0.00  0.00    +0.056 N 
ATOM     25  O   UNK A   1      -4.997   3.787  -2.101  0.00  0.00    -0.126 OA
ATOM     26  O   UNK A   1      -3.780   4.963  -0.868  0.00  0.00    -0.126 OA
ENDBRANCH  20  24
ENDBRANCH  17  23
BRANCH  17  27
ATOM     27  O   UNK A   1       0.293  -0.438   0.364  0.00  0.00    -0.385 OA
ATOM     28  H   UNK A   1       0.450   0.161   1.107  0.00  0.00    +0.210 HD
ENDBRANCH  17  27
ENDBRANCH   1  17
BRANCH   1  29
ATOM     29  C   UNK A   1      -0.839  -2.596   1.891  0.00  0.00    +0.181 C 
BRANCH  29  30
ATOM     30  O   UNK A   1      -0.859  -3.544   0.823  0.00  0.00    -0.393 OA
ATOM     31  H   UNK A   1      -0.370  -4.357   1.009  0.00  0.00    +0.209 HD
ENDBRANCH  29  30
ENDBRANCH   1  29
TORSDOF 7
