REMARK  Name = ZINC39663213
REMARK  5 active torsions:
REMARK  status: ('A' for Active; 'I' for Inactive)
REMARK    1  A    between atoms: C_4  and  S_7
REMARK    2  A    between atoms: S_7  and  C_8
REMARK    3  A    between atoms: C_9  and  C_14
REMARK    4  A    between atoms: C_18  and  C_27
REMARK    5  A    between atoms: N_29  and  C_30
REMARK                            x       y       z     vdW  Elec       q    Type
REMARK                         _______ _______ _______ _____ _____    ______ ____
ROOT
ATOM      1  C   UNL     1       5.862  -2.987   0.195  0.00  0.00    +0.249 C 
ATOM      2  O   UNL     1       6.173  -1.812   0.165  0.00  0.00    -0.270 OA
ATOM      3  N   UNL     1       6.817  -3.938   0.217  0.00  0.00    -0.296 N 
ATOM      4  C   UNL     1       6.637  -5.404   0.326  0.00  0.00    +0.121 C 
ATOM      5  C   UNL     1       7.693  -5.999  -0.633  0.00  0.00    +0.100 C 
ATOM      6  C   UNL     1       8.773  -4.911  -0.751  0.00  0.00    -0.004 C 
ATOM      7  C   UNL     1       8.286  -3.752   0.130  0.00  0.00    +0.115 C 
ATOM      8  C   UNL     1      10.111  -5.437  -0.241  0.00  0.00    -0.010 C 
ATOM      9  C   UNL     1      11.182  -4.357  -0.423  0.00  0.00    -0.082 C 
ATOM     10  N   UNL     1      11.283  -3.999  -1.843  0.00  0.00    +0.379 N 
ATOM     11  C   UNL     1      10.020  -3.408  -2.301  0.00  0.00    -0.082 C 
ATOM     12  C   UNL     1       8.900  -4.448  -2.199  0.00  0.00    -0.010 C 
ATOM     13  H   UNL     1      12.030  -3.333  -1.968  0.00  0.00    -0.086 HD
ATOM     14  H   UNL     1      11.481  -4.828  -2.384  0.00  0.00    -0.086 HD
ENDROOT
BRANCH   1  16
ATOM     15  C   UNL     1       3.490  -2.634  -0.521  0.00  0.00    +0.114 A 
ATOM     16  C   UNL     1       4.439  -3.372   0.209  0.00  0.00    +0.069 A 
ATOM     17  C   UNL     1       4.007  -4.480   0.947  0.00  0.00    +0.017 A 
ATOM     18  C   UNL     1       2.661  -4.800   0.926  0.00  0.00    +0.020 A 
ATOM     19  C   UNL     1       1.788  -4.025   0.184  0.00  0.00    +0.112 A 
ATOM     20  N   UNL     1       2.212  -2.982  -0.501  0.00  0.00    -0.248 NA
BRANCH  15  21
ATOM     21  S   UNL     1       4.003  -1.234  -1.460  0.00  0.00    -0.069 S 
BRANCH  21  25
ATOM     22  C   UNL     1       0.129   0.528  -3.009  0.00  0.00    +0.000 A 
ATOM     23  C   UNL     1       0.586   0.867  -1.748  0.00  0.00    +0.001 A 
ATOM     24  C   UNL     1       1.767   0.332  -1.273  0.00  0.00    +0.015 A 
ATOM     25  C   UNL     1       2.496  -0.549  -2.062  0.00  0.00    +0.014 A 
ATOM     26  C   UNL     1       2.033  -0.888  -3.328  0.00  0.00    +0.015 A 
ATOM     27  C   UNL     1       0.852  -0.349  -3.797  0.00  0.00    +0.001 A 
ENDBRANCH  21  25
ENDBRANCH  15  21
ENDBRANCH   1  16
BRANCH   5  28
ATOM     28  C   UNL     1       8.277  -7.261  -0.051  0.00  0.00    +0.218 C 
ATOM     29  O   UNL     1       8.275  -7.433   1.149  0.00  0.00    -0.275 OA
ATOM     30  N   UNL     1       8.803  -8.198  -0.865  0.00  0.00    -0.314 N 
ATOM     31  H   UNL     1       8.806  -8.060  -1.825  0.00  0.00    +0.149 HD
BRANCH  30  32
ATOM     32  C   UNL     1       9.371  -9.424  -0.300  0.00  0.00    +0.059 C 
ATOM     33  C   UNL     1      10.827  -9.177   0.102  0.00  0.00    -0.056 C 
ATOM     34  N   UNL     1      11.712 -10.079  -0.638  0.00  0.00    +0.381 N 
ATOM     35  C   UNL     1      11.608  -9.836  -2.079  0.00  0.00    -0.078 C 
ATOM     36  C   UNL     1      10.178 -10.105  -2.553  0.00  0.00    -0.014 C 
ATOM     37  C   UNL     1       9.328 -10.542  -1.349  0.00  0.00    +0.004 C 
ATOM     38  C   UNL     1       9.962 -11.801  -0.742  0.00  0.00    -0.014 C 
ATOM     39  C   UNL     1      11.402 -11.476  -0.326  0.00  0.00    -0.078 C 
ATOM     40  H   UNL     1      12.664  -9.893  -0.358  0.00  0.00    -0.082 HD
ENDBRANCH  30  32
ENDBRANCH   5  28
TORSDOF 5
