REMARK  Name = ZINC00755246
REMARK  11 active torsions:
REMARK  status: ('A' for Active; 'I' for Inactive)
REMARK    1  A    between atoms: C_1  and  C_2
REMARK    2  A    between atoms: C_2  and  O_3
REMARK    3  A    between atoms: O_3  and  C_4
REMARK    4  A    between atoms: C_7  and  C_10
REMARK    5  A    between atoms: C_11  and  C_30
REMARK    6  A    between atoms: C_12  and  N_29
REMARK    7  A    between atoms: C_14  and  S_18
REMARK    8  A    between atoms: C_15  and  C_16
REMARK    9  A    between atoms: S_18  and  C_19
REMARK   10  A    between atoms: C_19  and  C_20
REMARK   11  A    between atoms: C_20  and  C_22
REMARK                            x       y       z     vdW  Elec       q    Type
REMARK                         _______ _______ _______ _____ _____    ______ ____
ROOT
ATOM      1  C   UNL     1       2.429   0.012  -0.021  0.00  0.00    +0.023 A 
ATOM      2  C   UNL     1       1.218  -0.711  -0.014  0.00  0.00    +0.100 A 
ATOM      3  C   UNL     1       0.002  -0.004   0.002  0.00  0.00    +0.136 A 
ATOM      4  N   UNL     1      -0.016   1.319   0.009  0.00  0.00    -0.224 NA
ATOM      5  C   UNL     1       1.096   2.040   0.003  0.00  0.00    +0.117 A 
ATOM      6  C   UNL     1       2.359   1.420  -0.013  0.00  0.00    +0.093 A 
ENDROOT
BRANCH   1  10
ATOM      7  C   UNL     1       6.175  -1.992  -0.071  0.00  0.00    +0.121 A 
ATOM      8  C   UNL     1       5.313  -2.107  -1.155  0.00  0.00    +0.046 A 
ATOM      9  C   UNL     1       4.097  -1.459  -1.142  0.00  0.00    +0.012 A 
ATOM     10  C   UNL     1       3.732  -0.685  -0.039  0.00  0.00    -0.015 A 
ATOM     11  C   UNL     1       4.603  -0.567   1.046  0.00  0.00    +0.012 A 
ATOM     12  C   UNL     1       5.815  -1.223   1.028  0.00  0.00    +0.046 A 
BRANCH   7  13
ATOM     13  O   UNL     1       7.372  -2.633  -0.087  0.00  0.00    -0.492 OA
BRANCH  13  15
ATOM     14  C   UNL     1       9.505  -3.261   0.861  0.00  0.00    +0.048 C 
ATOM     15  C   UNL     1       8.209  -2.472   1.060  0.00  0.00    +0.225 C 
ENDBRANCH  13  15
ENDBRANCH   7  13
ENDBRANCH   1  10
BRANCH   3  16
ATOM     16  N   UNL     1      -1.190  -0.701   0.010  0.00  0.00    -0.342 N 
ATOM     17  H   UNL     1      -2.145  -0.156   0.022  0.00  0.00    +0.144 HD
ATOM     18  H   UNL     1      -1.184  -1.801   0.003  0.00  0.00    +0.144 HD
ENDBRANCH   3  16
BRANCH   6  19
ATOM     19  C   UNL     1       3.556   2.207  -0.021  0.00  0.00    +0.102 C 
ATOM     20  N   UNL     1       4.505   2.831  -0.026  0.00  0.00    -0.191 NA
ENDBRANCH   6  19
BRANCH   2  21
ATOM     21  C   UNL     1       1.227  -2.143  -0.022  0.00  0.00    +0.103 C 
ATOM     22  N   UNL     1       1.234  -3.279  -0.028  0.00  0.00    -0.191 NA
ENDBRANCH   2  21
BRANCH   5  23
ATOM     23  S   UNL     1       0.991   3.799   0.012  0.00  0.00    -0.097 S 
BRANCH  23  24
ATOM     24  C   UNL     1      -0.807   4.006   0.030  0.00  0.00    +0.155 C 
BRANCH  24  25
ATOM     25  C   UNL     1      -1.143   5.475   0.041  0.00  0.00    +0.173 C 
ATOM     26  O   UNL     1      -0.255   6.301   0.037  0.00  0.00    -0.291 OA
BRANCH  25  27
ATOM     27  C   UNL     1      -2.549   5.908   0.056  0.00  0.00    +0.018 A 
ATOM     28  C   UNL     1      -3.577   4.959   0.055  0.00  0.00    +0.012 A 
ATOM     29  C   UNL     1      -4.891   5.372   0.076  0.00  0.00    +0.016 A 
ATOM     30  C   UNL     1      -5.197   6.724   0.086  0.00  0.00    +0.018 A 
ATOM     31  C   UNL     1      -4.184   7.669   0.080  0.00  0.00    +0.016 A 
ATOM     32  C   UNL     1      -2.865   7.271   0.066  0.00  0.00    +0.012 A 
ATOM     33 BR   UNL     1      -7.004   7.280   0.106  0.00  0.00    -0.050 Br
ENDBRANCH  25  27
ENDBRANCH  24  25
ENDBRANCH  23  24
ENDBRANCH   5  23
TORSDOF 10
