REMARK  Name = ZINC39664672
REMARK  8 active torsions:
REMARK  status: ('A' for Active; 'I' for Inactive)
REMARK    1  A    between atoms: C_1  and  N_2
REMARK    2  A    between atoms: N_2  and  C_3
REMARK    3  A    between atoms: N_2  and  C_4
REMARK    4  A    between atoms: C_4  and  C_5
REMARK    5  A    between atoms: C_5  and  C_7
REMARK    6  A    between atoms: C_5  and  N_13
REMARK    7  A    between atoms: C_14  and  C_16
REMARK    8  A    between atoms: C_27  and  C_29
REMARK                            x       y       z     vdW  Elec       q    Type
REMARK                         _______ _______ _______ _____ _____    ______ ____
ROOT
ATOM      1  C   UNL     1       1.532  -3.200   1.924  0.00  0.00    +0.100 C 
ATOM      2  C   UNL     1       1.361  -2.989   3.445  0.00  0.00    +0.121 C 
ATOM      3  N   UNL     1       2.732  -3.100   3.995  0.00  0.00    -0.296 N 
ATOM      4  C   UNL     1       3.586  -2.411   2.999  0.00  0.00    +0.115 C 
ATOM      5  C   UNL     1       2.994  -2.818   1.635  0.00  0.00    -0.004 C 
ATOM      6  C   UNL     1       3.750  -4.016   1.068  0.00  0.00    -0.010 C 
ATOM      7  C   UNL     1       5.185  -3.597   0.736  0.00  0.00    -0.082 C 
ATOM      8  N   UNL     1       5.162  -2.500  -0.240  0.00  0.00    +0.379 N 
ATOM      9  C   UNL     1       4.515  -1.321   0.347  0.00  0.00    -0.082 C 
ATOM     10  C   UNL     1       3.052  -1.644   0.663  0.00  0.00    -0.010 C 
ATOM     11  C   UNL     1       3.116  -3.694   5.143  0.00  0.00    +0.247 C 
ATOM     12  O   UNL     1       2.307  -4.309   5.809  0.00  0.00    -0.270 OA
ATOM     13  H   UNL     1       6.108  -2.266  -0.503  0.00  0.00    -0.086 HD
ATOM     14  H   UNL     1       4.650  -2.790  -1.059  0.00  0.00    -0.086 HD
ENDROOT
BRANCH  11  15
ATOM     15  C   UNL     1       4.521  -3.596   5.591  0.00  0.00    +0.037 A 
ATOM     16  C   UNL     1       5.337  -2.565   5.121  0.00  0.00    +0.014 A 
ATOM     17  C   UNL     1       6.647  -2.479   5.543  0.00  0.00    +0.016 A 
ATOM     18  C   UNL     1       7.154  -3.413   6.431  0.00  0.00    +0.018 A 
ATOM     19  C   UNL     1       6.350  -4.438   6.900  0.00  0.00    +0.016 A 
ATOM     20  C   UNL     1       5.037  -4.531   6.490  0.00  0.00    +0.014 A 
ATOM     21 BR   UNL     1       8.952  -3.288   7.003  0.00  0.00    -0.050 Br
ENDBRANCH  11  15
BRANCH   1  23
ATOM     22  N   UNL     1       0.132  -2.678  -0.047  0.00  0.00    -0.310 N 
ATOM     23  C   UNL     1       0.594  -2.300   1.161  0.00  0.00    +0.219 C 
ATOM     24  O   UNL     1       0.256  -1.236   1.634  0.00  0.00    -0.275 OA
ATOM     25  H   UNL     1       0.339  -3.561  -0.391  0.00  0.00    +0.149 HD
BRANCH  22  26
ATOM     26  C   UNL     1      -0.683  -1.755  -0.841  0.00  0.00    +0.087 C 
BRANCH  26  27
ATOM     27  C   UNL     1      -0.521  -2.073  -2.305  0.00  0.00    -0.029 A 
ATOM     28  C   UNL     1      -0.469  -3.389  -2.724  0.00  0.00    +0.005 A 
ATOM     29  C   UNL     1      -0.320  -3.681  -4.067  0.00  0.00    +0.000 A 
ATOM     30  C   UNL     1      -0.223  -2.657  -4.991  0.00  0.00    +0.000 A 
ATOM     31  C   UNL     1      -0.276  -1.341  -4.572  0.00  0.00    +0.000 A 
ATOM     32  C   UNL     1      -0.429  -1.049  -3.229  0.00  0.00    +0.005 A 
ENDBRANCH  26  27
BRANCH  26  33
ATOM     33  C   UNL     1      -2.154  -1.905  -0.447  0.00  0.00    -0.052 C 
BRANCH  33  35
ATOM     34  C   UNL     1      -4.380  -1.133  -0.897  0.00  0.00    -0.097 C 
ATOM     35  N   UNL     1      -2.952  -0.881  -1.134  0.00  0.00    +0.377 N 
ATOM     36  C   UNL     1      -2.597   0.447  -0.615  0.00  0.00    -0.097 C 
ATOM     37  H   UNL     1      -2.764  -0.916  -2.124  0.00  0.00    -0.083 HD
ENDBRANCH  33  35
ENDBRANCH  26  33
ENDBRANCH  22  26
ENDBRANCH   1  23
TORSDOF 6
