REMARK  Name = ZINC12528215
REMARK  10 active torsions:
REMARK  status: ('A' for Active; 'I' for Inactive)
REMARK    1  A    between atoms: C_1  and  C_2
REMARK    2  A    between atoms: C_2  and  C_4
REMARK    3  A    between atoms: C_2  and  N_20
REMARK    4  A    between atoms: N_6  and  C_7
REMARK    5  A    between atoms: C_10  and  S_13
REMARK    6  A    between atoms: S_13  and  N_16
REMARK    7  A    between atoms: N_16  and  C_17
REMARK    8  A    between atoms: C_17  and  C_18
REMARK    9  A    between atoms: C_17  and  C_19
REMARK   10  A    between atoms: N_20  and  C_21
REMARK                            x       y       z     vdW  Elec       q    Type
REMARK                         _______ _______ _______ _____ _____    ______ ____
ROOT
ATOM      1  C   UNL     1      -0.391   0.979   2.498  0.00  0.00    +0.237 C 
ATOM      2  O   UNL     1      -0.400   1.633   3.520  0.00  0.00    -0.273 OA
ATOM      3  N   UNL     1       0.278  -0.191   2.453  0.00  0.00    -0.284 N 
ATOM      4  H   UNL     1       0.231  -0.746   1.659  0.00  0.00    +0.155 HD
ENDROOT
BRANCH   3   5
ATOM      5  C   UNL     1       1.040  -0.604   3.551  0.00  0.00    +0.034 A 
ATOM      6  C   UNL     1       2.228  -1.296   3.353  0.00  0.00    +0.025 A 
ATOM      7  C   UNL     1       2.978  -1.702   4.439  0.00  0.00    +0.030 A 
ATOM      8  C   UNL     1       2.548  -1.420   5.723  0.00  0.00    +0.105 A 
ATOM      9  C   UNL     1       1.366  -0.731   5.923  0.00  0.00    +0.030 A 
ATOM     10  C   UNL     1       0.615  -0.317   4.841  0.00  0.00    +0.025 A 
BRANCH   8  11
ATOM     11  S   UNL     1       3.508  -1.940   7.106  0.00  0.00    +0.059 S 
ATOM     12  O   UNL     1       2.616  -2.031   8.208  0.00  0.00    -0.153 OA
ATOM     13  O   UNL     1       4.291  -3.042   6.665  0.00  0.00    -0.153 OA
BRANCH  11  14
ATOM     14  N   UNL     1       4.568  -0.716   7.454  0.00  0.00    -0.187 NA
ATOM     15  H   UNL     1       5.522  -0.857   7.353  0.00  0.00    +0.148 HD
BRANCH  14  16
ATOM     16  C   UNL     1       4.064   0.580   7.915  0.00  0.00    +0.070 C 
ATOM     17  C   UNL     1       4.083   0.620   9.444  0.00  0.00    +0.025 C 
ATOM     18  C   UNL     1       4.952   1.698   7.364  0.00  0.00    +0.025 C 
ENDBRANCH  14  16
ENDBRANCH  11  14
ENDBRANCH   8  11
ENDBRANCH   3   5
BRANCH   1  20
ATOM     19  C   UNL     1      -2.194   0.453   0.879  0.00  0.00    +0.038 C 
ATOM     20  C   UNL     1      -1.127   1.474   1.280  0.00  0.00    +0.154 C 
BRANCH  20  21
ATOM     21  N   UNL     1      -1.767   2.756   1.584  0.00  0.00    -0.333 N 
ATOM     22  H   UNL     1      -1.995   2.979   2.500  0.00  0.00    +0.147 HD
BRANCH  21  23
ATOM     23  C   UNL     1      -2.051   3.656   0.554  0.00  0.00    +0.028 A 
ATOM     24  C   UNL     1      -1.731   3.335  -0.759  0.00  0.00    +0.024 A 
ATOM     25  C   UNL     1      -2.012   4.227  -1.775  0.00  0.00    +0.017 A 
ATOM     26  C   UNL     1      -2.611   5.440  -1.486  0.00  0.00    +0.018 A 
ATOM     27  C   UNL     1      -2.931   5.763  -0.179  0.00  0.00    +0.017 A 
ATOM     28  C   UNL     1      -2.658   4.872   0.840  0.00  0.00    +0.024 A 
ATOM     29 BR   UNL     1      -2.994   6.660  -2.880  0.00  0.00    -0.050 Br
ENDBRANCH  21  23
ENDBRANCH  20  21
ENDBRANCH   1  20
TORSDOF 7
