REMARK  Name = ZINC02865198
REMARK  6 active torsions:
REMARK  status: ('A' for Active; 'I' for Inactive)
REMARK    1  A    between atoms: C_1  and  S_2
REMARK    2  A    between atoms: S_2  and  C_3
REMARK    3  A    between atoms: N_16  and  N_17
REMARK    4  A    between atoms: N_17  and  C_18
REMARK    5  A    between atoms: C_18  and  N_20
REMARK    6  A    between atoms: C_21  and  C_23
REMARK                            x       y       z     vdW  Elec       q    Type
REMARK                         _______ _______ _______ _____ _____    ______ ____
ROOT
ATOM      1  C   UNL     1       2.751   5.770  -1.200  0.00  0.00    +0.191 A 
ATOM      2  N   UNL     1       1.448   5.538  -1.256  0.00  0.00    -0.205 NA
ATOM      3  C   UNL     1       0.873   4.426  -0.807  0.00  0.00    +0.148 A 
ATOM      4  C   UNL     1       1.749   3.454  -0.242  0.00  0.00    +0.052 A 
ATOM      5  C   UNL     1       1.382   2.162   0.316  0.00  0.00    -0.025 A 
ATOM      6  C   UNL     1       2.390   1.402   0.800  0.00  0.00    -0.004 A 
ATOM      7  S   UNL     1       3.863   2.357   0.539  0.00  0.00    -0.073 S 
ATOM      8  C   UNL     1       3.130   3.772  -0.216  0.00  0.00    +0.115 A 
ATOM      9  N   UNL     1       3.624   4.902  -0.683  0.00  0.00    -0.215 NA
ATOM     10  C   UNL     1       2.283   0.043   1.421  0.00  0.00    +0.043 C 
ATOM     11  C   UNL     1       0.811  -0.219   1.770  0.00  0.00    +0.005 C 
ATOM     12  C   UNL     1      -0.052   0.146   0.559  0.00  0.00    +0.005 C 
ATOM     13  C   UNL     1      -0.059   1.663   0.366  0.00  0.00    +0.037 C 
ATOM     14  N   UNL     1      -0.493   4.223  -0.885  0.00  0.00    -0.249 N 
ATOM     15  H   UNL     1      -0.914   3.541  -0.340  0.00  0.00    +0.172 HD
ENDROOT
BRANCH   1  17
ATOM     16  C   UNL     1       5.130   7.086  -1.517  0.00  0.00    +0.093 C 
ATOM     17  S   UNL     1       3.361   7.295  -1.839  0.00  0.00    -0.089 S 
ENDBRANCH   1  17
BRANCH  14  18
ATOM     18  N   UNL     1      -1.268   5.005  -1.752  0.00  0.00    -0.246 N 
ATOM     19  H   UNL     1      -0.847   5.688  -2.297  0.00  0.00    +0.172 HD
BRANCH  18  20
ATOM     20  C   UNL     1      -2.600   4.808  -1.828  0.00  0.00    +0.153 C 
ATOM     21  S   UNL     1      -3.547   5.763  -2.887  0.00  0.00    -0.017 S 
BRANCH  20  22
ATOM     22  N   UNL     1      -3.185   3.859  -1.070  0.00  0.00    -0.263 N 
ATOM     23  C   UNL     1      -4.516   3.663  -1.146  0.00  0.00    +0.250 C 
ATOM     24  O   UNL     1      -5.189   4.340  -1.897  0.00  0.00    -0.270 OA
ATOM     25  H   UNL     1      -2.648   3.318  -0.470  0.00  0.00    +0.157 HD
BRANCH  23  26
ATOM     26  C   UNL     1      -5.158   2.623  -0.315  0.00  0.00    +0.037 A 
ATOM     27  C   UNL     1      -4.387   1.838   0.545  0.00  0.00    +0.013 A 
ATOM     28  C   UNL     1      -4.993   0.872   1.321  0.00  0.00    +0.001 A 
ATOM     29  C   UNL     1      -6.360   0.673   1.241  0.00  0.00    +0.000 A 
ATOM     30  C   UNL     1      -7.129   1.443   0.387  0.00  0.00    +0.001 A 
ATOM     31  C   UNL     1      -6.536   2.416  -0.391  0.00  0.00    +0.013 A 
ENDBRANCH  23  26
ENDBRANCH  20  22
ENDBRANCH  18  20
ENDBRANCH  14  18
TORSDOF 5
