REMARK  Name = ZINC00713367
REMARK  13 active torsions:
REMARK  status: ('A' for Active; 'I' for Inactive)
REMARK    1  A    between atoms: C_1  and  C_2
REMARK    2  A    between atoms: C_2  and  N_3
REMARK    3  A    between atoms: N_3  and  C_4
REMARK    4  A    between atoms: N_3  and  C_6
REMARK    5  A    between atoms: C_4  and  C_5
REMARK    6  A    between atoms: C_9  and  C_12
REMARK    7  A    between atoms: C_14  and  C_35
REMARK    8  A    between atoms: C_15  and  N_34
REMARK    9  A    between atoms: N_16  and  C_26
REMARK   10  A    between atoms: C_22  and  C_24
REMARK   11  A    between atoms: C_22  and  C_25
REMARK   12  A    between atoms: C_29  and  O_32
REMARK   13  A    between atoms: O_32  and  C_33
REMARK                            x       y       z     vdW  Elec       q    Type
REMARK                         _______ _______ _______ _____ _____    ______ ____
ROOT
ATOM      1  C   UNL     1       0.122  -2.698   0.844  0.00  0.00    +0.097 C 
ATOM      2  C   UNL     1       1.303  -1.965   0.279  0.00  0.00    +0.077 C 
ATOM      3  C   UNL     1       1.200  -0.670  -0.123  0.00  0.00    +0.107 C 
ATOM      4  N   UNL     1      -0.002  -0.009  -0.012  0.00  0.00    -0.260 N 
ATOM      5  C   UNL     1      -1.174  -0.709   0.099  0.00  0.00    +0.025 C 
ATOM      6  C   UNL     1      -1.169  -1.998   0.501  0.00  0.00    +0.025 C 
ATOM      7  C   UNL     1      -2.366  -2.725   0.617  0.00  0.00    +0.162 C 
ATOM      8  O   UNL     1      -2.326  -3.889   0.964  0.00  0.00    -0.292 OA
ATOM      9  C   UNL     1      -3.697  -2.090   0.320  0.00  0.00    +0.086 C 
ATOM     10  C   UNL     1      -3.604  -0.586   0.599  0.00  0.00    -0.023 C 
ATOM     11  C   UNL     1      -2.465  -0.006  -0.243  0.00  0.00    +0.058 C 
ATOM     12  C   UNL     1      -3.315  -0.355   2.084  0.00  0.00    +0.011 C 
ATOM     13  C   UNL     1      -4.920   0.095   0.220  0.00  0.00    +0.011 C 
ENDROOT
BRANCH   1  17
ATOM     14  C   UNL     1       0.511  -2.917   5.094  0.00  0.00    +0.030 A 
ATOM     15  C   UNL     1       0.478  -4.082   4.338  0.00  0.00    +0.023 A 
ATOM     16  C   UNL     1       0.352  -4.007   2.964  0.00  0.00    +0.006 A 
ATOM     17  C   UNL     1       0.259  -2.776   2.343  0.00  0.00    -0.035 A 
ATOM     18  C   UNL     1       0.298  -1.614   3.092  0.00  0.00    +0.006 A 
ATOM     19  C   UNL     1       0.418  -1.682   4.467  0.00  0.00    +0.023 A 
BRANCH  14  20
ATOM     20  N   UNL     1       0.639  -2.989   6.484  0.00  0.00    -0.330 N 
BRANCH  20  22
ATOM     21  C   UNL     1      -0.749  -1.375   7.687  0.00  0.00    +0.024 C 
ATOM     22  C   UNL     1       0.675  -1.760   7.280  0.00  0.00    +0.102 C 
ENDBRANCH  20  22
BRANCH  20  23
ATOM     23  C   UNL     1       0.738  -4.293   7.144  0.00  0.00    +0.102 C 
ATOM     24  C   UNL     1       2.208  -4.704   7.244  0.00  0.00    +0.024 C 
ENDBRANCH  20  23
ENDBRANCH  14  20
ENDBRANCH   1  17
BRANCH   4  25
ATOM     25  C   UNL     1      -0.028   1.392  -0.019  0.00  0.00    +0.040 A 
ATOM     26  C   UNL     1      -0.136   2.079  -1.221  0.00  0.00    +0.027 A 
ATOM     27  C   UNL     1      -0.166   3.460  -1.226  0.00  0.00    +0.047 A 
ATOM     28  C   UNL     1      -0.077   4.161  -0.032  0.00  0.00    +0.120 A 
ATOM     29  C   UNL     1       0.037   3.475   1.168  0.00  0.00    +0.047 A 
ATOM     30  C   UNL     1       0.061   2.095   1.176  0.00  0.00    +0.027 A 
BRANCH  28  31
ATOM     31  O   UNL     1      -0.102   5.520  -0.039  0.00  0.00    -0.495 OA
ATOM     32  C   UNL     1      -0.221   6.160  -1.311  0.00  0.00    +0.277 C 
ENDBRANCH  28  31
ENDBRANCH   4  25
BRANCH   3  33
ATOM     33  N   UNL     1       2.297  -0.019  -0.635  0.00  0.00    -0.345 N 
ATOM     34  H   UNL     1       2.247   0.928  -0.840  0.00  0.00    +0.144 HD
ATOM     35  H   UNL     1       3.121  -0.506  -0.791  0.00  0.00    +0.144 HD
ENDBRANCH   3  33
BRANCH   2  36
ATOM     36  C   UNL     1       2.558  -2.643   0.155  0.00  0.00    +0.099 C 
ATOM     37  N   UNL     1       3.554  -3.180   0.057  0.00  0.00    -0.191 NA
ENDBRANCH   2  36
TORSDOF 8
