REMARK  Name = ZINC13312294
REMARK  10 active torsions:
REMARK  status: ('A' for Active; 'I' for Inactive)
REMARK    1  A    between atoms: C_1  and  C_2
REMARK    2  A    between atoms: C_5  and  C_31
REMARK    3  A    between atoms: C_6  and  N_8
REMARK    4  A    between atoms: C_9  and  C_11
REMARK    5  A    between atoms: C_11  and  C_13
REMARK    6  A    between atoms: C_11  and  O_14
REMARK    7  A    between atoms: O_14  and  C_15
REMARK    8  A    between atoms: C_18  and  S_23
REMARK    9  A    between atoms: C_20  and  C_21
REMARK   10  A    between atoms: S_23  and  N_26
REMARK                            x       y       z     vdW  Elec       q    Type
REMARK                         _______ _______ _______ _____ _____    ______ ____
ROOT
ATOM      1  C   UNL     1      -2.407   2.704   3.669  0.00  0.00    +0.136 A 
ATOM      2  C   UNL     1      -1.524   3.585   3.063  0.00  0.00    +0.048 A 
ATOM      3  C   UNL     1      -0.843   3.207   1.923  0.00  0.00    +0.032 A 
ATOM      4  C   UNL     1      -1.043   1.952   1.370  0.00  0.00    +0.106 A 
ATOM      5  C   UNL     1      -1.916   1.064   1.958  0.00  0.00    +0.047 A 
ATOM      6  C   UNL     1      -2.608   1.431   3.116  0.00  0.00    +0.107 A 
ENDROOT
BRANCH   6   7
ATOM      7  C   UNL     1      -3.544   0.486   3.751  0.00  0.00    +0.390 C 
ATOM      8  O   UNL     1      -4.144   0.809   4.757  0.00  0.00    -0.240 OA
ATOM      9  O   UNL     1      -3.734  -0.736   3.216  0.00  0.00    -0.240 OA
ENDBRANCH   6   7
BRANCH   4  10
ATOM     10  S   UNL     1      -0.171   1.488  -0.089  0.00  0.00    +0.061 S 
ATOM     11  O   UNL     1      -0.116   0.068  -0.095  0.00  0.00    -0.153 OA
ATOM     12  O   UNL     1       0.998   2.296  -0.138  0.00  0.00    -0.153 OA
BRANCH  10  13
ATOM     13  N   UNL     1      -1.107   1.931  -1.381  0.00  0.00    -0.177 NA
ATOM     14  C   UNL     1      -2.121   1.089  -2.033  0.00  0.00    +0.109 C 
ATOM     15  C   UNL     1      -2.717   1.908  -3.197  0.00  0.00    +0.018 C 
ATOM     16  C   UNL     1      -1.603   2.947  -3.494  0.00  0.00    +0.018 C 
ATOM     17  C   UNL     1      -1.058   3.232  -2.072  0.00  0.00    +0.109 C 
ENDBRANCH  10  13
ENDBRANCH   4  10
BRANCH   1  18
ATOM     18  O   UNL     1      -3.073   3.071   4.792  0.00  0.00    -0.479 OA
BRANCH  18  19
ATOM     19  C   UNL     1      -2.718   4.327   5.375  0.00  0.00    +0.256 C 
ATOM     20  C   UNL     1      -3.653   5.417   4.846  0.00  0.00    +0.062 C 
BRANCH  19  22
ATOM     21  N   UNL     1      -2.561   5.312   7.639  0.00  0.00    -0.282 N 
ATOM     22  C   UNL     1      -2.846   4.239   6.874  0.00  0.00    +0.258 C 
ATOM     23  O   UNL     1      -3.205   3.203   7.392  0.00  0.00    -0.271 OA
ATOM     24  H   UNL     1      -2.334   6.158   7.222  0.00  0.00    +0.155 HD
BRANCH  21  30
ATOM     25  C   UNL     1      -4.558   3.371  11.691  0.00  0.00    +0.044 C 
ATOM     26  C   UNL     1      -3.550   4.272  11.024  0.00  0.00    -0.049 A 
ATOM     27  C   UNL     1      -2.654   4.993  11.792  0.00  0.00    +0.004 A 
ATOM     28  C   UNL     1      -1.727   5.820  11.184  0.00  0.00    +0.005 A 
ATOM     29  C   UNL     1      -1.690   5.924   9.807  0.00  0.00    -0.029 A 
ATOM     30  C   UNL     1      -2.592   5.205   9.034  0.00  0.00    +0.037 A 
ATOM     31  C   UNL     1      -3.522   4.375   9.647  0.00  0.00    +0.027 A 
ATOM     32  C   UNL     1      -0.676   6.820   9.145  0.00  0.00    +0.045 C 
ENDBRANCH  21  30
ENDBRANCH  19  22
ENDBRANCH  18  19
ENDBRANCH   1  18
TORSDOF 7
