REMARK  Name = ZINC09489980
REMARK  5 active torsions:
REMARK  status: ('A' for Active; 'I' for Inactive)
REMARK    1  A    between atoms: N_15  and  C_17
REMARK    2  A    between atoms: C_20  and  C_33
REMARK    3  A    between atoms: C_22  and  N_23
REMARK    4  A    between atoms: C_24  and  C_26
REMARK    5  A    between atoms: N_35  and  C_36
REMARK                            x       y       z     vdW  Elec       q    Type
REMARK                         _______ _______ _______ _____ _____    ______ ____
ROOT
ATOM      1  C   UNL     1       1.182   1.351  -0.073  0.00  0.00    +0.051 A 
ATOM      2  C   UNL     1      -0.084   0.782   0.016  0.00  0.00    +0.026 A 
ATOM      3  C   UNL     1      -1.205   1.556  -0.188  0.00  0.00    +0.015 A 
ATOM      4  C   UNL     1      -1.073   2.918  -0.473  0.00  0.00    +0.039 A 
ATOM      5  C   UNL     1       0.198   3.491  -0.563  0.00  0.00    +0.038 A 
ATOM      6  C   UNL     1       1.321   2.711  -0.364  0.00  0.00    +0.056 A 
ENDROOT
BRANCH   1  19
ATOM      7  C   UNL     1       6.272   2.078   1.963  0.00  0.00    +0.007 A 
ATOM      8  C   UNL     1       5.312   1.108   2.274  0.00  0.00    +0.022 A 
ATOM      9  C   UNL     1       4.793   0.313   1.301  0.00  0.00    +0.027 A 
ATOM     10  N   UNL     1       5.241   0.405   0.027  0.00  0.00    -0.312 N 
ATOM     11  C   UNL     1       6.103   1.394  -0.316  0.00  0.00    +0.251 A 
ATOM     12  O   UNL     1       6.396   1.560  -1.489  0.00  0.00    -0.268 OA
ATOM     13  C   UNL     1       6.659   2.228   0.663  0.00  0.00    +0.070 A 
ATOM     14  C   UNL     1       4.888  -0.558  -1.017  0.00  0.00    +0.130 C 
ATOM     15  C   UNL     1       3.640  -1.353  -0.672  0.00  0.00    +0.027 C 
ATOM     16  C   UNL     1       3.750  -1.874   0.764  0.00  0.00    +0.018 C 
ATOM     17  C   UNL     1       3.709  -0.661   1.701  0.00  0.00    +0.053 C 
ATOM     18  C   UNL     1       2.358   0.045   1.504  0.00  0.00    +0.114 C 
ATOM     19  N   UNL     1       2.313   0.564   0.128  0.00  0.00    -0.328 N 
ATOM     20  C   UNL     1       2.375  -0.526  -0.851  0.00  0.00    +0.110 C 
ENDBRANCH   1  19
BRANCH   6  21
ATOM     21  N   UNL     1       2.597   3.282  -0.453  0.00  0.00    -0.280 N 
ATOM     22  C   UNL     1       2.776   4.582  -0.147  0.00  0.00    +0.248 C 
ATOM     23  O   UNL     1       1.825   5.268   0.174  0.00  0.00    -0.270 OA
ATOM     24  H   UNL     1       3.352   2.741  -0.734  0.00  0.00    +0.155 HD
BRANCH  22  25
ATOM     25  C   UNL     1       4.128   5.175  -0.203  0.00  0.00    +0.037 A 
ATOM     26  C   UNL     1       5.223   4.388  -0.566  0.00  0.00    +0.016 A 
ATOM     27  C   UNL     1       6.482   4.948  -0.622  0.00  0.00    +0.039 A 
ATOM     28  C   UNL     1       6.663   6.286  -0.307  0.00  0.00    +0.123 A 
ATOM     29  C   UNL     1       5.580   7.070   0.060  0.00  0.00    +0.039 A 
ATOM     30  C   UNL     1       4.316   6.522   0.113  0.00  0.00    +0.016 A 
ATOM     31  F   UNL     1       7.899   6.828  -0.358  0.00  0.00    -0.205 F 
ENDBRANCH  22  25
ENDBRANCH   6  21
BRANCH   4  32
ATOM     32  C   UNL     1      -2.274   3.747  -0.686  0.00  0.00    +0.248 C 
ATOM     33  O   UNL     1      -2.159   4.931  -0.939  0.00  0.00    -0.270 OA
ATOM     34  N   UNL     1      -3.500   3.193  -0.599  0.00  0.00    -0.281 N 
ATOM     35  H   UNL     1      -3.595   2.266  -0.331  0.00  0.00    +0.155 HD
BRANCH  34  36
ATOM     36  C   UNL     1      -4.631   3.953  -0.894  0.00  0.00    +0.037 A 
ATOM     37  C   UNL     1      -4.684   5.310  -0.579  0.00  0.00    +0.043 A 
ATOM     38  C   UNL     1      -5.820   6.027  -0.891  0.00  0.00    +0.112 A 
ATOM     39  N   UNL     1      -6.850   5.442  -1.473  0.00  0.00    -0.263 NA
ATOM     40  C   UNL     1      -6.841   4.160  -1.783  0.00  0.00    +0.112 A 
ATOM     41  C   UNL     1      -5.741   3.374  -1.508  0.00  0.00    +0.043 A 
ENDBRANCH  34  36
ENDBRANCH   4  32
TORSDOF 5
