REMARK  Name = ZINC36227634
REMARK  7 active torsions:
REMARK  status: ('A' for Active; 'I' for Inactive)
REMARK    1  A    between atoms: C_3  and  S_27
REMARK    2  A    between atoms: C_6  and  N_7
REMARK    3  A    between atoms: C_8  and  C_10
REMARK    4  A    between atoms: C_10  and  N_11
REMARK    5  A    between atoms: N_14  and  S_17
REMARK    6  A    between atoms: S_17  and  C_20
REMARK    7  A    between atoms: S_27  and  N_30
REMARK                            x       y       z     vdW  Elec       q    Type
REMARK                         _______ _______ _______ _____ _____    ______ ____
ROOT
ATOM      1  C   UNL     1      -2.478  -2.828  -0.204  0.00  0.00    +0.180 C 
ENDROOT
BRANCH   1   2
ATOM      2  N   UNL     1      -2.191  -4.265  -0.312  0.00  0.00    -0.291 NA
ATOM      3  C   UNL     1      -1.495  -4.570  -1.569  0.00  0.00    +0.102 C 
ATOM      4  C   UNL     1      -1.055  -6.038  -1.562  0.00  0.00    +0.125 C 
ATOM      5  N   UNL     1      -2.231  -6.877  -1.283  0.00  0.00    -0.174 NA
ATOM      6  C   UNL     1      -3.060  -6.546  -0.114  0.00  0.00    +0.125 C 
ATOM      7  C   UNL     1      -3.421  -5.058  -0.178  0.00  0.00    +0.102 C 
BRANCH   5   8
ATOM      8  S   UNL     1      -2.611  -8.159  -2.259  0.00  0.00    +0.061 S 
ATOM      9  O   UNL     1      -4.004  -8.393  -2.098  0.00  0.00    -0.153 OA
ATOM     10  O   UNL     1      -2.026  -7.893  -3.526  0.00  0.00    -0.153 OA
BRANCH   8  11
ATOM     11  C   UNL     1      -1.784  -9.572  -1.609  0.00  0.00    +0.106 A 
ATOM     12  C   UNL     1      -0.507  -9.883  -2.036  0.00  0.00    +0.030 A 
ATOM     13  C   UNL     1       0.143 -10.991  -1.527  0.00  0.00    +0.022 A 
ATOM     14  C   UNL     1      -0.486 -11.790  -0.589  0.00  0.00    +0.041 A 
ATOM     15  C   UNL     1      -1.764 -11.479  -0.161  0.00  0.00    +0.022 A 
ATOM     16  C   UNL     1      -2.411 -10.367  -0.667  0.00  0.00    +0.030 A 
ATOM     17 CL   UNL     1       0.329 -13.183   0.052  0.00  0.00    -0.084 Cl
ENDBRANCH   8  11
ENDBRANCH   5   8
ENDBRANCH   1   2
BRANCH   1  19
ATOM     18  N   UNL     1      -1.199  -0.722   0.010  0.00  0.00    -0.284 N 
ATOM     19  C   UNL     1      -1.183  -2.065  -0.099  0.00  0.00    +0.231 C 
ATOM     20  O   UNL     1      -0.125  -2.659  -0.113  0.00  0.00    -0.274 OA
ATOM     21  H   UNL     1      -2.044  -0.252   0.089  0.00  0.00    +0.155 HD
BRANCH  18  27
ATOM     22  C   UNL     1       0.065   1.248  -0.586  0.00  0.00    +0.025 A 
ATOM     23  C   UNL     1       1.253   1.953  -0.584  0.00  0.00    +0.030 A 
ATOM     24  C   UNL     1       2.378   1.413   0.010  0.00  0.00    +0.105 A 
ATOM     25  C   UNL     1       2.319   0.166   0.604  0.00  0.00    +0.030 A 
ATOM     26  C   UNL     1       1.135  -0.544   0.606  0.00  0.00    +0.025 A 
ATOM     27  C   UNL     1       0.003  -0.005   0.010  0.00  0.00    +0.034 A 
BRANCH  24  28
ATOM     28  S   UNL     1       3.892   2.316   0.009  0.00  0.00    +0.056 S 
ATOM     29  O   UNL     1       4.934   1.360   0.148  0.00  0.00    -0.153 OA
ATOM     30  O   UNL     1       3.826   3.217  -1.087  0.00  0.00    -0.153 OA
BRANCH  28  31
ATOM     31  N   UNL     1       3.911   3.240   1.383  0.00  0.00    -0.204 NA
ATOM     32  H   UNL     1       3.164   3.206   2.001  0.00  0.00    +0.144 HD
ATOM     33  H   UNL     1       4.669   3.816   1.569  0.00  0.00    +0.144 HD
ENDBRANCH  28  31
ENDBRANCH  24  28
ENDBRANCH  18  27
ENDBRANCH   1  19
TORSDOF 7
