REMARK  Name = ZINC39688742
REMARK  10 active torsions:
REMARK  status: ('A' for Active; 'I' for Inactive)
REMARK    1  A    between atoms: C_1  and  C_2
REMARK    2  A    between atoms: C_2  and  C_3
REMARK    3  A    between atoms: C_3  and  C_5
REMARK    4  A    between atoms: C_3  and  C_6
REMARK    5  A    between atoms: C_6  and  C_7
REMARK    6  A    between atoms: C_11  and  C_20
REMARK    7  A    between atoms: N_22  and  C_23
REMARK    8  A    between atoms: C_23  and  C_25
REMARK    9  A    between atoms: C_23  and  C_26
REMARK   10  A    between atoms: C_26  and  C_27
REMARK                            x       y       z     vdW  Elec       q    Type
REMARK                         _______ _______ _______ _____ _____    ______ ____
ROOT
ATOM      1  C   UNL     1      -2.835  -2.573   0.263  0.00  0.00    +0.216 C 
ATOM      2  O   UNL     1      -3.767  -1.796   0.268  0.00  0.00    -0.276 OA
ATOM      3  N   UNL     1      -3.061  -3.896   0.383  0.00  0.00    -0.300 N 
ATOM      4  C   UNL     1      -2.062  -4.989   0.404  0.00  0.00    +0.121 C 
ATOM      5  C   UNL     1      -2.586  -5.977   1.470  0.00  0.00    +0.100 C 
ATOM      6  C   UNL     1      -4.098  -5.709   1.543  0.00  0.00    -0.004 C 
ATOM      7  C   UNL     1      -4.365  -4.585   0.531  0.00  0.00    +0.115 C 
ATOM      8  C   UNL     1      -4.877  -6.963   1.159  0.00  0.00    -0.010 C 
ATOM      9  C   UNL     1      -6.377  -6.689   1.296  0.00  0.00    -0.082 C 
ATOM     10  N   UNL     1      -6.683  -6.304   2.679  0.00  0.00    +0.379 N 
ATOM     11  C   UNL     1      -6.003  -5.046   3.010  0.00  0.00    -0.082 C 
ATOM     12  C   UNL     1      -4.487  -5.251   2.946  0.00  0.00    -0.010 C 
ATOM     13  H   UNL     1      -7.679  -6.183   2.781  0.00  0.00    -0.086 HD
ATOM     14  H   UNL     1      -6.369  -7.030   3.306  0.00  0.00    -0.086 HD
ENDROOT
BRANCH   5  15
ATOM     15  C   UNL     1      -2.323  -7.399   1.043  0.00  0.00    +0.218 C 
ATOM     16  O   UNL     1      -2.379  -7.699  -0.130  0.00  0.00    -0.275 OA
ATOM     17  N   UNL     1      -2.025  -8.335   1.966  0.00  0.00    -0.312 N 
ATOM     18  H   UNL     1      -1.981  -8.094   2.904  0.00  0.00    +0.149 HD
BRANCH  17  19
ATOM     19  C   UNL     1      -1.770  -9.717   1.551  0.00  0.00    +0.074 C 
ATOM     20  C   UNL     1      -0.302  -9.863   1.143  0.00  0.00    +0.028 C 
BRANCH  19  21
ATOM     21  C   UNL     1      -2.072 -10.663   2.714  0.00  0.00    +0.057 C 
BRANCH  21  22
ATOM     22  C   UNL     1      -3.543 -10.609   3.036  0.00  0.00    -0.045 A 
ATOM     23  C   UNL     1      -4.016  -9.691   3.955  0.00  0.00    +0.006 A 
ATOM     24  C   UNL     1      -5.365  -9.641   4.251  0.00  0.00    +0.038 A 
ATOM     25  C   UNL     1      -6.244 -10.510   3.626  0.00  0.00    +0.123 A 
ATOM     26  C   UNL     1      -5.769 -11.429   2.705  0.00  0.00    +0.038 A 
ATOM     27  C   UNL     1      -4.420 -11.474   2.408  0.00  0.00    +0.006 A 
ATOM     28  F   UNL     1      -7.562 -10.462   3.914  0.00  0.00    -0.205 F 
ENDBRANCH  21  22
ENDBRANCH  19  21
ENDBRANCH  17  19
ENDBRANCH   5  15
BRANCH   1  29
ATOM     29  C   UNL     1      -1.426  -2.058   0.121  0.00  0.00    +0.099 C 
BRANCH  29  30
ATOM     30  C   UNL     1      -1.449  -0.533   0.002  0.00  0.00    -0.006 C 
ATOM     31  C   UNL     1      -2.158  -0.133  -1.293  0.00  0.00    +0.008 C 
BRANCH  30  33
ATOM     32  C   UNL     1      -0.037   1.528  -0.009  0.00  0.00    +0.004 C 
ATOM     33  C   UNL     1      -0.014  -0.002  -0.016  0.00  0.00    +0.000 C 
ENDBRANCH  30  33
ENDBRANCH  29  30
ENDBRANCH   1  29
TORSDOF 7
