REMARK  Name = ZINC63494561
REMARK  5 active torsions:
REMARK  status: ('A' for Active; 'I' for Inactive)
REMARK    1  A    between atoms: C_7  and  C_10
REMARK    2  A    between atoms: C_10  and  C_11
REMARK    3  A    between atoms: C_11  and  N_12
REMARK    4  A    between atoms: N_12  and  C_13
REMARK    5  A    between atoms: C_25  and  C_28
REMARK                            x       y       z     vdW  Elec       q    Type
REMARK                         _______ _______ _______ _____ _____    ______ ____
ROOT
ATOM      1  C   UNL     1      -0.709  -5.278  -2.827  0.00  0.00    +0.258 C 
ATOM      2  N   UNL     1      -1.601  -4.342  -3.509  0.00  0.00    -0.353 N 
ATOM      3  C   UNL     1      -2.901  -4.530  -3.637  0.00  0.00    +0.048 A 
ATOM      4  C   UNL     1      -3.739  -3.536  -4.189  0.00  0.00    +0.026 A 
ATOM      5  C   UNL     1      -5.084  -3.735  -4.222  0.00  0.00    +0.002 A 
ATOM      6  C   UNL     1      -5.671  -4.901  -3.735  0.00  0.00    +0.001 A 
ATOM      7  C   UNL     1      -4.917  -5.917  -3.223  0.00  0.00    +0.013 A 
ATOM      8  C   UNL     1      -3.526  -5.788  -3.193  0.00  0.00    +0.035 A 
ATOM      9  C   UNL     1      -2.662  -6.819  -2.788  0.00  0.00    +0.114 C 
ATOM     10  N   UNL     1      -1.306  -6.616  -2.770  0.00  0.00    -0.216 N 
ATOM     11  N   UNL     1      -0.662  -7.814  -2.705  0.00  0.00    -0.212 NA
ATOM     12  C   UNL     1      -1.711  -8.847  -2.566  0.00  0.00    +0.189 C 
ATOM     13  N   UNL     1      -2.949  -8.072  -2.366  0.00  0.00    -0.311 N 
ATOM     14  H   UNL     1      -0.024  -7.840  -1.924  0.00  0.00    +0.147 HD
ATOM     15  H   UNL     1      -3.791  -8.392  -2.006  0.00  0.00    +0.149 HD
ATOM     16  H   UNL     1      -1.216  -3.537  -3.888  0.00  0.00    +0.163 HD
ENDROOT
BRANCH  12  17
ATOM     17  C   UNL     1      -1.802  -9.680  -3.819  0.00  0.00    +0.007 A 
ATOM     18  C   UNL     1      -3.011 -10.241  -4.203  0.00  0.00    +0.010 A 
ATOM     19  C   UNL     1      -3.048 -10.999  -5.363  0.00  0.00    +0.020 A 
ATOM     20  C   UNL     1      -1.887 -11.170  -6.093  0.00  0.00    +0.111 A 
ATOM     21  N   UNL     1      -0.755 -10.621  -5.698  0.00  0.00    -0.263 NA
ATOM     22  C   UNL     1      -0.684  -9.889  -4.603  0.00  0.00    +0.117 A 
ENDBRANCH  12  17
BRANCH   1  23
ATOM     23  N   UNL     1      -0.461  -4.801  -1.460  0.00  0.00    -0.280 NA
ATOM     24  H   UNL     1      -0.109  -5.544  -0.876  0.00  0.00    +0.125 HD
BRANCH  23  25
ATOM     25  C   UNL     1       0.457  -3.653  -1.462  0.00  0.00    +0.089 C 
BRANCH  25  26
ATOM     26  C   UNL     1       0.691  -3.186  -0.024  0.00  0.00    +0.048 C 
BRANCH  26  33
ATOM     27  C   UNL     1      -0.016   1.348   0.009  0.00  0.00    +0.001 A 
ATOM     28  C   UNL     1       1.166   2.101   0.002  0.00  0.00    +0.002 A 
ATOM     29  C   UNL     1       2.391   1.535  -0.013  0.00  0.00    +0.026 A 
ATOM     30  C   UNL     1       2.529   0.120  -0.022  0.00  0.00    +0.043 A 
ATOM     31  N   UNL     1       3.587  -0.654  -0.037  0.00  0.00    -0.380 N 
ATOM     32  C   UNL     1       3.143  -2.053  -0.041  0.00  0.00    +0.144 C 
ATOM     33  C   UNL     1       1.631  -2.008  -0.025  0.00  0.00    -0.040 C 
ATOM     34  C   UNL     1       1.295  -0.698  -0.014  0.00  0.00    -0.001 A 
ATOM     35  C   UNL     1       0.002  -0.004   0.002  0.00  0.00    +0.010 A 
ATOM     36  H   UNL     1       4.509  -0.353  -0.045  0.00  0.00    +0.160 HD
ENDBRANCH  26  33
ENDBRANCH  25  26
ENDBRANCH  23  25
ENDBRANCH   1  23
TORSDOF 5
