REMARK  Name = ZINC13520851
REMARK  7 active torsions:
REMARK  status: ('A' for Active; 'I' for Inactive)
REMARK    1  A    between atoms: C_4  and  O_7
REMARK    2  A    between atoms: O_7  and  C_8
REMARK    3  A    between atoms: C_10  and  O_23
REMARK    4  A    between atoms: C_12  and  O_22
REMARK    5  A    between atoms: C_14  and  O_21
REMARK    6  A    between atoms: C_16  and  C_19
REMARK    7  A    between atoms: C_19  and  O_20
REMARK                            x       y       z     vdW  Elec       q    Type
REMARK                         _______ _______ _______ _____ _____    ______ ____
ROOT
ATOM      1  C   UNL     1       2.225   5.292   0.010  0.00  0.00    +0.339 C 
ATOM      2  C   UNL     1       3.607   5.899  -0.250  0.00  0.00    +0.214 C 
ATOM      3  C   UNL     1       4.556   5.490   0.881  0.00  0.00    +0.180 C 
ATOM      4  C   UNL     1       3.964   5.944   2.219  0.00  0.00    +0.177 C 
ATOM      5  C   UNL     1       2.568   5.336   2.383  0.00  0.00    +0.179 C 
ATOM      6  O   UNL     1       1.746   5.730   1.283  0.00  0.00    -0.331 OA
ENDROOT
BRANCH   4   7
ATOM      7  O   UNL     1       4.805   5.505   3.287  0.00  0.00    -0.386 OA
ATOM      8  H   UNL     1       5.708   5.848   3.244  0.00  0.00    +0.210 HD
ENDBRANCH   4   7
BRANCH   3   9
ATOM      9  O   UNL     1       4.712   4.070   0.885  0.00  0.00    -0.386 OA
ATOM     10  H   UNL     1       5.076   3.712   0.064  0.00  0.00    +0.210 HD
ENDBRANCH   3   9
BRANCH   2  11
ATOM     11  O   UNL     1       4.114   5.417  -1.496  0.00  0.00    -0.383 OA
ATOM     12  H   UNL     1       3.559   5.636  -2.257  0.00  0.00    +0.210 HD
ENDBRANCH   2  11
BRANCH   1  13
ATOM     13  O   UNL     1       2.322   3.866   0.001  0.00  0.00    -0.461 OA
BRANCH  13  17
ATOM     14  C   UNL     1      -1.220   1.750   0.017  0.00  0.00    +0.000 A 
ATOM     15  C   UNL     1      -0.013   1.076   0.008  0.00  0.00    +0.004 A 
ATOM     16  C   UNL     1       1.175   1.782   0.000  0.00  0.00    +0.046 A 
ATOM     17  C   UNL     1       1.155   3.169   0.008  0.00  0.00    +0.124 A 
ATOM     18  C   UNL     1      -0.057   3.844   0.023  0.00  0.00    +0.046 A 
ATOM     19  C   UNL     1      -1.242   3.133   0.031  0.00  0.00    +0.004 A 
ENDBRANCH  13  17
ENDBRANCH   1  13
BRANCH   5  20
ATOM     20  C   UNL     1       1.946   5.832   3.689  0.00  0.00    +0.190 C 
BRANCH  20  21
ATOM     21  O   UNL     1       0.694   5.176   3.900  0.00  0.00    -0.392 OA
ATOM     22  H   UNL     1       0.242   5.442   4.712  0.00  0.00    +0.210 HD
ENDBRANCH  20  21
ENDBRANCH   5  20
TORSDOF 7
