REMARK  Name = ZINC23361558
REMARK  9 active torsions:
REMARK  status: ('A' for Active; 'I' for Inactive)
REMARK    1  A    between atoms: C_1  and  C_2
REMARK    2  A    between atoms: C_2  and  C_3
REMARK    3  A    between atoms: C_3  and  C_4
REMARK    4  A    between atoms: C_4  and  N_5
REMARK    5  A    between atoms: C_16  and  N_20
REMARK    6  A    between atoms: N_20  and  C_21
REMARK    7  A    between atoms: C_21  and  C_22
REMARK    8  A    between atoms: C_22  and  N_28
REMARK    9  A    between atoms: N_31  and  C_34
REMARK                            x       y       z     vdW  Elec       q    Type
REMARK                         _______ _______ _______ _____ _____    ______ ____
ROOT
ATOM      1  N   UNL     1       1.359  -3.881   2.218  0.00  0.00    -0.299 N 
ATOM      2  C   UNL     1       2.713  -3.972   2.178  0.00  0.00    +0.203 A 
ATOM      3  N   UNL     1       3.408  -4.191   3.262  0.00  0.00    -0.230 NA
ATOM      4  C   UNL     1       2.809  -4.332   4.441  0.00  0.00    +0.116 A 
ATOM      5  C   UNL     1       1.414  -4.254   4.582  0.00  0.00    +0.076 A 
ATOM      6  C   UNL     1       0.682  -4.008   3.374  0.00  0.00    +0.262 A 
ATOM      7  O   UNL     1      -0.533  -3.919   3.394  0.00  0.00    -0.267 OA
ATOM      8  C   UNL     1       0.896  -4.430   5.938  0.00  0.00    -0.023 A 
ATOM      9  C   UNL     1       1.802  -4.648   6.915  0.00  0.00    -0.006 A 
ATOM     10  S   UNL     1       3.374  -4.632   6.097  0.00  0.00    -0.073 S 
ATOM     11  C   UNL     1       1.530  -4.857   8.374  0.00  0.00    +0.027 C 
ATOM     12  C   UNL     1       0.087  -4.421   8.665  0.00  0.00    -0.067 C 
ATOM     13  C   UNL     1      -0.836  -5.039   7.611  0.00  0.00    -0.011 C 
ATOM     14  C   UNL     1      -0.595  -4.374   6.255  0.00  0.00    +0.035 C 
ENDROOT
BRANCH  12  15
ATOM     15  N   UNL     1      -0.307  -4.883  10.002  0.00  0.00    +0.382 N 
ATOM     16  H   UNL     1      -1.280  -4.668  10.160  0.00  0.00    -0.085 HD
ATOM     17  H   UNL     1      -0.169  -5.881  10.068  0.00  0.00    -0.085 HD
BRANCH  15  18
ATOM     18  C   UNL     1       0.514  -4.208  11.016  0.00  0.00    -0.060 C 
BRANCH  18  19
ATOM     19  C   UNL     1       0.020  -4.593  12.412  0.00  0.00    +0.007 C 
ATOM     20  C   UNL     1       0.788  -3.792  13.464  0.00  0.00    +0.020 C 
ATOM     21  C   UNL     1       2.283  -4.100  13.349  0.00  0.00    +0.002 C 
ATOM     22  C   UNL     1       2.514  -5.595  13.578  0.00  0.00    +0.000 C 
ATOM     23  C   UNL     1       1.746  -6.396  12.525  0.00  0.00    +0.002 C 
ATOM     24  C   UNL     1       0.251  -6.088  12.641  0.00  0.00    +0.020 C 
BRANCH  19  25
ATOM     25  N   UNL     1      -1.415  -4.298  12.523  0.00  0.00    -0.302 NA
ATOM     26  C   UNL     1      -1.681  -2.875  12.267  0.00  0.00    +0.066 C 
ATOM     27  C   UNL     1      -3.188  -2.620  12.333  0.00  0.00    -0.064 C 
ATOM     28  N   UNL     1      -3.691  -3.000  13.660  0.00  0.00    +0.379 N 
ATOM     29  C   UNL     1      -3.441  -4.429  13.890  0.00  0.00    -0.064 C 
ATOM     30  C   UNL     1      -1.935  -4.698  13.837  0.00  0.00    +0.066 C 
ATOM     31  C   UNL     1      -5.135  -2.739  13.729  0.00  0.00    -0.096 C 
ATOM     32  H   UNL     1      -3.218  -2.458  14.367  0.00  0.00    -0.082 HD
ENDBRANCH  19  25
ENDBRANCH  18  19
ENDBRANCH  15  18
ENDBRANCH  12  15
BRANCH   1  33
ATOM     33  C   UNL     1       0.620  -3.635   0.977  0.00  0.00    +0.126 C 
BRANCH  33  34
ATOM     34  C   UNL     1       0.470  -2.127   0.764  0.00  0.00    +0.021 C 
BRANCH  34  36
ATOM     35  C   UNL     1      -0.452  -0.362  -0.745  0.00  0.00    +0.004 C 
ATOM     36  C   UNL     1      -0.302  -1.869  -0.531  0.00  0.00    -0.002 C 
ENDBRANCH  34  36
ENDBRANCH  33  34
ENDBRANCH   1  33
TORSDOF 7
