REMARK  Name = ZINC60164724
REMARK  11 active torsions:
REMARK  status: ('A' for Active; 'I' for Inactive)
REMARK    1  A    between atoms: C_1  and  C_2
REMARK    2  A    between atoms: C_2  and  C_3
REMARK    3  A    between atoms: C_3  and  C_5
REMARK    4  A    between atoms: C_3  and  N_6
REMARK    5  A    between atoms: C_7  and  C_9
REMARK    6  A    between atoms: C_9  and  C_11
REMARK    7  A    between atoms: C_9  and  N_12
REMARK    8  A    between atoms: C_13  and  C_15
REMARK    9  A    between atoms: N_17  and  C_22
REMARK   10  A    between atoms: C_24  and  C_29
REMARK   11  A    between atoms: C_27  and  C_28
REMARK                            x       y       z     vdW  Elec       q    Type
REMARK                         _______ _______ _______ _____ _____    ______ ____
ROOT
ATOM      1  C   UNL     1      -7.756   1.200   3.045  0.00  0.00    +0.122 C 
ATOM      2  N   UNL     1      -8.300   0.494   2.102  0.00  0.00    -0.172 NA
ATOM      3  N   UNL     1      -9.682   0.518   1.887  0.00  0.00    -0.160 N 
ATOM      4  C   UNL     1     -10.430   1.530   2.369  0.00  0.00    +0.240 C 
ATOM      5  O   UNL     1     -11.627   1.548   2.175  0.00  0.00    -0.273 OA
ATOM      6  C   UNL     1      -9.773   2.640   3.149  0.00  0.00    +0.104 C 
ATOM      7  C   UNL     1      -8.596   2.065   3.946  0.00  0.00    +0.071 C 
ENDROOT
BRANCH   3   8
ATOM      8  C   UNL     1     -10.292  -0.516   1.167  0.00  0.00    +0.063 A 
ATOM      9  C   UNL     1     -11.351  -1.222   1.724  0.00  0.00    +0.029 A 
ATOM     10  C   UNL     1     -11.950  -2.241   1.011  0.00  0.00    -0.049 A 
ATOM     11  C   UNL     1     -11.498  -2.559  -0.257  0.00  0.00    +0.004 A 
ATOM     12  C   UNL     1     -10.444  -1.859  -0.814  0.00  0.00    +0.005 A 
ATOM     13  C   UNL     1      -9.844  -0.835  -0.108  0.00  0.00    -0.027 A 
ATOM     14  C   UNL     1      -8.699  -0.068  -0.719  0.00  0.00    +0.046 C 
ATOM     15  C   UNL     1     -13.099  -3.008   1.615  0.00  0.00    +0.044 C 
ENDBRANCH   3   8
BRANCH   1  17
ATOM     16  N   UNL     1      -5.542   0.379   2.437  0.00  0.00    -0.299 N 
ATOM     17  C   UNL     1      -6.302   1.150   3.239  0.00  0.00    +0.260 C 
ATOM     18  O   UNL     1      -5.784   1.805   4.123  0.00  0.00    -0.269 OA
ATOM     19  H   UNL     1      -5.955  -0.143   1.732  0.00  0.00    +0.150 HD
BRANCH  16  20
ATOM     20  C   UNL     1      -4.090   0.329   2.630  0.00  0.00    +0.156 C 
ATOM     21  C   UNL     1      -3.754  -0.709   3.703  0.00  0.00    +0.038 C 
BRANCH  20  23
ATOM     22  N   UNL     1      -2.082  -0.162   1.273  0.00  0.00    -0.311 N 
ATOM     23  C   UNL     1      -3.424  -0.053   1.334  0.00  0.00    +0.233 C 
ATOM     24  O   UNL     1      -4.095  -0.264   0.346  0.00  0.00    -0.274 OA
ATOM     25  H   UNL     1      -1.545   0.006   2.063  0.00  0.00    +0.149 HD
BRANCH  22  26
ATOM     26  C   UNL     1      -1.433  -0.534   0.013  0.00  0.00    +0.070 C 
ATOM     27  C   UNL     1      -1.416  -2.058  -0.121  0.00  0.00    +0.028 C 
BRANCH  26  29
ATOM     28  C   UNL     1      -0.019   1.526   0.010  0.00  0.00    +0.005 C 
ATOM     29  C   UNL     1       0.002  -0.004   0.002  0.00  0.00    +0.018 C 
ENDBRANCH  26  29
ENDBRANCH  22  26
ENDBRANCH  20  23
ENDBRANCH  16  20
ENDBRANCH   1  17
TORSDOF 6
