REMARK  Name = ZINC21355890
REMARK  5 active torsions:
REMARK  status: ('A' for Active; 'I' for Inactive)
REMARK    1  A    between atoms: C_1  and  C_2
REMARK    2  A    between atoms: C_2  and  C_34
REMARK    3  A    between atoms: C_6  and  C_26
REMARK    4  A    between atoms: N_18  and  C_19
REMARK    5  A    between atoms: C_19  and  C_20
REMARK                            x       y       z     vdW  Elec       q    Type
REMARK                         _______ _______ _______ _____ _____    ______ ____
ROOT
ATOM      1  C   UNL     1      -3.732   3.845   3.644  0.00  0.00    +0.011 C 
ATOM      2  C   UNL     1      -4.549   4.821   2.796  0.00  0.00    -0.023 C 
ATOM      3  C   UNL     1      -4.323   4.533   1.312  0.00  0.00    +0.058 C 
ATOM      4  C   UNL     1      -2.850   4.686   0.973  0.00  0.00    +0.017 C 
ATOM      5  C   UNL     1      -2.092   5.587   1.622  0.00  0.00    +0.040 C 
ATOM      6  C   UNL     1      -0.625   5.848   1.379  0.00  0.00    +0.184 C 
ATOM      7  N   UNL     1      -0.093   5.229   0.183  0.00  0.00    -0.239 N 
ATOM      8  C   UNL     1      -0.037   3.840   0.057  0.00  0.00    +0.060 A 
ATOM      9  C   UNL     1       1.172   3.164   0.025  0.00  0.00    +0.025 A 
ATOM     10  C   UNL     1       1.178   1.780   0.000  0.00  0.00    +0.002 A 
ATOM     11  C   UNL     1      -0.013   1.076   0.008  0.00  0.00    +0.002 A 
ATOM     12  C   UNL     1      -1.222   1.748   0.017  0.00  0.00    +0.025 A 
ATOM     13  C   UNL     1      -1.229   3.133   0.031  0.00  0.00    +0.053 A 
ATOM     14  N   UNL     1      -2.405   3.871  -0.016  0.00  0.00    -0.316 N 
ATOM     15  C   UNL     1       0.355   6.006  -0.823  0.00  0.00    +0.308 C 
ATOM     16  O   UNL     1       0.311   7.217  -0.722  0.00  0.00    -0.252 OA
ATOM     17  N   UNL     1       0.852   5.441  -1.941  0.00  0.00    -0.296 N 
ATOM     18  C   UNL     1      -2.655   6.387   2.643  0.00  0.00    +0.163 C 
ATOM     19  O   UNL     1      -1.953   7.210   3.197  0.00  0.00    -0.292 OA
ATOM     20  C   UNL     1      -4.087   6.258   3.067  0.00  0.00    +0.086 C 
ATOM     21  C   UNL     1      -6.035   4.681   3.132  0.00  0.00    +0.011 C 
ATOM     22  H   UNL     1      -2.990   3.757  -0.941  0.00  0.00    +0.152 HD
ATOM     23  H   UNL     1       0.893   4.345  -2.032  0.00  0.00    +0.150 HD
ENDROOT
BRANCH   6  24
ATOM     24  C   UNL     1       0.153   5.335   2.564  0.00  0.00    +0.130 A 
ATOM     25  C   UNL     1       0.633   6.083   3.574  0.00  0.00    +0.047 A 
ATOM     26  C   UNL     1       1.290   5.201   4.461  0.00  0.00    +0.041 A 
ATOM     27  C   UNL     1       1.179   3.967   3.937  0.00  0.00    +0.195 A 
ATOM     28  O   UNL     1       0.489   4.054   2.788  0.00  0.00    -0.466 OA
ENDBRANCH   6  24
BRANCH  17  29
ATOM     29  C   UNL     1       1.339   6.285  -3.034  0.00  0.00    +0.137 C 
BRANCH  29  30
ATOM     30  C   UNL     1       1.846   5.401  -4.175  0.00  0.00    +0.135 C 
ATOM     31  C   UNL     1       2.467   6.279  -5.283  0.00  0.00    +0.035 C 
ATOM     32  C   UNL     1       1.989   5.564  -6.576  0.00  0.00    +0.031 C 
ATOM     33  C   UNL     1       0.594   5.055  -6.133  0.00  0.00    +0.160 C 
ATOM     34  O   UNL     1       0.752   4.681  -4.755  0.00  0.00    -0.375 OA
ENDBRANCH  29  30
ENDBRANCH  17  29
TORSDOF 3
