REMARK  Name = ZINC59021680
REMARK  8 active torsions:
REMARK  status: ('A' for Active; 'I' for Inactive)
REMARK    1  A    between atoms: C_1  and  C_2
REMARK    2  A    between atoms: C_5  and  N_9
REMARK    3  A    between atoms: C_10  and  C_12
REMARK    4  A    between atoms: C_12  and  S_13
REMARK    5  A    between atoms: S_13  and  C_14
REMARK    6  A    between atoms: N_19  and  N_20
REMARK    7  A    between atoms: C_21  and  C_22
REMARK    8  A    between atoms: C_21  and  C_23
REMARK                            x       y       z     vdW  Elec       q    Type
REMARK                         _______ _______ _______ _____ _____    ______ ____
ROOT
ATOM      1  C   UNL     1      -0.414  -8.688  -2.728  0.00  0.00    +0.211 A 
ATOM      2  N   UNL     1      -0.499  -9.561  -3.738  0.00  0.00    -0.186 NA
ATOM      3  C   UNL     1      -0.548 -10.787  -3.260  0.00  0.00    +0.232 A 
ATOM      4  N   UNL     1      -0.494 -10.712  -1.913  0.00  0.00    -0.245 N 
ATOM      5  N   UNL     1      -0.404  -9.348  -1.594  0.00  0.00    -0.144 NA
ATOM      6  N   UNL     1      -0.638 -11.947  -4.007  0.00  0.00    -0.205 N 
ATOM      7  H   UNL     1      -0.669 -12.809  -3.563  0.00  0.00    +0.177 HD
ATOM      8  H   UNL     1      -0.512 -11.455  -1.290  0.00  0.00    +0.192 HD
ENDROOT
BRANCH   6   9
ATOM      9  N   UNL     1      -0.686 -11.878  -5.406  0.00  0.00    -0.184 NA
ATOM     10  C   UNL     1      -0.869 -12.957  -6.103  0.00  0.00    +0.063 C 
ATOM     11  C   UNL     1      -1.030 -12.870  -7.599  0.00  0.00    +0.068 C 
BRANCH  10  12
ATOM     12  C   UNL     1      -0.921 -14.269  -5.432  0.00  0.00    -0.002 A 
ATOM     13  C   UNL     1      -1.952 -14.557  -4.534  0.00  0.00    +0.012 A 
ATOM     14  C   UNL     1      -1.995 -15.786  -3.909  0.00  0.00    +0.039 A 
ATOM     15  C   UNL     1      -1.018 -16.734  -4.171  0.00  0.00    +0.123 A 
ATOM     16  C   UNL     1       0.007 -16.454  -5.061  0.00  0.00    +0.039 A 
ATOM     17  C   UNL     1       0.057 -15.231  -5.696  0.00  0.00    +0.012 A 
ATOM     18  F   UNL     1      -1.066 -17.936  -3.556  0.00  0.00    -0.205 F 
ENDBRANCH  10  12
ENDBRANCH   6   9
BRANCH   1  19
ATOM     19  S   UNL     1      -0.324  -6.936  -2.894  0.00  0.00    -0.075 S 
BRANCH  19  20
ATOM     20  C   UNL     1      -0.221  -6.338  -1.185  0.00  0.00    +0.173 C 
BRANCH  20  22
ATOM     21  N   UNL     1      -0.052  -4.165  -0.016  0.00  0.00    -0.284 N 
ATOM     22  C   UNL     1      -0.137  -4.833  -1.183  0.00  0.00    +0.228 C 
ATOM     23  O   UNL     1      -0.147  -4.224  -2.232  0.00  0.00    -0.275 OA
ATOM     24  H   UNL     1       0.039  -4.653   0.817  0.00  0.00    +0.155 HD
BRANCH  21  29
ATOM     25  C   UNL     1      -0.233   1.506   0.023  0.00  0.00    +0.044 C 
ATOM     26  C   UNL     1      -0.184   0.000   0.013  0.00  0.00    -0.049 A 
ATOM     27  C   UNL     1      -0.760  -0.702  -1.030  0.00  0.00    +0.005 A 
ATOM     28  C   UNL     1      -0.718  -2.082  -1.043  0.00  0.00    +0.024 A 
ATOM     29  C   UNL     1      -0.096  -2.766  -0.006  0.00  0.00    +0.047 A 
ATOM     30  C   UNL     1       0.482  -2.058   1.040  0.00  0.00    +0.039 A 
ATOM     31  C   UNL     1       0.441  -0.677   1.044  0.00  0.00    +0.020 A 
ATOM     32 BR   UNL     1       1.330  -2.984   2.454  0.00  0.00    -0.048 Br
ENDBRANCH  21  29
ENDBRANCH  20  22
ENDBRANCH  19  20
ENDBRANCH   1  19
TORSDOF 6
