REMARK  Name = ZINC09219564
REMARK  6 active torsions:
REMARK  status: ('A' for Active; 'I' for Inactive)
REMARK    1  A    between atoms: C_9  and  S_11
REMARK    2  A    between atoms: S_11  and  C_12
REMARK    3  A    between atoms: C_12  and  C_13
REMARK    4  A    between atoms: C_13  and  C_14
REMARK    5  A    between atoms: C_14  and  C_15
REMARK    6  A    between atoms: C_20  and  N_23
REMARK                            x       y       z     vdW  Elec       q    Type
REMARK                         _______ _______ _______ _____ _____    ______ ____
ROOT
ATOM      1  C   UNL     1      -8.582   6.369   0.078  0.00  0.00    +0.216 C 
ATOM      2  O   UNL     1      -9.369   5.447   0.077  0.00  0.00    -0.276 OA
ATOM      3  N   UNL     1      -9.032   7.639   0.087  0.00  0.00    -0.301 N 
ATOM      4  C   UNL     1      -8.090   8.767   0.094  0.00  0.00    +0.110 C 
ATOM      5  C   UNL     1      -8.429   9.691   1.263  0.00  0.00    +0.044 C 
ATOM      6  C   UNL     1      -9.900  10.101   1.176  0.00  0.00    +0.095 C 
ATOM      7  C   UNL     1     -10.785   8.856   1.270  0.00  0.00    +0.044 C 
ATOM      8  C   UNL     1     -10.473   7.923   0.096  0.00  0.00    +0.110 C 
ENDROOT
BRANCH   6   9
ATOM      9  N   UNL     1     -10.219  11.011   2.280  0.00  0.00    -0.289 N 
ATOM     10  C   UNL     1     -10.682  12.318   2.151  0.00  0.00    +0.070 A 
ATOM     11  C   UNL     1     -10.969  13.122   1.058  0.00  0.00    +0.028 A 
ATOM     12  C   UNL     1     -11.424  14.411   1.254  0.00  0.00    +0.002 A 
ATOM     13  C   UNL     1     -11.596  14.903   2.537  0.00  0.00    +0.002 A 
ATOM     14  C   UNL     1     -11.313  14.110   3.631  0.00  0.00    +0.028 A 
ATOM     15  C   UNL     1     -10.855  12.814   3.444  0.00  0.00    +0.067 A 
ATOM     16  N   UNL     1     -10.492  11.793   4.319  0.00  0.00    -0.306 N 
ATOM     17  H   UNL     1     -10.508  11.843   5.288  0.00  0.00    +0.170 HD
ATOM     18  C   UNL     1     -10.120  10.723   3.591  0.00  0.00    +0.328 A 
ATOM     19  O   UNL     1      -9.749   9.659   4.049  0.00  0.00    -0.247 OA
ENDBRANCH   6   9
BRANCH   1  20
ATOM     20  C   UNL     1      -7.100   6.095   0.069  0.00  0.00    +0.097 C 
BRANCH  20  21
ATOM     21  C   UNL     1      -6.861   4.583   0.060  0.00  0.00    +0.020 C 
BRANCH  21  22
ATOM     22  C   UNL     1      -5.357   4.305   0.051  0.00  0.00    +0.078 C 
BRANCH  22  23
ATOM     23  S   UNL     1      -5.075   2.517   0.040  0.00  0.00    -0.088 S 
BRANCH  23  32
ATOM     24  C   UNL     1       1.172   1.783   0.000  0.00  0.00    +0.002 A 
ATOM     25  C   UNL     1       1.162   3.170   0.008  0.00  0.00    +0.002 A 
ATOM     26  C   UNL     1      -0.030   3.860   0.022  0.00  0.00    +0.030 A 
ATOM     27  C   UNL     1      -1.238   3.159   0.030  0.00  0.00    +0.090 A 
ATOM     28  C   UNL     1      -1.222   1.754   0.017  0.00  0.00    +0.067 A 
ATOM     29  C   UNL     1      -0.013   1.076   0.008  0.00  0.00    +0.028 A 
ATOM     30  N   UNL     1      -2.548   1.353   0.021  0.00  0.00    -0.333 N 
ATOM     31  H   UNL     1      -2.883   0.411   0.018  0.00  0.00    +0.168 HD
ATOM     32  C   UNL     1      -3.313   2.485   0.031  0.00  0.00    +0.167 A 
ATOM     33  N   UNL     1      -2.541   3.544   0.044  0.00  0.00    -0.222 NA
ENDBRANCH  23  32
ENDBRANCH  22  23
ENDBRANCH  21  22
ENDBRANCH  20  21
ENDBRANCH   1  20
TORSDOF 6
