REMARK  Name = ZINC67412032
REMARK  6 active torsions:
REMARK  status: ('A' for Active; 'I' for Inactive)
REMARK    1  A    between atoms: C_1  and  C_2
REMARK    2  A    between atoms: C_4  and  C_8
REMARK    3  A    between atoms: C_5  and  C_7
REMARK    4  A    between atoms: C_8  and  C_10
REMARK    5  A    between atoms: C_8  and  N_11
REMARK    6  A    between atoms: C_18  and  C_21
REMARK                            x       y       z     vdW  Elec       q    Type
REMARK                         _______ _______ _______ _____ _____    ______ ____
ROOT
ATOM      1  N   UNL     1      -2.752  -3.099  -0.586  0.00  0.00    -0.293 N 
ATOM      2  C   UNL     1      -3.473  -4.086  -1.154  0.00  0.00    +0.303 C 
ATOM      3  O   UNL     1      -2.994  -5.198  -1.270  0.00  0.00    -0.253 OA
ATOM      4  N   UNL     1      -4.723  -3.841  -1.593  0.00  0.00    -0.281 N 
ATOM      5  C   UNL     1      -5.281  -2.480  -1.569  0.00  0.00    +0.137 C 
ATOM      6  C   UNL     1      -6.653  -2.532  -0.889  0.00  0.00    +0.179 C 
ATOM      7  O   UNL     1      -7.454  -3.535  -1.519  0.00  0.00    -0.369 OA
ATOM      8  C   UNL     1      -6.928  -4.860  -1.405  0.00  0.00    +0.166 C 
ATOM      9  C   UNL     1      -5.568  -4.926  -2.117  0.00  0.00    +0.145 C 
ATOM     10  H   UNL     1      -3.104  -2.196  -0.559  0.00  0.00    +0.151 HD
ENDROOT
BRANCH   8  11
ATOM     11  C   UNL     1      -7.880  -5.836  -2.047  0.00  0.00    -0.015 A 
ATOM     12  C   UNL     1      -8.510  -5.507  -3.233  0.00  0.00    +0.009 A 
ATOM     13  C   UNL     1      -9.383  -6.400  -3.824  0.00  0.00    +0.041 A 
ATOM     14  C   UNL     1      -9.628  -7.626  -3.229  0.00  0.00    +0.158 A 
ATOM     15  C   UNL     1      -8.996  -7.955  -2.040  0.00  0.00    +0.159 A 
ATOM     16  C   UNL     1      -8.118  -7.061  -1.453  0.00  0.00    +0.047 A 
ATOM     17  F   UNL     1      -9.234  -9.151  -1.457  0.00  0.00    -0.202 F 
ATOM     18  F   UNL     1     -10.482  -8.499  -3.806  0.00  0.00    -0.202 F 
ENDBRANCH   8  11
BRANCH   1  19
ATOM     19  C   UNL     1      -1.438  -3.390  -0.008  0.00  0.00    +0.105 C 
ATOM     20  C   UNL     1      -1.611  -3.890   1.428  0.00  0.00    +0.033 C 
BRANCH  19  24
ATOM     21  C   UNL     1      -0.016   1.502   0.009  0.00  0.00    +0.086 C 
ATOM     22  C   UNL     1       0.003  -0.005   0.002  0.00  0.00    +0.103 A 
ATOM     23  C   UNL     1      -1.077  -0.806   0.003  0.00  0.00    +0.050 A 
ATOM     24  C   UNL     1      -0.601  -2.137  -0.005  0.00  0.00    +0.013 A 
ATOM     25  C   UNL     1       0.742  -2.070  -0.010  0.00  0.00    +0.107 A 
ATOM     26  O   UNL     1       1.103  -0.776  -0.011  0.00  0.00    -0.465 OA
ATOM     27  C   UNL     1       1.683  -3.247  -0.018  0.00  0.00    +0.086 C 
ENDBRANCH  19  24
ENDBRANCH   1  19
TORSDOF 3
