REMARK  Name = ZINC39652753
REMARK  8 active torsions:
REMARK  status: ('A' for Active; 'I' for Inactive)
REMARK    1  A    between atoms: C_1  and  C_2
REMARK    2  A    between atoms: C_2  and  O_3
REMARK    3  A    between atoms: O_3  and  C_4
REMARK    4  A    between atoms: C_9  and  C_10
REMARK    5  A    between atoms: C_10  and  C_11
REMARK    6  A    between atoms: C_11  and  N_12
REMARK    7  A    between atoms: C_13  and  C_15
REMARK    8  A    between atoms: C_26  and  C_28
REMARK                            x       y       z     vdW  Elec       q    Type
REMARK                         _______ _______ _______ _____ _____    ______ ____
ROOT
ATOM      1  C   UNL     1      -7.270   1.216  -2.497  0.00  0.00    +0.100 C 
ATOM      2  C   UNL     1      -6.964   2.454  -1.625  0.00  0.00    +0.121 C 
ATOM      3  N   UNL     1      -6.506   3.485  -2.587  0.00  0.00    -0.297 N 
ATOM      4  C   UNL     1      -7.386   3.306  -3.766  0.00  0.00    +0.115 C 
ATOM      5  C   UNL     1      -7.550   1.779  -3.900  0.00  0.00    -0.004 C 
ATOM      6  C   UNL     1      -6.541   1.227  -4.902  0.00  0.00    -0.010 C 
ATOM      7  C   UNL     1      -6.874   1.757  -6.300  0.00  0.00    -0.082 C 
ATOM      8  N   UNL     1      -8.235   1.347  -6.668  0.00  0.00    +0.379 N 
ATOM      9  C   UNL     1      -9.207   1.958  -5.754  0.00  0.00    -0.082 C 
ATOM     10  C   UNL     1      -8.972   1.437  -4.333  0.00  0.00    -0.010 C 
ATOM     11  C   UNL     1      -5.512   4.381  -2.426  0.00  0.00    +0.260 C 
ATOM     12  O   UNL     1      -4.812   4.339  -1.437  0.00  0.00    -0.271 OA
ATOM     13  H   UNL     1      -8.430   1.645  -7.612  0.00  0.00    -0.086 HD
ATOM     14  H   UNL     1      -8.308   0.342  -6.613  0.00  0.00    -0.086 HD
ENDROOT
BRANCH  11  15
ATOM     15  C   UNL     1      -5.271   5.435  -3.476  0.00  0.00    +0.296 C 
ATOM     16  C   UNL     1      -6.433   6.437  -3.480  0.00  0.00    +0.283 C 
ATOM     17  O   UNL     1      -6.166   7.430  -4.476  0.00  0.00    -0.484 OA
ATOM     18  C   UNL     1      -4.911   7.956  -4.494  0.00  0.00    +0.162 A 
ATOM     19  C   UNL     1      -4.682   9.148  -5.165  0.00  0.00    +0.049 A 
ATOM     20  C   UNL     1      -3.412   9.693  -5.194  0.00  0.00    +0.004 A 
ATOM     21  C   UNL     1      -2.367   9.052  -4.555  0.00  0.00    +0.004 A 
ATOM     22  C   UNL     1      -2.589   7.865  -3.884  0.00  0.00    +0.049 A 
ATOM     23  C   UNL     1      -3.861   7.313  -3.849  0.00  0.00    +0.163 A 
ATOM     24  O   UNL     1      -4.065   6.147  -3.177  0.00  0.00    -0.473 OA
ENDBRANCH  11  15
BRANCH   1  26
ATOM     25  N   UNL     1      -6.263  -1.036  -2.676  0.00  0.00    -0.315 N 
ATOM     26  C   UNL     1      -6.081   0.291  -2.530  0.00  0.00    +0.218 C 
ATOM     27  O   UNL     1      -4.960   0.741  -2.426  0.00  0.00    -0.275 OA
ATOM     28  H   UNL     1      -7.160  -1.397  -2.759  0.00  0.00    +0.149 HD
BRANCH  25  29
ATOM     29  C   UNL     1      -5.107  -1.935  -2.709  0.00  0.00    +0.109 C 
BRANCH  29  30
ATOM     30  C   UNL     1      -5.587  -3.378  -2.882  0.00  0.00    +0.057 C 
BRANCH  30  36
ATOM     31  C   UNL     1      -3.847  -4.769  -1.730  0.00  0.00    +0.124 A 
ATOM     32  C   UNL     1      -2.755  -5.624  -1.765  0.00  0.00    +0.046 A 
ATOM     33  C   UNL     1      -2.216  -6.006  -2.978  0.00  0.00    +0.004 A 
ATOM     34  C   UNL     1      -2.764  -5.535  -4.158  0.00  0.00    +0.000 A 
ATOM     35  C   UNL     1      -3.851  -4.683  -4.126  0.00  0.00    +0.007 A 
ATOM     36  C   UNL     1      -4.398  -4.303  -2.915  0.00  0.00    -0.004 A 
BRANCH  31  37
ATOM     37  O   UNL     1      -4.380  -4.393  -0.538  0.00  0.00    -0.492 OA
BRANCH  37  39
ATOM     38  C   UNL     1      -4.493  -4.381   1.876  0.00  0.00    +0.048 C 
ATOM     39  C   UNL     1      -3.761  -4.911   0.641  0.00  0.00    +0.225 C 
ENDBRANCH  37  39
ENDBRANCH  31  37
ENDBRANCH  30  36
ENDBRANCH  29  30
ENDBRANCH  25  29
ENDBRANCH   1  26
TORSDOF 7
