REMARK  Name = ZINC01050217
REMARK  12 active torsions:
REMARK  status: ('A' for Active; 'I' for Inactive)
REMARK    1  A    between atoms: C_1  and  C_2
REMARK    2  A    between atoms: C_4  and  N_23
REMARK    3  A    between atoms: C_5  and  C_20
REMARK    4  A    between atoms: C_6  and  S_9
REMARK    5  A    between atoms: C_7  and  O_8
REMARK    6  A    between atoms: S_9  and  C_12
REMARK    7  A    between atoms: C_15  and  O_18
REMARK    8  A    between atoms: O_18  and  C_19
REMARK    9  A    between atoms: C_20  and  C_21
REMARK   10  A    between atoms: C_20  and  C_22
REMARK   11  A    between atoms: N_23  and  S_24
REMARK   12  A    between atoms: S_24  and  C_27
REMARK                            x       y       z     vdW  Elec       q    Type
REMARK                         _______ _______ _______ _____ _____    ______ ____
ROOT
ATOM      1  C   UNL     1      -0.940   1.336  -0.083  0.00  0.00    +0.047 C 
ATOM      2  C   UNL     1      -0.407  -0.067   0.051  0.00  0.00    -0.005 A 
ATOM      3  C   UNL     1      -0.190  -0.835  -1.076  0.00  0.00    +0.031 A 
ATOM      4  C   UNL     1       0.301  -2.127  -0.952  0.00  0.00    +0.054 A 
ATOM      5  C   UNL     1       0.576  -2.647   0.306  0.00  0.00    +0.006 A 
ATOM      6  C   UNL     1       0.359  -1.878   1.433  0.00  0.00    +0.140 A 
ATOM      7  C   UNL     1      -0.128  -0.585   1.307  0.00  0.00    +0.145 A 
ENDROOT
BRANCH   6   8
ATOM      8  S   UNL     1       0.707  -2.537   3.029  0.00  0.00    +0.029 S 
ATOM      9  O   UNL     1       0.214  -1.596   3.973  0.00  0.00    -0.164 OA
ATOM     10  O   UNL     1       0.281  -3.893   3.011  0.00  0.00    -0.164 OA
BRANCH   8  11
ATOM     11  C   UNL     1       2.459  -2.563   3.212  0.00  0.00    +0.094 A 
ATOM     12  C   UNL     1       3.178  -3.675   2.815  0.00  0.00    +0.031 A 
ATOM     13  C   UNL     1       4.552  -3.698   2.957  0.00  0.00    +0.047 A 
ATOM     14  C   UNL     1       5.211  -2.603   3.499  0.00  0.00    +0.120 A 
ATOM     15  C   UNL     1       4.487  -1.488   3.895  0.00  0.00    +0.047 A 
ATOM     16  C   UNL     1       3.114  -1.468   3.746  0.00  0.00    +0.031 A 
BRANCH  14  17
ATOM     17  O   UNL     1       6.562  -2.624   3.640  0.00  0.00    -0.495 OA
ATOM     18  C   UNL     1       7.173  -1.462   4.205  0.00  0.00    +0.277 C 
ENDBRANCH  14  17
ENDBRANCH   8  11
ENDBRANCH   6   8
BRANCH   5  19
ATOM     19  C   UNL     1       1.109  -4.050   0.443  0.00  0.00    +0.017 C 
ATOM     20  C   UNL     1       0.158  -5.027  -0.251  0.00  0.00    +0.012 C 
ATOM     21  C   UNL     1       2.491  -4.135  -0.208  0.00  0.00    +0.012 C 
ENDBRANCH   5  19
BRANCH   7  22
ATOM     22  O   UNL     1      -0.336   0.173   2.417  0.00  0.00    -0.505 OA
ATOM     23  H   UNL     1      -1.222   0.084   2.794  0.00  0.00    +0.292 HD
ENDBRANCH   7  22
BRANCH   4  24
ATOM     24  N   UNL     1       0.520  -2.906  -2.094  0.00  0.00    -0.216 N 
ATOM     25  H   UNL     1       1.420  -3.183  -2.327  0.00  0.00    +0.174 HD
BRANCH  24  26
ATOM     26  S   UNL     1      -0.757  -3.355  -3.047  0.00  0.00    +0.072 S 
ATOM     27  O   UNL     1      -0.218  -4.129  -4.110  0.00  0.00    -0.150 OA
ATOM     28  O   UNL     1      -1.760  -3.855  -2.173  0.00  0.00    -0.150 OA
BRANCH  26  29
ATOM     29  C   UNL     1      -1.408  -1.887  -3.772  0.00  0.00    +0.109 A 
ATOM     30  C   UNL     1      -2.400  -1.177  -3.123  0.00  0.00    +0.030 A 
ATOM     31  C   UNL     1      -2.910  -0.025  -3.691  0.00  0.00    +0.022 A 
ATOM     32  C   UNL     1      -2.428   0.417  -4.911  0.00  0.00    +0.041 A 
ATOM     33  C   UNL     1      -1.435  -0.294  -5.560  0.00  0.00    +0.022 A 
ATOM     34  C   UNL     1      -0.921  -1.443  -4.988  0.00  0.00    +0.030 A 
ATOM     35 CL   UNL     1      -3.070   1.863  -5.625  0.00  0.00    -0.084 Cl
ENDBRANCH  26  29
ENDBRANCH  24  26
ENDBRANCH   4  24
TORSDOF 8
