REMARK  Name = ZINC39693336
REMARK  8 active torsions:
REMARK  status: ('A' for Active; 'I' for Inactive)
REMARK    1  A    between atoms: C_1  and  C_2
REMARK    2  A    between atoms: C_6  and  C_7
REMARK    3  A    between atoms: C_11  and  C_20
REMARK    4  A    between atoms: N_22  and  C_23
REMARK    5  A    between atoms: C_23  and  C_24
REMARK    6  A    between atoms: C_24  and  N_25
REMARK    7  A    between atoms: C_26  and  C_28
REMARK    8  A    between atoms: C_28  and  C_29
REMARK                            x       y       z     vdW  Elec       q    Type
REMARK                         _______ _______ _______ _____ _____    ______ ____
ROOT
ATOM      1  C   UNL     1       0.244  -4.375   5.277  0.00  0.00    +0.218 C 
ATOM      2  O   UNL     1      -0.933  -4.634   5.138  0.00  0.00    -0.275 OA
ATOM      3  N   UNL     1       1.043  -5.216   5.963  0.00  0.00    -0.314 N 
ATOM      4  H   UNL     1       1.984  -5.009   6.074  0.00  0.00    +0.149 HD
ENDROOT
BRANCH   1   9
ATOM      5  C   UNL     1       0.030  -0.284   2.560  0.00  0.00    +0.254 C 
ATOM      6  O   UNL     1       0.119   0.905   2.803  0.00  0.00    -0.269 OA
ATOM      7  N   UNL     1      -0.050  -1.174   3.569  0.00  0.00    -0.296 N 
ATOM      8  C   UNL     1      -0.041  -2.653   3.479  0.00  0.00    +0.121 C 
ATOM      9  C   UNL     1       0.813  -3.113   4.682  0.00  0.00    +0.100 C 
ATOM     10  C   UNL     1       0.724  -1.955   5.691  0.00  0.00    -0.004 C 
ATOM     11  C   UNL     1      -0.162  -0.894   5.021  0.00  0.00    +0.115 C 
ATOM     12  C   UNL     1       2.111  -1.382   5.961  0.00  0.00    -0.010 C 
ATOM     13  C   UNL     1       2.004  -0.271   7.009  0.00  0.00    -0.082 C 
ATOM     14  N   UNL     1       1.429  -0.816   8.245  0.00  0.00    +0.379 N 
ATOM     15  C   UNL     1       0.059  -1.281   7.997  0.00  0.00    -0.082 C 
ATOM     16  C   UNL     1       0.084  -2.434   6.990  0.00  0.00    -0.010 C 
ATOM     17  H   UNL     1       1.993  -1.589   8.564  0.00  0.00    -0.086 HD
ATOM     18  H   UNL     1       1.416  -0.097   8.953  0.00  0.00    -0.086 HD
BRANCH   5  24
ATOM     19  C   UNL     1      -0.013   1.502   0.009  0.00  0.00    +0.045 C 
ATOM     20  C   UNL     1      -0.009  -0.004   0.000  0.00  0.00    -0.031 A 
ATOM     21  C   UNL     1      -0.018  -0.729  -1.168  0.00  0.00    +0.011 A 
ATOM     22  C   UNL     1      -0.012  -2.083  -1.103  0.00  0.00    +0.046 A 
ATOM     23  S   UNL     1       0.006  -2.417   0.543  0.00  0.00    -0.092 S 
ATOM     24  C   UNL     1       0.012  -0.749   1.170  0.00  0.00    +0.077 A 
ENDBRANCH   5  24
ENDBRANCH   1   9
BRANCH   3  25
ATOM     25  C   UNL     1       0.490  -6.443   6.542  0.00  0.00    +0.123 C 
BRANCH  25  26
ATOM     26  C   UNL     1       1.599  -7.212   7.262  0.00  0.00    +0.123 C 
BRANCH  26  27
ATOM     27  N   UNL     1       1.047  -8.440   7.840  0.00  0.00    -0.314 N 
ATOM     28  C   UNL     1       1.846  -9.280   8.527  0.00  0.00    +0.217 C 
ATOM     29  O   UNL     1       3.022  -9.021   8.665  0.00  0.00    -0.275 OA
ATOM     30  H   UNL     1       0.106  -8.647   7.729  0.00  0.00    +0.149 HD
BRANCH  28  31
ATOM     31  C   UNL     1       1.277 -10.543   9.121  0.00  0.00    +0.131 C 
BRANCH  31  32
ATOM     32  C   UNL     1       2.370 -11.300   9.831  0.00  0.00    -0.031 A 
ATOM     33  C   UNL     1       3.046 -12.290   9.186  0.00  0.00    +0.005 A 
ATOM     34  C   UNL     1       4.059 -13.001   9.826  0.00  0.00    +0.001 A 
ATOM     35  C   UNL     1       4.402 -12.727  11.115  0.00  0.00    +0.008 A 
ATOM     36  C   UNL     1       3.726 -11.712  11.813  0.00  0.00    -0.018 A 
ATOM     37  C   UNL     1       2.700 -10.984  11.160  0.00  0.00    -0.014 A 
ATOM     38  C   UNL     1       2.027  -9.965  11.856  0.00  0.00    +0.009 A 
ATOM     39  C   UNL     1       2.374  -9.687  13.143  0.00  0.00    +0.001 A 
ATOM     40  C   UNL     1       3.388 -10.398  13.783  0.00  0.00    +0.001 A 
ATOM     41  C   UNL     1       4.051 -11.401  13.144  0.00  0.00    +0.008 A 
ENDBRANCH  31  32
ENDBRANCH  28  31
ENDBRANCH  26  27
ENDBRANCH  25  26
ENDBRANCH   3  25
TORSDOF 7
