REMARK  Name = ZINC21111734
REMARK  7 active torsions:
REMARK  status: ('A' for Active; 'I' for Inactive)
REMARK    1  A    between atoms: C_4  and  C_7
REMARK    2  A    between atoms: C_7  and  C_8
REMARK    3  A    between atoms: C_8  and  C_10
REMARK    4  A    between atoms: C_8  and  N_21
REMARK    5  A    between atoms: N_12  and  C_13
REMARK    6  A    between atoms: N_21  and  S_22
REMARK    7  A    between atoms: S_22  and  C_25
REMARK                            x       y       z     vdW  Elec       q    Type
REMARK                         _______ _______ _______ _____ _____    ______ ____
ROOT
ATOM      1  C   UNL     1      -2.340   0.975   0.061  0.00  0.00    +0.166 C 
ENDROOT
BRANCH   1   2
ATOM      2  C   UNL     1      -1.190   1.948   0.123  0.00  0.00    +0.232 C 
ATOM      3  O   UNL     1      -1.403   3.125   0.323  0.00  0.00    -0.274 OA
ATOM      4  N   UNL     1       0.073   1.509  -0.043  0.00  0.00    -0.311 N 
ATOM      5  H   UNL     1       0.266   0.441  -0.220  0.00  0.00    +0.149 HD
BRANCH   4   6
ATOM      6  C   UNL     1       1.190   2.456   0.010  0.00  0.00    +0.073 C 
ATOM      7  C   UNL     1       1.381   3.098  -1.365  0.00  0.00    +0.022 C 
ATOM      8  C   UNL     1       2.254   4.347  -1.228  0.00  0.00    +0.002 C 
ATOM      9  C   UNL     1       1.798   5.159  -0.014  0.00  0.00    +0.000 C 
ATOM     10  C   UNL     1       2.891   5.134   1.056  0.00  0.00    +0.000 C 
ATOM     11  C   UNL     1       2.885   3.776   1.760  0.00  0.00    +0.000 C 
ATOM     12  C   UNL     1       3.527   2.727   0.850  0.00  0.00    +0.002 C 
ATOM     13  C   UNL     1       2.468   1.715   0.409  0.00  0.00    +0.022 C 
ENDBRANCH   4   6
ENDBRANCH   1   2
BRANCH   1  14
ATOM     14  N   UNL     1      -3.599   1.693   0.271  0.00  0.00    -0.177 NA
ATOM     15  H   UNL     1      -4.035   1.756   1.279  0.00  0.00    +0.149 HD
BRANCH  14  16
ATOM     16  S   UNL     1      -4.492   2.195  -1.030  0.00  0.00    +0.065 S 
ATOM     17  O   UNL     1      -5.651   2.830  -0.506  0.00  0.00    -0.153 OA
ATOM     18  O   UNL     1      -3.593   2.857  -1.909  0.00  0.00    -0.153 OA
BRANCH  16  19
ATOM     19  C   UNL     1      -5.047   0.750  -1.871  0.00  0.00    +0.142 A 
ATOM     20  C   UNL     1      -6.225   0.090  -1.748  0.00  0.00    +0.036 A 
ATOM     21  C   UNL     1      -6.445  -1.036  -2.519  0.00  0.00    +0.010 A 
ATOM     22  C   UNL     1      -5.478  -1.447  -3.375  0.00  0.00    +0.047 A 
ATOM     23  S   UNL     1      -4.206  -0.222  -3.110  0.00  0.00    -0.077 S 
ENDBRANCH  16  19
ENDBRANCH  14  16
ENDBRANCH   1  14
BRANCH   1  24
ATOM     24  C   UNL     1      -2.170  -0.085   1.151  0.00  0.00    +0.065 C 
BRANCH  24  28
ATOM     25  C   UNL     1      -5.205  -3.062   0.730  0.00  0.00    +0.000 A 
ATOM     26  C   UNL     1      -3.971  -3.243   0.133  0.00  0.00    +0.000 A 
ATOM     27  C   UNL     1      -2.989  -2.280   0.270  0.00  0.00    +0.004 A 
ATOM     28  C   UNL     1      -3.240  -1.135   1.002  0.00  0.00    -0.045 A 
ATOM     29  C   UNL     1      -4.472  -0.956   1.603  0.00  0.00    +0.004 A 
ATOM     30  C   UNL     1      -5.456  -1.917   1.463  0.00  0.00    +0.000 A 
ENDBRANCH  24  28
ENDBRANCH   1  24
TORSDOF 7
