REMARK  Name = ZINC05604671
REMARK  5 active torsions:
REMARK  status: ('A' for Active; 'I' for Inactive)
REMARK    1  A    between atoms: N_8  and  N_9
REMARK    2  A    between atoms: C_10  and  C_11
REMARK    3  A    between atoms: C_14  and  C_16
REMARK    4  A    between atoms: C_19  and  S_22
REMARK    5  A    between atoms: S_22  and  N_25
REMARK                            x       y       z     vdW  Elec       q    Type
REMARK                         _______ _______ _______ _____ _____    ______ ____
ROOT
ATOM      1  C   UNL     1      -6.648   5.760   0.099  0.00  0.00    +0.148 A 
ATOM      2  C   UNL     1      -8.035   5.666   0.112  0.00  0.00    +0.051 A 
ATOM      3  C   UNL     1      -8.526   6.969   0.124  0.00  0.00    +0.050 A 
ATOM      4  C   UNL     1      -7.434   7.814   0.119  0.00  0.00    +0.136 A 
ATOM      5  O   UNL     1      -6.315   7.069   0.109  0.00  0.00    -0.454 OA
ENDROOT
BRANCH   4   6
ATOM      6  C   UNL     1      -7.486   9.288   0.128  0.00  0.00    +0.017 A 
ATOM      7  C   UNL     1      -8.719   9.947   0.139  0.00  0.00    +0.013 A 
ATOM      8  C   UNL     1      -8.760  11.325   0.155  0.00  0.00    +0.029 A 
ATOM      9  C   UNL     1      -7.585  12.056   0.147  0.00  0.00    +0.105 A 
ATOM     10  C   UNL     1      -6.361  11.410   0.130  0.00  0.00    +0.029 A 
ATOM     11  C   UNL     1      -6.304  10.033   0.121  0.00  0.00    +0.013 A 
BRANCH   9  12
ATOM     12  S   UNL     1      -7.647  13.816   0.160  0.00  0.00    +0.056 S 
ATOM     13  O   UNL     1      -8.901  14.174   0.726  0.00  0.00    -0.153 OA
ATOM     14  O   UNL     1      -6.412  14.263   0.701  0.00  0.00    -0.153 OA
BRANCH  12  15
ATOM     15  N   UNL     1      -7.681  14.316  -1.419  0.00  0.00    -0.204 NA
ATOM     16  H   UNL     1      -8.133  15.141  -1.657  0.00  0.00    +0.144 HD
ATOM     17  H   UNL     1      -7.249  13.784  -2.105  0.00  0.00    +0.144 HD
ENDBRANCH  12  15
ENDBRANCH   9  12
ENDBRANCH   4   6
BRANCH   1  19
ATOM     18  N   UNL     1      -4.446   4.909   0.072  0.00  0.00    -0.153 NA
ATOM     19  C   UNL     1      -5.750   4.683   0.083  0.00  0.00    +0.181 C 
BRANCH  18  27
ATOM     20  C   UNL     1      -0.013   1.076   0.008  0.00  0.00    +0.001 A 
ATOM     21  C   UNL     1       1.178   1.784   0.000  0.00  0.00    +0.002 A 
ATOM     22  C   UNL     1       1.177   3.164   0.007  0.00  0.00    +0.024 A 
ATOM     23  C   UNL     1      -0.027   3.860   0.023  0.00  0.00    +0.043 A 
ATOM     24  C   UNL     1      -1.230   3.141   0.030  0.00  0.00    +0.028 A 
ATOM     25  C   UNL     1      -1.217   1.748   0.017  0.00  0.00    +0.012 A 
ATOM     26  C   UNL     1      -2.316   4.143   0.046  0.00  0.00    +0.157 C 
ATOM     27  N   UNL     1      -3.620   3.918   0.058  0.00  0.00    -0.144 NA
ATOM     28  C   UNL     1      -1.633   5.447   0.046  0.00  0.00    +0.269 C 
ATOM     29  O   UNL     1      -2.173   6.538   0.057  0.00  0.00    -0.268 OA
ATOM     30  N   UNL     1      -0.308   5.221   0.033  0.00  0.00    -0.280 N 
ATOM     31  H   UNL     1       0.366   5.919   0.030  0.00  0.00    +0.155 HD
ENDBRANCH  18  27
ENDBRANCH   1  19
TORSDOF 5
