REMARK  Name = ZINC04109737
REMARK  6 active torsions:
REMARK  status: ('A' for Active; 'I' for Inactive)
REMARK    1  A    between atoms: C_1  and  C_2
REMARK    2  A    between atoms: C_3  and  C_11
REMARK    3  A    between atoms: C_7  and  N_8
REMARK    4  A    between atoms: N_13  and  C_14
REMARK    5  A    between atoms: C_15  and  C_25
REMARK    6  A    between atoms: C_20  and  C_24
REMARK                            x       y       z     vdW  Elec       q    Type
REMARK                         _______ _______ _______ _____ _____    ______ ____
ROOT
ATOM      1  C   UNL     1       3.147  -2.363   0.049  0.00  0.00    +0.249 C 
ATOM      2  O   UNL     1       4.146  -1.672   0.025  0.00  0.00    -0.270 OA
ATOM      3  N   UNL     1       1.931  -1.788   0.126  0.00  0.00    -0.275 N 
ATOM      4  H   UNL     1       1.133  -2.339   0.145  0.00  0.00    +0.156 HD
ENDROOT
BRANCH   3   5
ATOM      5  C   UNL     1       1.820  -0.406   0.178  0.00  0.00    +0.090 A 
ATOM      6  C   UNL     1       0.668   0.363   0.259  0.00  0.00    +0.084 A 
ATOM      7  C   UNL     1       0.826   1.807   0.301  0.00  0.00    -0.018 A 
ATOM      8  C   UNL     1       2.103   2.247   0.256  0.00  0.00    -0.004 A 
ATOM      9  S   UNL     1       3.085   0.777   0.159  0.00  0.00    -0.077 S 
ATOM     10  C   UNL     1       2.569   3.670   0.284  0.00  0.00    +0.046 C 
ATOM     11  C   UNL     1       1.401   4.553   0.748  0.00  0.00    -0.009 C 
ATOM     12  C   UNL     1       0.148   4.169  -0.046  0.00  0.00    +0.008 C 
ATOM     13  C   UNL     1      -0.339   2.785   0.383  0.00  0.00    +0.037 C 
ATOM     14  C   UNL     1       1.739   6.024   0.498  0.00  0.00    +0.008 C 
BRANCH   6  15
ATOM     15  C   UNL     1      -0.628  -0.243   0.299  0.00  0.00    +0.102 C 
ATOM     16  N   UNL     1      -1.657  -0.724   0.331  0.00  0.00    -0.191 NA
ENDBRANCH   6  15
ENDBRANCH   3   5
BRANCH   1  19
ATOM     17  C   UNL     1       5.736  -3.574  -0.406  0.00  0.00    +0.047 C 
ATOM     18  C   UNL     1       4.509  -4.431  -0.226  0.00  0.00    -0.008 A 
ATOM     19  C   UNL     1       3.265  -3.835  -0.007  0.00  0.00    +0.042 A 
ATOM     20  C   UNL     1       2.134  -4.636   0.154  0.00  0.00    +0.013 A 
ATOM     21  C   UNL     1       2.251  -6.010   0.100  0.00  0.00    +0.003 A 
ATOM     22  C   UNL     1       3.487  -6.594  -0.111  0.00  0.00    +0.033 A 
ATOM     23  C   UNL     1       4.614  -5.806  -0.271  0.00  0.00    +0.130 A 
BRANCH  23  24
ATOM     24  N   UNL     1       5.932  -6.439  -0.496  0.00  0.00    +0.057 N 
ATOM     25  O   UNL     1       6.009  -7.643  -0.665  0.00  0.00    -0.126 OA
ATOM     26  O   UNL     1       6.941  -5.756  -0.513  0.00  0.00    -0.126 OA
ENDBRANCH  23  24
ENDBRANCH   1  19
TORSDOF 4
