REMARK  Name = ZINC10212863
REMARK  7 active torsions:
REMARK  status: ('A' for Active; 'I' for Inactive)
REMARK    1  A    between atoms: C_1  and  C_2
REMARK    2  A    between atoms: C_7  and  N_8
REMARK    3  A    between atoms: C_9  and  C_11
REMARK    4  A    between atoms: C_11  and  N_12
REMARK    5  A    between atoms: C_15  and  C_19
REMARK    6  A    between atoms: C_15  and  C_26
REMARK    7  A    between atoms: C_19  and  C_20
REMARK                            x       y       z     vdW  Elec       q    Type
REMARK                         _______ _______ _______ _____ _____    ______ ____
ROOT
ATOM      1  N   UNL     1      -1.105   2.025   0.018  0.00  0.00    -0.215 N 
ATOM      2  C   UNL     1      -0.018   1.228   0.002  0.00  0.00    +0.252 C 
ATOM      3  O   UNL     1       0.001   0.015  -0.012  0.00  0.00    -0.272 OA
ATOM      4  C   UNL     1       1.175   2.162  -0.000  0.00  0.00    +0.142 C 
ATOM      5  N   UNL     1       0.565   3.503   0.022  0.00  0.00    -0.281 N 
ATOM      6  C   UNL     1      -0.767   3.319   0.035  0.00  0.00    +0.310 C 
ATOM      7  O   UNL     1      -1.574   4.228   0.054  0.00  0.00    -0.252 OA
ATOM      8  H   UNL     1       1.034   4.352   0.027  0.00  0.00    +0.152 HD
ENDROOT
BRANCH   4   9
ATOM      9  C   UNL     1       1.994   1.973  -1.251  0.00  0.00    -0.015 A 
ATOM     10  C   UNL     1       3.037   1.066  -1.264  0.00  0.00    +0.006 A 
ATOM     11  C   UNL     1       3.785   0.889  -2.413  0.00  0.00    +0.000 A 
ATOM     12  C   UNL     1       3.496   1.626  -3.546  0.00  0.00    +0.000 A 
ATOM     13  C   UNL     1       2.456   2.537  -3.532  0.00  0.00    +0.000 A 
ATOM     14  C   UNL     1       1.705   2.710  -2.384  0.00  0.00    +0.006 A 
ENDBRANCH   4   9
BRANCH   1  15
ATOM     15  C   UNL     1      -2.485   1.534   0.021  0.00  0.00    +0.214 C 
BRANCH  15  17
ATOM     16  N   UNL     1      -4.197   0.902   1.690  0.00  0.00    -0.284 N 
ATOM     17  C   UNL     1      -2.950   1.349   1.442  0.00  0.00    +0.235 C 
ATOM     18  O   UNL     1      -2.202   1.601   2.363  0.00  0.00    -0.274 OA
ATOM     19  H   UNL     1      -4.818   0.763   0.958  0.00  0.00    +0.155 HD
BRANCH  16  26
ATOM     20  C   UNL     1      -5.977  -1.271   2.144  0.00  0.00    +0.046 C 
ATOM     21  C   UNL     1      -5.465  -0.412   3.272  0.00  0.00    -0.028 A 
ATOM     22  C   UNL     1      -5.858  -0.669   4.571  0.00  0.00    +0.020 A 
ATOM     23  C   UNL     1      -5.389   0.120   5.606  0.00  0.00    +0.018 A 
ATOM     24  C   UNL     1      -4.525   1.168   5.343  0.00  0.00    +0.017 A 
ATOM     25  C   UNL     1      -4.124   1.427   4.047  0.00  0.00    +0.024 A 
ATOM     26  C   UNL     1      -4.598   0.639   3.005  0.00  0.00    +0.036 A 
ATOM     27 BR   UNL     1      -5.929  -0.236   7.383  0.00  0.00    -0.050 Br
ENDBRANCH  16  26
ENDBRANCH  15  17
ENDBRANCH   1  15
BRANCH   4  28
ATOM     28  C   UNL     1       2.035   1.941   1.246  0.00  0.00    +0.075 C 
BRANCH  28  29
ATOM     29  C   UNL     1       1.205   2.189   2.479  0.00  0.00    -0.045 A 
ATOM     30  C   UNL     1       1.150   3.455   3.031  0.00  0.00    +0.004 A 
ATOM     31  C   UNL     1       0.385   3.684   4.160  0.00  0.00    +0.000 A 
ATOM     32  C   UNL     1      -0.317   2.645   4.742  0.00  0.00    +0.000 A 
ATOM     33  C   UNL     1      -0.257   1.378   4.193  0.00  0.00    +0.000 A 
ATOM     34  C   UNL     1       0.504   1.150   3.061  0.00  0.00    +0.004 A 
ENDBRANCH  28  29
ENDBRANCH   4  28
TORSDOF 6
