REMARK  Name = ZINC39710961
REMARK  9 active torsions:
REMARK  status: ('A' for Active; 'I' for Inactive)
REMARK    1  A    between atoms: C_1  and  C_2
REMARK    2  A    between atoms: C_8  and  C_14
REMARK    3  A    between atoms: C_14  and  C_16
REMARK    4  A    between atoms: C_14  and  N_27
REMARK    5  A    between atoms: N_21  and  C_22
REMARK    6  A    between atoms: N_27  and  C_28
REMARK    7  A    between atoms: N_27  and  C_34
REMARK    8  A    between atoms: C_28  and  C_29
REMARK    9  A    between atoms: C_34  and  C_35
REMARK                            x       y       z     vdW  Elec       q    Type
REMARK                         _______ _______ _______ _____ _____    ______ ____
ROOT
ATOM      1  C   UNL     1      -0.599   8.850   6.920  0.00  0.00    -0.009 C 
ENDROOT
BRANCH   1   9
ATOM      2  C   UNL     1      -4.506  10.530   2.495  0.00  0.00    +0.045 C 
ATOM      3  C   UNL     1      -4.019  11.255   3.723  0.00  0.00    -0.029 A 
ATOM      4  C   UNL     1      -4.201  12.597   3.830  0.00  0.00    +0.005 A 
ATOM      5  C   UNL     1      -3.774  13.328   4.940  0.00  0.00    +0.001 A 
ATOM      6  C   UNL     1      -3.147  12.727   5.984  0.00  0.00    +0.009 A 
ATOM      7  C   UNL     1      -2.918  11.283   5.933  0.00  0.00    -0.007 A 
ATOM      8  C   UNL     1      -2.292  10.638   6.958  0.00  0.00    -0.006 C 
ATOM      9  C   UNL     1      -2.098   9.140   6.821  0.00  0.00    +0.088 C 
ATOM     10  C   UNL     1      -2.614   8.485   5.560  0.00  0.00    +0.223 C 
ATOM     11  O   UNL     1      -2.485   7.286   5.398  0.00  0.00    -0.275 OA
ATOM     12  N   UNL     1      -3.206   9.220   4.633  0.00  0.00    -0.284 N 
ATOM     13  C   UNL     1      -3.384  10.536   4.752  0.00  0.00    +0.043 A 
ATOM     14  H   UNL     1      -3.530   8.780   3.832  0.00  0.00    +0.155 HD
ENDBRANCH   1   9
BRANCH   1  15
ATOM     15  C   UNL     1       0.162   9.767   5.961  0.00  0.00    +0.205 C 
ATOM     16  N   UNL     1       1.386  10.273   6.597  0.00  0.00    -0.152 NA
ATOM     17  N   UNL     1       1.323  11.502   6.661  0.00  0.00    -0.070 NA
ATOM     18  N   UNL     1       0.142  12.014   6.123  0.00  0.00    -0.179 N 
ATOM     19  N   UNL     1      -0.632  10.977   5.664  0.00  0.00    -0.185 NA
ATOM     20  H   UNL     1      -0.095  12.953   6.080  0.00  0.00    +0.191 HD
BRANCH  19  21
ATOM     21  C   UNL     1      -0.882  11.103   4.222  0.00  0.00    +0.080 C 
ATOM     22  C   UNL     1       0.168  10.295   3.431  0.00  0.00    +0.021 C 
ATOM     23  C   UNL     1       0.451  11.162   2.179  0.00  0.00    +0.002 C 
ATOM     24  C   UNL     1       0.413  12.603   2.746  0.00  0.00    +0.002 C 
ATOM     25  C   UNL     1      -0.726  12.570   3.786  0.00  0.00    +0.021 C 
ENDBRANCH  19  21
ENDBRANCH   1  15
BRANCH   1  26
ATOM     26  N   UNL     1      -0.346   7.448   6.562  0.00  0.00    +0.389 N 
ATOM     27  H   UNL     1      -0.549   7.309   5.584  0.00  0.00    -0.081 HD
BRANCH  26  28
ATOM     28  C   UNL     1      -1.208   6.574   7.370  0.00  0.00    -0.035 C 
BRANCH  28  29
ATOM     29  C   UNL     1      -1.617   5.377   6.551  0.00  0.00    -0.027 A 
ATOM     30  C   UNL     1      -1.271   5.052   5.282  0.00  0.00    +0.009 A 
ATOM     31  C   UNL     1      -1.773   3.890   4.726  0.00  0.00    +0.008 A 
ATOM     32  C   UNL     1      -2.597   3.110   5.468  0.00  0.00    +0.045 A 
ATOM     33  S   UNL     1      -2.680   4.015   7.004  0.00  0.00    -0.103 S 
ENDBRANCH  28  29
ENDBRANCH  26  28
BRANCH  26  34
ATOM     34  C   UNL     1       1.062   7.123   6.822  0.00  0.00    -0.046 C 
BRANCH  34  35
ATOM     35  C   UNL     1       1.865   8.416   6.972  0.00  0.00    +0.102 C 
ATOM     36  C   UNL     1       3.371   8.089   7.074  0.00  0.00    +0.032 C 
ATOM     37  C   UNL     1       3.857   9.106   8.143  0.00  0.00    +0.030 C 
ATOM     38  C   UNL     1       2.613   9.182   9.063  0.00  0.00    +0.160 C 
ATOM     39  O   UNL     1       1.484   9.088   8.178  0.00  0.00    -0.378 OA
ENDBRANCH  34  35
ENDBRANCH  26  34
ENDBRANCH   1  26
TORSDOF 8
