REMARK  Name = ZINC23995905
REMARK  9 active torsions:
REMARK  status: ('A' for Active; 'I' for Inactive)
REMARK    1  A    between atoms: C_1  and  C_2
REMARK    2  A    between atoms: C_2  and  C_4
REMARK    3  A    between atoms: C_2  and  N_14
REMARK    4  A    between atoms: C_4  and  C_6
REMARK    5  A    between atoms: C_4  and  O_13
REMARK    6  A    between atoms: C_9  and  O_12
REMARK    7  A    between atoms: C_17  and  C_31
REMARK    8  A    between atoms: C_22  and  C_24
REMARK    9  A    between atoms: C_24  and  N_25
REMARK                            x       y       z     vdW  Elec       q    Type
REMARK                         _______ _______ _______ _____ _____    ______ ____
ROOT
ATOM      1  N   UNL     1      -1.279   4.300   2.150  0.00  0.00    -0.323 N 
ATOM      2  C   UNL     1      -0.952   4.225   3.492  0.00  0.00    +0.131 A 
ATOM      3  C   UNL     1       0.327   4.643   3.945  0.00  0.00    +0.056 A 
ATOM      4  C   UNL     1       1.453   5.182   3.187  0.00  0.00    +0.008 A 
ATOM      5  C   UNL     1       2.587   5.513   3.852  0.00  0.00    +0.057 A 
ATOM      6  S   UNL     1       2.200   5.130   5.549  0.00  0.00    -0.076 S 
ATOM      7  C   UNL     1       0.547   4.526   5.332  0.00  0.00    +0.114 A 
ATOM      8  N   UNL     1      -0.383   4.049   6.137  0.00  0.00    -0.223 NA
ATOM      9  C   UNL     1      -1.552   3.671   5.657  0.00  0.00    +0.146 A 
ATOM     10  N   UNL     1      -1.827   3.758   4.368  0.00  0.00    -0.216 NA
ATOM     11  H   UNL     1      -0.518   4.602   1.415  0.00  0.00    +0.148 HD
ENDROOT
BRANCH   4  12
ATOM     12  C   UNL     1       1.358   5.363   1.723  0.00  0.00    +0.021 A 
ATOM     13  C   UNL     1       1.360   6.522   0.995  0.00  0.00    +0.016 A 
ATOM     14  C   UNL     1       1.260   6.442  -0.378  0.00  0.00    +0.008 A 
ATOM     15  C   UNL     1       1.163   5.222  -0.964  0.00  0.00    +0.046 A 
ATOM     16  S   UNL     1       1.219   4.125   0.444  0.00  0.00    -0.097 S 
ENDBRANCH   4  12
BRANCH   1  18
ATOM     17  C   UNL     1      -3.260   5.205   1.037  0.00  0.00    +0.031 C 
ATOM     18  C   UNL     1      -2.637   3.978   1.707  0.00  0.00    +0.102 C 
BRANCH  18  19
ATOM     19  C   UNL     1      -2.587   2.821   0.707  0.00  0.00    +0.164 C 
BRANCH  19  20
ATOM     20  C   UNL     1      -1.937   1.625   1.354  0.00  0.00    -0.017 A 
ATOM     21  C   UNL     1      -0.559   1.540   1.420  0.00  0.00    +0.010 A 
ATOM     22  C   UNL     1       0.040   0.443   2.007  0.00  0.00    +0.046 A 
ATOM     23  C   UNL     1      -0.744  -0.575   2.532  0.00  0.00    +0.117 A 
ATOM     24  C   UNL     1      -2.127  -0.487   2.465  0.00  0.00    +0.046 A 
ATOM     25  C   UNL     1      -2.720   0.613   1.877  0.00  0.00    +0.010 A 
BRANCH  23  26
ATOM     26  O   UNL     1      -0.158  -1.656   3.110  0.00  0.00    -0.507 OA
ATOM     27  H   UNL     1      -0.780  -2.463   3.526  0.00  0.00    +0.292 HD
ENDBRANCH  23  26
ENDBRANCH  19  20
BRANCH  19  28
ATOM     28  O   UNL     1      -1.828   3.214  -0.438  0.00  0.00    -0.385 OA
ATOM     29  H   UNL     1      -1.682   2.509  -1.270  0.00  0.00    +0.210 HD
ENDBRANCH  19  28
ENDBRANCH  18  19
ENDBRANCH   1  18
BRANCH   9  30
ATOM     30  C   UNL     1      -2.595   3.129   6.599  0.00  0.00    +0.160 C 
BRANCH  30  31
ATOM     31  N   UNL     1      -2.443   1.672   6.714  0.00  0.00    -0.291 NA
ATOM     32  C   UNL     1      -2.752   1.008   5.439  0.00  0.00    +0.113 C 
ATOM     33  C   UNL     1      -2.523  -0.498   5.586  0.00  0.00    +0.175 C 
ATOM     34  O   UNL     1      -3.323  -0.994   6.664  0.00  0.00    -0.377 OA
ATOM     35  C   UNL     1      -3.046  -0.370   7.920  0.00  0.00    +0.175 C 
ATOM     36  C   UNL     1      -3.281   1.138   7.797  0.00  0.00    +0.113 C 
ENDBRANCH  30  31
ENDBRANCH   9  30
TORSDOF 8
