REMARK  Name = ZINC63619727
REMARK  7 active torsions:
REMARK  status: ('A' for Active; 'I' for Inactive)
REMARK    1  A    between atoms: C_1  and  O_2
REMARK    2  A    between atoms: O_2  and  C_3
REMARK    3  A    between atoms: C_6  and  C_9
REMARK    4  A    between atoms: C_13  and  S_23
REMARK    5  A    between atoms: N_15  and  C_16
REMARK    6  A    between atoms: S_23  and  C_24
REMARK    7  A    between atoms: C_24  and  C_25
REMARK                            x       y       z     vdW  Elec       q    Type
REMARK                         _______ _______ _______ _____ _____    ______ ____
ROOT
ATOM      1  C   UNL     1      -4.971  -2.614   0.013  0.00  0.00    +0.188 C 
ATOM      2  N   UNL     1      -6.019  -1.784  -0.636  0.00  0.00    -0.230 NA
ATOM      3  N   UNL     1      -7.029  -2.778  -1.033  0.00  0.00    -0.226 NA
ATOM      4  C   UNL     1      -6.239  -3.953  -1.465  0.00  0.00    +0.217 C 
ATOM      5  N   UNL     1      -4.928  -3.849  -0.796  0.00  0.00    -0.284 N 
ATOM      6  H   UNL     1      -5.651  -1.301  -1.442  0.00  0.00    +0.143 HD
ATOM      7  H   UNL     1      -7.630  -3.012  -0.257  0.00  0.00    +0.143 HD
ENDROOT
BRANCH   5   8
ATOM      8  C   UNL     1      -3.857  -4.740  -0.906  0.00  0.00    +0.033 A 
ATOM      9  C   UNL     1      -2.733  -4.579  -0.106  0.00  0.00    +0.024 A 
ATOM     10  C   UNL     1      -1.677  -5.462  -0.216  0.00  0.00    +0.022 A 
ATOM     11  C   UNL     1      -1.737  -6.506  -1.123  0.00  0.00    +0.041 A 
ATOM     12  C   UNL     1      -2.856  -6.668  -1.921  0.00  0.00    +0.022 A 
ATOM     13  C   UNL     1      -3.918  -5.792  -1.811  0.00  0.00    +0.024 A 
ATOM     14 CL   UNL     1      -0.407  -7.612  -1.260  0.00  0.00    -0.084 Cl
ENDBRANCH   5   8
BRANCH   1  18
ATOM     15  C   UNL     1      -1.195  -0.616  -0.107  0.00  0.00    +0.120 A 
ATOM     16  C   UNL     1      -1.839  -0.958  -1.288  0.00  0.00    +0.046 A 
ATOM     17  C   UNL     1      -3.059  -1.604  -1.246  0.00  0.00    +0.010 A 
ATOM     18  C   UNL     1      -3.639  -1.910  -0.029  0.00  0.00    -0.011 A 
ATOM     19  C   UNL     1      -3.000  -1.570   1.149  0.00  0.00    +0.010 A 
ATOM     20  C   UNL     1      -1.777  -0.929   1.113  0.00  0.00    +0.046 A 
BRANCH  15  22
ATOM     21  C   UNL     1       0.545   0.310  -1.437  0.00  0.00    +0.277 C 
ATOM     22  O   UNL     1       0.006   0.019  -0.145  0.00  0.00    -0.495 OA
ENDBRANCH  15  22
ENDBRANCH   1  18
BRANCH   4  23
ATOM     23  S   UNL     1      -7.073  -5.483  -0.961  0.00  0.00    -0.118 S 
BRANCH  23  24
ATOM     24  C   UNL     1      -7.204  -5.337   0.843  0.00  0.00    +0.119 C 
BRANCH  24  25
ATOM     25  C   UNL     1      -7.898  -6.579   1.405  0.00  0.00    +0.184 C 
ATOM     26  N   UNL     1      -7.165  -7.788   1.012  0.00  0.00    -0.363 N 
ATOM     27  C   UNL     1      -7.974  -8.523   0.305  0.00  0.00    +0.060 A 
ATOM     28  C   UNL     1      -7.819  -9.826  -0.355  0.00  0.00    +0.027 A 
ATOM     29  C   UNL     1      -8.857 -10.355  -1.034  0.00  0.00    +0.002 A 
ATOM     30  C   UNL     1     -10.101  -9.708  -1.142  0.00  0.00    +0.002 A 
ATOM     31  C   UNL     1     -10.349  -8.510  -0.575  0.00  0.00    +0.027 A 
ATOM     32  C   UNL     1      -9.290  -7.838   0.192  0.00  0.00    +0.060 A 
ATOM     33  N   UNL     1      -9.244  -6.706   0.833  0.00  0.00    -0.363 N 
ATOM     34  H   UNL     1      -6.245  -8.001   1.238  0.00  0.00    +0.162 HD
ATOM     35  H   UNL     1      -9.967  -6.065   0.917  0.00  0.00    +0.162 HD
ENDBRANCH  24  25
ENDBRANCH  23  24
ENDBRANCH   4  23
TORSDOF 6
