REMARK  Name = ZINC39687936
REMARK  8 active torsions:
REMARK  status: ('A' for Active; 'I' for Inactive)
REMARK    1  A    between atoms: C_1  and  C_2
REMARK    2  A    between atoms: C_7  and  N_10
REMARK    3  A    between atoms: C_11  and  C_13
REMARK    4  A    between atoms: C_24  and  C_26
REMARK    5  A    between atoms: C_29  and  O_34
REMARK    6  A    between atoms: C_31  and  O_32
REMARK    7  A    between atoms: O_32  and  C_33
REMARK    8  A    between atoms: O_34  and  C_35
REMARK                            x       y       z     vdW  Elec       q    Type
REMARK                         _______ _______ _______ _____ _____    ______ ____
ROOT
ATOM      1  C   UNL     1      -5.725  -4.214   3.203  0.00  0.00    +0.100 C 
ATOM      2  C   UNL     1      -4.839  -4.616   4.404  0.00  0.00    +0.121 C 
ATOM      3  N   UNL     1      -5.493  -5.822   4.964  0.00  0.00    -0.296 N 
ATOM      4  C   UNL     1      -5.941  -6.585   3.774  0.00  0.00    +0.115 C 
ATOM      5  C   UNL     1      -6.446  -5.509   2.792  0.00  0.00    -0.004 C 
ATOM      6  C   UNL     1      -6.078  -5.888   1.361  0.00  0.00    -0.010 C 
ATOM      7  C   UNL     1      -6.851  -7.145   0.955  0.00  0.00    -0.082 C 
ATOM      8  N   UNL     1      -8.293  -6.891   1.061  0.00  0.00    +0.379 N 
ATOM      9  C   UNL     1      -8.653  -6.619   2.458  0.00  0.00    -0.082 C 
ATOM     10  C   UNL     1      -7.956  -5.339   2.927  0.00  0.00    -0.010 C 
ATOM     11  C   UNL     1      -5.646  -6.151   6.262  0.00  0.00    +0.250 C 
ATOM     12  O   UNL     1      -5.309  -5.370   7.131  0.00  0.00    -0.270 OA
ATOM     13  H   UNL     1      -8.535  -6.094   0.491  0.00  0.00    -0.086 HD
ATOM     14  H   UNL     1      -8.801  -7.700   0.735  0.00  0.00    -0.086 HD
ENDROOT
BRANCH  11  15
ATOM     15  C   UNL     1      -6.222  -7.457   6.628  0.00  0.00    +0.079 A 
ATOM     16  C   UNL     1      -5.955  -8.586   5.847  0.00  0.00    +0.020 A 
ATOM     17  C   UNL     1      -6.494  -9.803   6.193  0.00  0.00    +0.046 A 
ATOM     18  C   UNL     1      -7.306  -9.916   7.317  0.00  0.00    +0.124 A 
ATOM     19  C   UNL     1      -7.578  -8.803   8.098  0.00  0.00    +0.092 A 
ATOM     20  C   UNL     1      -7.037  -7.573   7.764  0.00  0.00    +0.136 A 
BRANCH  20  21
ATOM     21  O   UNL     1      -7.297  -6.484   8.530  0.00  0.00    -0.494 OA
ATOM     22  C   UNL     1      -8.134  -6.679   9.672  0.00  0.00    +0.277 C 
ENDBRANCH  20  21
BRANCH  18  23
ATOM     23  O   UNL     1      -7.835 -11.121   7.650  0.00  0.00    -0.495 OA
ATOM     24  C   UNL     1      -7.515 -12.226   6.803  0.00  0.00    +0.277 C 
ENDBRANCH  18  23
ENDBRANCH  11  15
BRANCH   1  26
ATOM     25  N   UNL     1      -5.418  -2.930   1.111  0.00  0.00    -0.312 N 
ATOM     26  C   UNL     1      -4.873  -3.706   2.069  0.00  0.00    +0.218 C 
ATOM     27  O   UNL     1      -3.696  -3.994   2.018  0.00  0.00    -0.275 OA
ATOM     28  H   UNL     1      -6.360  -2.699   1.152  0.00  0.00    +0.149 HD
BRANCH  25  35
ATOM     29  C   UNL     1      -4.677   0.779  -3.834  0.00  0.00    +0.109 C 
ATOM     30  C   UNL     1      -3.827   0.648  -2.596  0.00  0.00    +0.212 C 
ATOM     31  O   UNL     1      -3.162   1.587  -2.214  0.00  0.00    -0.276 OA
ATOM     32  N   UNL     1      -3.807  -0.514  -1.913  0.00  0.00    -0.302 N 
ATOM     33  C   UNL     1      -4.602  -1.663  -2.366  0.00  0.00    +0.109 C 
ATOM     34  C   UNL     1      -5.476  -2.147  -1.205  0.00  0.00    +0.041 C 
ATOM     35  C   UNL     1      -4.590  -2.436   0.009  0.00  0.00    +0.076 C 
ATOM     36  C   UNL     1      -3.880  -1.151   0.441  0.00  0.00    +0.041 C 
ATOM     37  C   UNL     1      -2.983  -0.658  -0.705  0.00  0.00    +0.109 C 
ENDBRANCH  25  35
ENDBRANCH   1  26
TORSDOF 5
