REMARK  Name = ZINC40903029
REMARK  6 active torsions:
REMARK  status: ('A' for Active; 'I' for Inactive)
REMARK    1  A    between atoms: C_1  and  C_2
REMARK    2  A    between atoms: C_4  and  C_7
REMARK    3  A    between atoms: C_10  and  N_14
REMARK    4  A    between atoms: C_17  and  C_20
REMARK    5  A    between atoms: N_22  and  C_23
REMARK    6  A    between atoms: C_23  and  C_24
REMARK                            x       y       z     vdW  Elec       q    Type
REMARK                         _______ _______ _______ _____ _____    ______ ____
ROOT
ATOM      1  C   UNL     1      -1.571  -3.241  -0.008  0.00  0.00    +0.025 A 
ATOM      2  C   UNL     1      -2.953  -3.053  -0.006  0.00  0.00    +0.013 A 
ATOM      3  C   UNL     1      -3.797  -4.142  -0.008  0.00  0.00    +0.027 A 
ATOM      4  C   UNL     1      -3.273  -5.429  -0.012  0.00  0.00    +0.065 A 
ATOM      5  C   UNL     1      -1.894  -5.621  -0.014  0.00  0.00    +0.145 A 
ATOM      6  C   UNL     1      -1.046  -4.532  -0.017  0.00  0.00    +0.052 A 
ATOM      7  F   UNL     1      -1.386  -6.873  -0.017  0.00  0.00    -0.204 F 
ENDROOT
BRANCH   1  11
ATOM      8  C   UNL     1      -0.018   1.503   0.010  0.00  0.00    +0.112 C 
ATOM      9  C   UNL     1       0.002  -0.004   0.002  0.00  0.00    +0.225 A 
ATOM     10  N   UNL     1      -1.044  -0.779   0.003  0.00  0.00    -0.192 NA
ATOM     11  C   UNL     1      -0.662  -2.069  -0.006  0.00  0.00    +0.202 A 
ATOM     12  N   UNL     1       0.647  -2.118  -0.012  0.00  0.00    -0.056 NA
ATOM     13  O   UNL     1       1.099  -0.772  -0.013  0.00  0.00    -0.338 OA
ENDBRANCH   1  11
BRANCH   4  14
ATOM     14  N   UNL     1      -4.130  -6.531  -0.013  0.00  0.00    -0.328 N 
ATOM     15  C   UNL     1      -4.592  -7.121   1.251  0.00  0.00    +0.106 C 
ATOM     16  C   UNL     1      -4.280  -8.621   1.238  0.00  0.00    +0.031 C 
ATOM     17  C   UNL     1      -4.892  -9.255  -0.013  0.00  0.00    +0.078 C 
ATOM     18  C   UNL     1      -4.274  -8.623  -1.262  0.00  0.00    +0.031 C 
ATOM     19  C   UNL     1      -4.591  -7.120  -1.278  0.00  0.00    +0.106 C 
BRANCH  17  20
ATOM     20  C   UNL     1      -4.616 -10.737  -0.011  0.00  0.00    +0.216 C 
ATOM     21  O   UNL     1      -3.991 -11.236   0.900  0.00  0.00    -0.276 OA
ATOM     22  N   UNL     1      -5.063 -11.507  -1.023  0.00  0.00    -0.312 N 
ATOM     23  H   UNL     1      -5.563 -11.107  -1.752  0.00  0.00    +0.149 HD
BRANCH  22  24
ATOM     24  C   UNL     1      -4.795 -12.947  -1.021  0.00  0.00    +0.131 C 
BRANCH  24  25
ATOM     25  C   UNL     1      -5.397 -13.572  -2.253  0.00  0.00    -0.016 C 
ATOM     26  C   UNL     1      -4.648 -14.279  -3.062  0.00  0.00    +0.005 C 
ENDBRANCH  24  25
ENDBRANCH  22  24
ENDBRANCH  17  20
ENDBRANCH   4  14
TORSDOF 5
