REMARK  Name = ZINC06812261
REMARK  9 active torsions:
REMARK  status: ('A' for Active; 'I' for Inactive)
REMARK    1  A    between atoms: C_1  and  C_2
REMARK    2  A    between atoms: C_2  and  C_3
REMARK    3  A    between atoms: C_3  and  C_4
REMARK    4  A    between atoms: C_10  and  C_26
REMARK    5  A    between atoms: C_12  and  C_15
REMARK    6  A    between atoms: N_17  and  C_18
REMARK    7  A    between atoms: C_21  and  C_25
REMARK    8  A    between atoms: C_23  and  C_24
REMARK    9  A    between atoms: C_29  and  C_32
REMARK                            x       y       z     vdW  Elec       q    Type
REMARK                         _______ _______ _______ _____ _____    ______ ____
ROOT
ATOM      1  C   UNL     1      -2.688  -3.550   1.966  0.00  0.00    +0.151 A 
ATOM      2  N   UNL     1      -3.830  -4.079   1.620  0.00  0.00    -0.132 NA
ATOM      3  N   UNL     1      -4.209  -3.608   0.482  0.00  0.00    -0.121 NA
ATOM      4  C   UNL     1      -3.324  -2.754   0.049  0.00  0.00    +0.209 A 
ATOM      5  N   UNL     1      -2.320  -2.689   0.973  0.00  0.00    -0.225 N 
ATOM      6  N   UNL     1      -1.194  -1.933   0.906  0.00  0.00    -0.272 N 
ATOM      7  C   UNL     1      -1.309  -0.783   0.009  0.00  0.00    +0.140 C 
ATOM      8  C   UNL     1      -1.628  -1.245  -1.419  0.00  0.00    +0.166 C 
ATOM      9  S   UNL     1      -3.355  -1.816  -1.447  0.00  0.00    -0.069 S 
ATOM     10  H   UNL     1      -0.392  -2.499   0.667  0.00  0.00    +0.167 HD
ENDROOT
BRANCH   7  11
ATOM     11  C   UNL     1      -0.009  -0.020   0.007  0.00  0.00    -0.024 A 
ATOM     12  C   UNL     1      -0.019   1.362   0.018  0.00  0.00    +0.006 A 
ATOM     13  C   UNL     1       1.174   2.062   0.016  0.00  0.00    +0.004 A 
ATOM     14  C   UNL     1       2.376   1.379   0.002  0.00  0.00    -0.050 A 
ATOM     15  C   UNL     1       2.385  -0.004  -0.008  0.00  0.00    +0.004 A 
ATOM     16  C   UNL     1       1.192  -0.703  -0.006  0.00  0.00    +0.006 A 
ATOM     17  C   UNL     1       3.675   2.141  -0.001  0.00  0.00    +0.044 C 
ENDBRANCH   7  11
BRANCH   8  18
ATOM     18  C   UNL     1      -1.456  -0.095  -2.378  0.00  0.00    +0.233 C 
ATOM     19  O   UNL     1      -1.651   1.042  -2.003  0.00  0.00    -0.274 OA
ATOM     20  N   UNL     1      -1.085  -0.331  -3.652  0.00  0.00    -0.284 N 
ATOM     21  H   UNL     1      -0.851  -1.230  -3.931  0.00  0.00    +0.155 HD
BRANCH  20  22
ATOM     22  C   UNL     1      -1.036   0.722  -4.572  0.00  0.00    +0.036 A 
ATOM     23  C   UNL     1      -1.819   1.853  -4.378  0.00  0.00    +0.024 A 
ATOM     24  C   UNL     1      -1.765   2.893  -5.285  0.00  0.00    +0.005 A 
ATOM     25  C   UNL     1      -0.940   2.804  -6.392  0.00  0.00    -0.050 A 
ATOM     26  C   UNL     1      -0.164   1.677  -6.592  0.00  0.00    +0.008 A 
ATOM     27  C   UNL     1      -0.210   0.636  -5.685  0.00  0.00    -0.029 A 
ATOM     28  C   UNL     1       0.636  -0.592  -5.903  0.00  0.00    +0.045 C 
ATOM     29  C   UNL     1      -0.888   3.938  -7.383  0.00  0.00    +0.044 C 
ENDBRANCH  20  22
ENDBRANCH   8  18
BRANCH   1  30
ATOM     30  C   UNL     1      -1.918  -3.838   3.230  0.00  0.00    +0.078 C 
BRANCH  30  32
ATOM     31  C   UNL     1      -1.574  -3.156   5.609  0.00  0.00    +0.004 C 
ATOM     32  C   UNL     1      -2.356  -2.864   4.326  0.00  0.00    +0.004 C 
ENDBRANCH  30  32
ENDBRANCH   1  30
TORSDOF 5
