REMARK  Name = ZINC00673750
REMARK  8 active torsions:
REMARK  status: ('A' for Active; 'I' for Inactive)
REMARK    1  A    between atoms: C_1  and  C_2
REMARK    2  A    between atoms: C_4  and  C_26
REMARK    3  A    between atoms: C_5  and  N_9
REMARK    4  A    between atoms: C_6  and  C_8
REMARK    5  A    between atoms: N_9  and  S_10
REMARK    6  A    between atoms: S_10  and  C_13
REMARK    7  A    between atoms: C_16  and  N_19
REMARK    8  A    between atoms: C_20  and  C_22
REMARK                            x       y       z     vdW  Elec       q    Type
REMARK                         _______ _______ _______ _____ _____    ______ ____
ROOT
ATOM      1  S   UNL     1      -5.081   3.728   0.190  0.00  0.00    +0.072 S 
ATOM      2  O   UNL     1      -4.586   4.785  -0.620  0.00  0.00    -0.150 OA
ATOM      3  O   UNL     1      -6.218   2.957  -0.174  0.00  0.00    -0.150 OA
ENDROOT
BRANCH   1   4
ATOM      4  C   UNL     1      -3.751   2.592   0.405  0.00  0.00    +0.109 A 
ATOM      5  C   UNL     1      -4.015   1.251   0.610  0.00  0.00    +0.030 A 
ATOM      6  C   UNL     1      -2.974   0.358   0.778  0.00  0.00    +0.025 A 
ATOM      7  C   UNL     1      -1.661   0.810   0.742  0.00  0.00    +0.034 A 
ATOM      8  C   UNL     1      -1.400   2.159   0.542  0.00  0.00    +0.025 A 
ATOM      9  C   UNL     1      -2.445   3.046   0.369  0.00  0.00    +0.030 A 
BRANCH   7  10
ATOM     10  N   UNL     1      -0.605  -0.091   0.911  0.00  0.00    -0.278 N 
ATOM     11  C   UNL     1       0.557   0.102   0.257  0.00  0.00    +0.321 C 
ATOM     12  O   UNL     1       0.654   0.995  -0.557  0.00  0.00    -0.266 OA
ATOM     13  H   UNL     1      -0.710  -0.858   1.497  0.00  0.00    +0.155 HD
BRANCH  11  14
ATOM     14  C   UNL     1       1.738  -0.793   0.537  0.00  0.00    +0.470 C 
ATOM     15  F   UNL     1       2.820  -0.399  -0.257  0.00  0.00    -0.162 F 
ATOM     16  F   UNL     1       2.089  -0.691   1.888  0.00  0.00    -0.162 F 
ATOM     17  F   UNL     1       1.399  -2.118   0.242  0.00  0.00    -0.162 F 
ENDBRANCH  11  14
ENDBRANCH   7  10
ENDBRANCH   1   4
BRANCH   1  18
ATOM     18  N   UNL     1      -5.410   4.383   1.675  0.00  0.00    -0.216 N 
ATOM     19  H   UNL     1      -6.241   4.169   2.127  0.00  0.00    +0.174 HD
BRANCH  18  24
ATOM     20  C   UNL     1      -1.678   7.885   4.119  0.00  0.00    +0.044 C 
ATOM     21  C   UNL     1      -2.670   6.954   3.469  0.00  0.00    -0.050 A 
ATOM     22  C   UNL     1      -3.449   7.401   2.417  0.00  0.00    +0.008 A 
ATOM     23  C   UNL     1      -4.359   6.551   1.820  0.00  0.00    -0.028 A 
ATOM     24  C   UNL     1      -4.491   5.246   2.277  0.00  0.00    +0.054 A 
ATOM     25  C   UNL     1      -3.711   4.802   3.337  0.00  0.00    -0.028 A 
ATOM     26  C   UNL     1      -2.799   5.656   3.926  0.00  0.00    +0.008 A 
ATOM     27  C   UNL     1      -3.855   3.389   3.840  0.00  0.00    +0.046 C 
ATOM     28  C   UNL     1      -5.207   7.039   0.674  0.00  0.00    +0.046 C 
ENDBRANCH  18  24
ENDBRANCH   1  18
TORSDOF 5
