REMARK  Name = ZINC18017162
REMARK  13 active torsions:
REMARK  status: ('A' for Active; 'I' for Inactive)
REMARK    1  A    between atoms: C_1  and  C_2
REMARK    2  A    between atoms: C_2  and  C_3
REMARK    3  A    between atoms: C_6  and  C_9
REMARK    4  A    between atoms: C_9  and  C_11
REMARK    5  A    between atoms: C_9  and  N_63
REMARK    6  A    between atoms: C_11  and  N_12
REMARK    7  A    between atoms: C_13  and  C_15
REMARK    8  A    between atoms: C_18  and  N_21
REMARK    9  A    between atoms: N_21  and  S_22
REMARK   10  A    between atoms: S_22  and  C_25
REMARK   11  A    between atoms: C_29  and  N_31
REMARK   12  A    between atoms: C_34  and  N_63
REMARK   13  A    between atoms: C_35  and  N_63
REMARK                            x       y       z     vdW  Elec       q    Type
REMARK                         _______ _______ _______ _____ _____    ______ ____
ROOT
ATOM      1  C   UNL     1      -2.782   4.177  -3.091  0.00  0.00    +0.037 A 
ATOM      2  C   UNL     1      -2.060   5.323  -2.745  0.00  0.00    +0.015 A 
ATOM      3  C   UNL     1      -1.083   5.253  -1.778  0.00  0.00    +0.025 A 
ATOM      4  C   UNL     1      -0.814   4.043  -1.145  0.00  0.00    +0.048 A 
ATOM      5  C   UNL     1      -1.528   2.899  -1.491  0.00  0.00    +0.025 A 
ATOM      6  C   UNL     1      -2.510   2.963  -2.453  0.00  0.00    +0.015 A 
ENDROOT
BRANCH   1   8
ATOM      7  N   UNL     1      -4.526   3.142  -4.459  0.00  0.00    -0.313 N 
ATOM      8  C   UNL     1      -3.830   4.248  -4.127  0.00  0.00    +0.244 C 
ATOM      9  O   UNL     1      -4.067   5.304  -4.681  0.00  0.00    -0.270 OA
ATOM     10  H   UNL     1      -4.337   2.300  -4.017  0.00  0.00    +0.149 HD
BRANCH   7  11
ATOM     11  C   UNL     1      -5.567   3.213  -5.487  0.00  0.00    +0.094 C 
BRANCH  11  12
ATOM     12  C   UNL     1      -6.118   1.811  -5.753  0.00  0.00    -0.021 C 
BRANCH  12  16
ATOM     13  C   UNL     1      -9.457   2.070  -8.404  0.00  0.00    -0.048 A 
ATOM     14  C   UNL     1      -8.411   1.213  -8.691  0.00  0.00    +0.004 A 
ATOM     15  C   UNL     1      -7.331   1.129  -7.833  0.00  0.00    +0.002 A 
ATOM     16  C   UNL     1      -7.296   1.902  -6.688  0.00  0.00    -0.059 A 
ATOM     17  C   UNL     1      -8.344   2.756  -6.398  0.00  0.00    +0.002 A 
ATOM     18  C   UNL     1      -9.422   2.844  -7.259  0.00  0.00    +0.004 A 
BRANCH  13  20
ATOM     19  C   UNL     1     -11.696   1.140  -8.924  0.00  0.00    +0.009 C 
ATOM     20  C   UNL     1     -10.635   2.161  -9.339  0.00  0.00    +0.032 C 
ENDBRANCH  13  20
ENDBRANCH  12  16
BRANCH  12  23
ATOM     21  C   UNL     1      -7.444   2.104  -3.748  0.00  0.00    -0.096 C 
ATOM     22  C   UNL     1      -7.179  -0.101  -4.712  0.00  0.00    -0.096 C 
ATOM     23  N   UNL     1      -6.522   1.201  -4.468  0.00  0.00    +0.382 N 
ATOM     24  H   UNL     1      -5.686   1.050  -3.893  0.00  0.00    -0.082 HD
ENDBRANCH  12  23
ENDBRANCH  11  12
ENDBRANCH   7  11
ENDBRANCH   1   8
BRANCH   4  25
ATOM     25  N   UNL     1       0.173   3.976  -0.168  0.00  0.00    -0.216 N 
ATOM     26  H   UNL     1       0.813   3.247  -0.174  0.00  0.00    +0.174 HD
BRANCH  25  27
ATOM     27  S   UNL     1       0.258   5.141   1.006  0.00  0.00    +0.072 S 
ATOM     28  O   UNL     1       0.190   6.394   0.339  0.00  0.00    -0.150 OA
ATOM     29  O   UNL     1       1.342   4.786   1.853  0.00  0.00    -0.150 OA
BRANCH  27  30
ATOM     30  C   UNL     1      -1.206   5.008   1.978  0.00  0.00    +0.111 A 
ATOM     31  C   UNL     1      -1.263   4.101   3.020  0.00  0.00    +0.029 A 
ATOM     32  C   UNL     1      -2.411   3.996   3.782  0.00  0.00    +0.004 A 
ATOM     33  C   UNL     1      -3.502   4.798   3.503  0.00  0.00    +0.033 A 
ATOM     34  C   UNL     1      -3.446   5.701   2.459  0.00  0.00    +0.128 A 
ATOM     35  C   UNL     1      -2.296   5.810   1.699  0.00  0.00    +0.061 A 
BRANCH  34  36
ATOM     36  N   UNL     1      -4.617   6.556   2.156  0.00  0.00    +0.056 N 
ATOM     37  O   UNL     1      -5.628   6.464   2.828  0.00  0.00    -0.126 OA
ATOM     38  O   UNL     1      -4.567   7.352   1.236  0.00  0.00    -0.126 OA
ENDBRANCH  34  36
ENDBRANCH  27  30
ENDBRANCH  25  27
ENDBRANCH   4  25
TORSDOF 10
