REMARK  Name = ZINC12275245
REMARK  11 active torsions:
REMARK  status: ('A' for Active; 'I' for Inactive)
REMARK    1  A    between atoms: C_1  and  C_2
REMARK    2  A    between atoms: C_2  and  O_3
REMARK    3  A    between atoms: O_3  and  C_4
REMARK    4  A    between atoms: C_7  and  C_10
REMARK    5  A    between atoms: C_10  and  O_33
REMARK    6  A    between atoms: C_14  and  C_31
REMARK    7  A    between atoms: C_15  and  C_21
REMARK    8  A    between atoms: C_24  and  O_30
REMARK    9  A    between atoms: C_25  and  O_27
REMARK   10  A    between atoms: O_27  and  C_28
REMARK   11  A    between atoms: C_28  and  C_29
REMARK                            x       y       z     vdW  Elec       q    Type
REMARK                         _______ _______ _______ _____ _____    ______ ____
ROOT
ATOM      1  C   UNL     1      -1.631   3.486   2.522  0.00  0.00    +0.175 C 
ATOM      2  C   UNL     1      -1.964   4.980   2.363  0.00  0.00    +0.136 C 
ATOM      3  S   UNL     1      -1.732   5.211   0.560  0.00  0.00    -0.104 S 
ATOM      4  C   UNL     1      -1.271   3.561   0.117  0.00  0.00    +0.087 C 
ATOM      5  C   UNL     1      -1.029   3.060  -1.120  0.00  0.00    +0.065 C 
ATOM      6  C   UNL     1      -0.732   1.582  -1.243  0.00  0.00    +0.071 C 
ATOM      7  C   UNL     1      -0.013   1.086   0.008  0.00  0.00    +0.110 C 
ATOM      8  C   UNL     1      -0.699   1.562   1.260  0.00  0.00    +0.224 C 
ATOM      9  O   UNL     1      -0.806   0.830   2.220  0.00  0.00    -0.275 OA
ATOM     10  N   UNL     1      -1.198   2.836   1.297  0.00  0.00    -0.231 N 
ENDROOT
BRANCH   1  14
ATOM     11  C   UNL     1       1.467   3.088   5.438  0.00  0.00    +0.121 A 
ATOM     12  C   UNL     1       0.140   3.160   5.839  0.00  0.00    +0.046 A 
ATOM     13  C   UNL     1      -0.859   3.289   4.894  0.00  0.00    +0.012 A 
ATOM     14  C   UNL     1      -0.539   3.346   3.550  0.00  0.00    +0.004 A 
ATOM     15  C   UNL     1       0.782   3.268   3.148  0.00  0.00    +0.012 A 
ATOM     16  C   UNL     1       1.786   3.146   4.090  0.00  0.00    +0.046 A 
BRANCH  11  17
ATOM     17  O   UNL     1       2.452   2.961   6.366  0.00  0.00    -0.492 OA
BRANCH  17  19
ATOM     18  C   UNL     1       4.757   2.751   7.062  0.00  0.00    +0.048 C 
ATOM     19  C   UNL     1       3.794   2.892   5.881  0.00  0.00    +0.225 C 
ENDBRANCH  17  19
ENDBRANCH  11  17
ENDBRANCH   1  14
BRANCH   6  20
ATOM     20  C   UNL     1      -2.026   0.827  -1.407  0.00  0.00    -0.035 A 
ATOM     21  C   UNL     1      -2.990   0.887  -0.418  0.00  0.00    +0.008 A 
ATOM     22  C   UNL     1      -4.179   0.196  -0.565  0.00  0.00    +0.049 A 
ATOM     23  C   UNL     1      -4.406  -0.558  -1.705  0.00  0.00    +0.158 A 
ATOM     24  C   UNL     1      -3.436  -0.618  -2.701  0.00  0.00    +0.162 A 
ATOM     25  C   UNL     1      -2.249   0.081  -2.550  0.00  0.00    +0.053 A 
BRANCH  23  26
ATOM     26  O   UNL     1      -5.575  -1.238  -1.851  0.00  0.00    -0.503 OA
ATOM     27  H   UNL     1      -6.273  -0.730  -2.287  0.00  0.00    +0.292 HD
ENDBRANCH  23  26
BRANCH  24  28
ATOM     28  O   UNL     1      -3.654  -1.356  -3.822  0.00  0.00    -0.489 OA
BRANCH  28  29
ATOM     29  C   UNL     1      -2.614  -1.371  -4.801  0.00  0.00    +0.226 C 
ATOM     30  C   UNL     1      -3.037  -2.248  -5.981  0.00  0.00    +0.048 C 
ENDBRANCH  28  29
ENDBRANCH  24  28
ENDBRANCH   6  20
BRANCH   5  31
ATOM     31  C   UNL     1      -1.054   3.905  -2.275  0.00  0.00    +0.098 C 
ATOM     32  N   UNL     1      -1.074   4.576  -3.192  0.00  0.00    -0.191 NA
ENDBRANCH   5  31
BRANCH   1  33
ATOM     33  O   UNL     1      -2.793   2.811   3.008  0.00  0.00    -0.366 OA
ATOM     34  H   UNL     1      -3.150   3.182   3.826  0.00  0.00    +0.212 HD
ENDBRANCH   1  33
TORSDOF 9
