REMARK  Name = ZINC39388867
REMARK  10 active torsions:
REMARK  status: ('A' for Active; 'I' for Inactive)
REMARK    1  A    between atoms: C_1  and  C_2
REMARK    2  A    between atoms: C_2  and  C_3
REMARK    3  A    between atoms: C_2  and  N_4
REMARK    4  A    between atoms: C_5  and  C_7
REMARK    5  A    between atoms: C_11  and  N_12
REMARK    6  A    between atoms: C_13  and  C_15
REMARK    7  A    between atoms: C_23  and  C_27
REMARK    8  A    between atoms: C_27  and  C_28
REMARK    9  A    between atoms: C_27  and  C_29
REMARK   10  A    between atoms: C_27  and  C_30
REMARK                            x       y       z     vdW  Elec       q    Type
REMARK                         _______ _______ _______ _____ _____    ______ ____
ROOT
ATOM      1  C   UNL     1      -3.426  -1.150  -1.134  0.00  0.00    +0.069 A 
ATOM      2  C   UNL     1      -4.563  -0.254  -1.016  0.00  0.00    -0.023 A 
ATOM      3  C   UNL     1      -5.761  -0.876  -1.022  0.00  0.00    -0.004 A 
ATOM      4  S   UNL     1      -5.373  -2.595  -1.180  0.00  0.00    -0.077 S 
ATOM      5  C   UNL     1      -3.697  -2.506  -1.243  0.00  0.00    +0.085 A 
ATOM      6  C   UNL     1      -7.110  -0.234  -0.919  0.00  0.00    +0.046 C 
ATOM      7  C   UNL     1      -6.948   1.270  -1.183  0.00  0.00    -0.000 C 
ATOM      8  C   UNL     1      -5.782   1.799  -0.344  0.00  0.00    +0.009 C 
ATOM      9  C   UNL     1      -4.459   1.260  -0.892  0.00  0.00    +0.037 C 
ENDROOT
BRANCH   1  11
ATOM     10  N   UNL     1      -1.372  -0.511   0.012  0.00  0.00    -0.309 N 
ATOM     11  C   UNL     1      -2.051  -0.643  -1.145  0.00  0.00    +0.247 C 
ATOM     12  O   UNL     1      -1.522  -0.340  -2.198  0.00  0.00    -0.270 OA
ATOM     13  H   UNL     1      -1.794  -0.752   0.852  0.00  0.00    +0.149 HD
BRANCH  10  15
ATOM     14  C   UNL     1      -0.019   1.526   0.010  0.00  0.00    +0.027 C 
ATOM     15  C   UNL     1       0.002  -0.004   0.002  0.00  0.00    +0.067 C 
ATOM     16  C   UNL     1       0.742  -0.511   1.242  0.00  0.00    +0.027 C 
ENDBRANCH  10  15
ENDBRANCH   1  11
BRANCH   5  17
ATOM     17  N   UNL     1      -2.792  -3.547  -1.370  0.00  0.00    -0.275 N 
ATOM     18  C   UNL     1      -3.236  -4.817  -1.464  0.00  0.00    +0.249 C 
ATOM     19  O   UNL     1      -4.429  -5.048  -1.437  0.00  0.00    -0.270 OA
ATOM     20  H   UNL     1      -1.840  -3.363  -1.392  0.00  0.00    +0.156 HD
BRANCH  18  21
ATOM     21  C   UNL     1      -2.271  -5.928  -1.601  0.00  0.00    +0.038 A 
ATOM     22  C   UNL     1      -0.899  -5.667  -1.627  0.00  0.00    +0.013 A 
ATOM     23  C   UNL     1      -0.004  -6.708  -1.754  0.00  0.00    +0.002 A 
ATOM     24  C   UNL     1      -0.462  -8.010  -1.855  0.00  0.00    +0.015 A 
ATOM     25  C   UNL     1      -1.820  -8.276  -1.831  0.00  0.00    +0.019 A 
ATOM     26  C   UNL     1      -2.726  -7.244  -1.698  0.00  0.00    +0.028 A 
ATOM     27 BR   UNL     1      -2.434 -10.059  -1.971  0.00  0.00    -0.050 Br
ENDBRANCH  18  21
ENDBRANCH   5  17
BRANCH   7  28
ATOM     28  C   UNL     1      -8.235   2.000  -0.793  0.00  0.00    -0.035 C 
ATOM     29  C   UNL     1      -8.521   1.772   0.693  0.00  0.00    +0.011 C 
ATOM     30  C   UNL     1      -8.072   3.498  -1.057  0.00  0.00    +0.011 C 
ATOM     31  C   UNL     1      -9.400   1.460  -1.625  0.00  0.00    +0.011 C 
ENDBRANCH   7  28
TORSDOF 5
