REMARK  Name = ZINC10125299
REMARK  9 active torsions:
REMARK  status: ('A' for Active; 'I' for Inactive)
REMARK    1  A    between atoms: C_1  and  C_2
REMARK    2  A    between atoms: C_2  and  C_3
REMARK    3  A    between atoms: C_2  and  C_4
REMARK    4  A    between atoms: C_4  and  C_6
REMARK    5  A    between atoms: C_4  and  N_24
REMARK    6  A    between atoms: N_8  and  N_9
REMARK    7  A    between atoms: C_10  and  C_12
REMARK    8  A    between atoms: C_15  and  C_17
REMARK    9  A    between atoms: C_25  and  C_27
REMARK                            x       y       z     vdW  Elec       q    Type
REMARK                         _______ _______ _______ _____ _____    ______ ____
ROOT
ATOM      1  C   UNL     1      -0.527   1.464  -0.244  0.00  0.00    +0.250 C 
ATOM      2  O   UNL     1       0.198   2.435  -0.226  0.00  0.00    -0.272 OA
ATOM      3  N   UNL     1      -1.864   1.622  -0.310  0.00  0.00    -0.233 N 
ATOM      4  H   UNL     1      -2.447   0.849  -0.256  0.00  0.00    +0.173 HD
ENDROOT
BRANCH   3   5
ATOM      5  N   UNL     1      -2.411   2.903  -0.455  0.00  0.00    -0.230 N 
ATOM      6  C   UNL     1      -3.748   3.062  -0.520  0.00  0.00    +0.267 C 
ATOM      7  O   UNL     1      -4.480   2.091  -0.453  0.00  0.00    -0.268 OA
ATOM      8  H   UNL     1      -1.828   3.677  -0.508  0.00  0.00    +0.173 HD
BRANCH   6   9
ATOM      9  C   UNL     1      -4.320   4.401  -0.672  0.00  0.00    +0.076 A 
ATOM     10  C   UNL     1      -5.653   4.775  -0.764  0.00  0.00    +0.021 A 
ATOM     11  C   UNL     1      -5.956   6.101  -0.898  0.00  0.00    +0.017 A 
ATOM     12  C   UNL     1      -4.919   7.019  -0.949  0.00  0.00    +0.020 A 
ATOM     13  S   UNL     1      -3.481   5.972  -0.794  0.00  0.00    -0.084 S 
BRANCH  12  14
ATOM     14  C   UNL     1      -4.987   8.488  -1.095  0.00  0.00    -0.011 A 
ATOM     15  C   UNL     1      -6.224   9.124  -1.208  0.00  0.00    +0.012 A 
ATOM     16  C   UNL     1      -6.282  10.496  -1.339  0.00  0.00    +0.039 A 
ATOM     17  C   UNL     1      -5.114  11.241  -1.368  0.00  0.00    +0.123 A 
ATOM     18  C   UNL     1      -3.882  10.614  -1.262  0.00  0.00    +0.039 A 
ATOM     19  C   UNL     1      -3.813   9.243  -1.125  0.00  0.00    +0.012 A 
ATOM     20  F   UNL     1      -5.175  12.584  -1.502  0.00  0.00    -0.205 F 
ENDBRANCH  12  14
ENDBRANCH   6   9
ENDBRANCH   3   5
BRANCH   1  21
ATOM     21  C   UNL     1       0.066   0.079  -0.199  0.00  0.00    +0.163 C 
BRANCH  21  22
ATOM     22  N   UNL     1       1.479   0.141  -0.581  0.00  0.00    -0.303 N 
ATOM     23  C   UNL     1       2.086  -0.946  -1.098  0.00  0.00    +0.217 C 
ATOM     24  O   UNL     1       1.462  -1.975  -1.248  0.00  0.00    -0.275 OA
ATOM     25  H   UNL     1       1.978   0.964  -0.461  0.00  0.00    +0.149 HD
BRANCH  23  26
ATOM     26  C   UNL     1       3.540  -0.882  -1.490  0.00  0.00    +0.075 C 
ATOM     27  C   UNL     1       3.732   0.193  -2.561  0.00  0.00    +0.013 C 
ATOM     28  C   UNL     1       5.208   0.258  -2.960  0.00  0.00    +0.001 C 
ATOM     29  C   UNL     1       5.646  -1.099  -3.515  0.00  0.00    +0.000 C 
ATOM     30  C   UNL     1       5.454  -2.174  -2.444  0.00  0.00    +0.001 C 
ATOM     31  C   UNL     1       3.978  -2.239  -2.045  0.00  0.00    +0.013 C 
ENDBRANCH  23  26
ENDBRANCH  21  22
BRANCH  21  33
ATOM     32  C   UNL     1       0.435  -1.931   1.237  0.00  0.00    +0.009 C 
ATOM     33  C   UNL     1      -0.055  -0.482   1.219  0.00  0.00    +0.012 C 
ATOM     34  C   UNL     1       0.796   0.357   2.174  0.00  0.00    +0.009 C 
ENDBRANCH  21  33
ENDBRANCH   1  21
TORSDOF 7
