REMARK  Name = ZINC39139829
REMARK  1 active torsions:
REMARK  status: ('A' for Active; 'I' for Inactive)
REMARK    1  A    between atoms: C_3  and  C_6
REMARK                            x       y       z     vdW  Elec       q    Type
REMARK                         _______ _______ _______ _____ _____    ______ ____
ROOT
ATOM      1  C   UNL     1       3.761   1.845  -0.024  0.00  0.00    +0.221 C 
ATOM      2  C   UNL     1       4.386   1.709   1.349  0.00  0.00    +0.340 C 
ATOM      3  O   UNL     1       4.014   2.236   2.370  0.00  0.00    -0.248 OA
ATOM      4  O   UNL     1       5.435   0.883   1.204  0.00  0.00    -0.393 OA
ATOM      5  C   UNL     1       5.575   0.470  -0.066  0.00  0.00    +0.283 C 
ATOM      6  N   UNL     1       4.607   1.002  -0.886  0.00  0.00    -0.282 N 
ATOM      7  N   UNL     1       6.512  -0.334  -0.473  0.00  0.00    -0.253 NA
ATOM      8  H   UNL     1       6.557  -0.594  -1.406  0.00  0.00    +0.191 HD
ATOM      9  H   UNL     1       4.501   0.851  -1.838  0.00  0.00    +0.152 HD
ENDROOT
BRANCH   1  12
ATOM     10  C   UNL     1      -0.016   1.351   0.009  0.00  0.00    +0.008 A 
ATOM     11  C   UNL     1       1.183   2.038   0.002  0.00  0.00    +0.013 A 
ATOM     12  C   UNL     1       2.343   1.336  -0.013  0.00  0.00    +0.021 A 
ATOM     13  S   UNL     1       1.754  -0.349  -0.017  0.00  0.00    -0.099 S 
ATOM     14  C   UNL     1       0.002  -0.004   0.002  0.00  0.00    +0.045 A 
ENDBRANCH   1  12
TORSDOF 1
