REMARK  Name = ZINC52636820
REMARK  9 active torsions:
REMARK  status: ('A' for Active; 'I' for Inactive)
REMARK    1  A    between atoms: C_1  and  C_2
REMARK    2  A    between atoms: C_2  and  C_37
REMARK    3  A    between atoms: N_20  and  C_21
REMARK    4  A    between atoms: C_21  and  C_23
REMARK    5  A    between atoms: C_21  and  C_27
REMARK    6  A    between atoms: C_23  and  C_24
REMARK    7  A    between atoms: C_27  and  O_29
REMARK    8  A    between atoms: O_29  and  C_30
REMARK    9  A    between atoms: C_30  and  C_31
REMARK                            x       y       z     vdW  Elec       q    Type
REMARK                         _______ _______ _______ _____ _____    ______ ____
ROOT
ATOM      1  C   UNL     1       0.306   2.666   1.571  0.00  0.00    +0.049 C 
ATOM      2  C   UNL     1       0.034   1.949   0.247  0.00  0.00    +0.087 C 
ATOM      3  N   UNL     1      -1.389   2.049  -0.114  0.00  0.00    -0.268 NA
ATOM      4  C   UNL     1      -2.041   3.334   0.112  0.00  0.00    +0.116 C 
ATOM      5  C   UNL     1      -3.462   3.203  -0.456  0.00  0.00    +0.120 C 
ATOM      6  C   UNL     1      -4.080   1.946   0.140  0.00  0.00    -0.035 C 
ATOM      7  C   UNL     1      -5.250   2.311   0.647  0.00  0.00    -0.001 A 
ATOM      8  C   UNL     1      -6.341   1.535   1.258  0.00  0.00    +0.010 A 
ATOM      9  C   UNL     1      -7.412   2.248   1.696  0.00  0.00    +0.001 A 
ATOM     10  C   UNL     1      -7.507   3.639   1.588  0.00  0.00    +0.002 A 
ATOM     11  C   UNL     1      -6.555   4.431   1.033  0.00  0.00    +0.026 A 
ATOM     12  C   UNL     1      -5.383   3.796   0.530  0.00  0.00    +0.043 A 
ATOM     13  N   UNL     1      -4.333   4.311  -0.073  0.00  0.00    -0.376 N 
ATOM     14  C   UNL     1      -3.343   0.621   0.191  0.00  0.00    +0.062 C 
ATOM     15  C   UNL     1      -1.968   0.988   0.756  0.00  0.00    +0.149 C 
ATOM     16  C   UNL     1      -0.943  -0.109   0.659  0.00  0.00    +0.235 C 
ATOM     17  O   UNL     1      -1.142  -1.298   0.795  0.00  0.00    -0.274 OA
ATOM     18  N   UNL     1       0.251   0.488   0.390  0.00  0.00    -0.268 N 
ATOM     19  C   UNL     1       0.918   2.519  -0.864  0.00  0.00    +0.049 C 
ATOM     20  H   UNL     1      -4.161   5.252  -0.233  0.00  0.00    +0.160 HD
ENDROOT
BRANCH  18  21
ATOM     21  C   UNL     1       1.538  -0.199   0.261  0.00  0.00    +0.195 C 
BRANCH  21  22
ATOM     22  C   UNL     1       1.519  -1.075  -0.965  0.00  0.00    +0.329 C 
ATOM     23  O   UNL     1       0.473  -1.521  -1.373  0.00  0.00    -0.249 OA
BRANCH  22  24
ATOM     24  O   UNL     1       2.665  -1.359  -1.605  0.00  0.00    -0.459 OA
BRANCH  24  25
ATOM     25  C   UNL     1       2.573  -2.195  -2.760  0.00  0.00    +0.267 C 
BRANCH  25  26
ATOM     26  C   UNL     1       3.948  -2.403  -3.340  0.00  0.00    -0.010 A 
ATOM     27  C   UNL     1       4.436  -1.527  -4.292  0.00  0.00    +0.007 A 
ATOM     28  C   UNL     1       5.697  -1.718  -4.824  0.00  0.00    +0.000 A 
ATOM     29  C   UNL     1       6.471  -2.784  -4.405  0.00  0.00    +0.000 A 
ATOM     30  C   UNL     1       5.983  -3.660  -3.452  0.00  0.00    +0.000 A 
ATOM     31  C   UNL     1       4.723  -3.467  -2.917  0.00  0.00    +0.007 A 
ENDBRANCH  25  26
ENDBRANCH  24  25
ENDBRANCH  22  24
ENDBRANCH  21  22
BRANCH  21  32
ATOM     32  C   UNL     1       1.782  -1.062   1.501  0.00  0.00    +0.129 C 
BRANCH  32  33
ATOM     33  C   UNL     1       1.884  -0.177   2.716  0.00  0.00    +0.213 C 
ATOM     34  O   UNL     1       1.932   1.028   2.587  0.00  0.00    -0.276 OA
ATOM     35  N   UNL     1       1.922  -0.725   3.947  0.00  0.00    -0.329 N 
ATOM     36  H   UNL     1       1.884  -1.689   4.051  0.00  0.00    +0.145 HD
ATOM     37  H   UNL     1       1.988  -0.156   4.730  0.00  0.00    +0.145 HD
ENDBRANCH  32  33
ENDBRANCH  21  32
ENDBRANCH  18  21
TORSDOF 7
