REMARK  Name = ZINC61886401
REMARK  4 active torsions:
REMARK  status: ('A' for Active; 'I' for Inactive)
REMARK    1  A    between atoms: C_4  and  C_8
REMARK    2  A    between atoms: N_10  and  C_11
REMARK    3  A    between atoms: C_16  and  C_18
REMARK    4  A    between atoms: N_19  and  O_20
REMARK                            x       y       z     vdW  Elec       q    Type
REMARK                         _______ _______ _______ _____ _____    ______ ____
ROOT
ATOM      1  C   UNL     1       3.914  -0.626  -0.088  0.00  0.00    +0.247 C 
ATOM      2  O   UNL     1       4.996  -0.071  -0.109  0.00  0.00    -0.270 OA
ATOM      3  N   UNL     1       3.848  -1.972  -0.074  0.00  0.00    -0.308 N 
ATOM      4  H   UNL     1       2.985  -2.415  -0.058  0.00  0.00    +0.149 HD
ENDROOT
BRANCH   1   8
ATOM      5  C   UNL     1       0.345   1.678  -0.060  0.00  0.00    +0.018 A 
ATOM      6  C   UNL     1       1.572   2.314  -0.083  0.00  0.00    +0.040 A 
ATOM      7  C   UNL     1       2.738   1.572  -0.092  0.00  0.00    +0.136 A 
ATOM      8  C   UNL     1       2.673   0.175  -0.078  0.00  0.00    +0.073 A 
ATOM      9  C   UNL     1       1.430  -0.459  -0.054  0.00  0.00    +0.031 A 
ATOM     10  C   UNL     1       0.274   0.295  -0.046  0.00  0.00    +0.019 A 
ATOM     11 BR   UNL     1      -1.411  -0.562  -0.014  0.00  0.00    -0.050 Br
ATOM     12  F   UNL     1       3.937   2.194  -0.115  0.00  0.00    -0.205 F 
ENDBRANCH   1   8
BRANCH   3  13
ATOM     13  C   UNL     1       5.079  -2.766  -0.085  0.00  0.00    +0.083 C 
ATOM     14  C   UNL     1       5.541  -3.004  -1.533  0.00  0.00    +0.023 C 
ATOM     15  C   UNL     1       5.542  -4.532  -1.750  0.00  0.00    +0.003 C 
ATOM     16  C   UNL     1       5.682  -5.118  -0.323  0.00  0.00    +0.013 C 
ATOM     17  C   UNL     1       4.816  -4.157   0.529  0.00  0.00    +0.076 C 
BRANCH  17  18
ATOM     18  C   UNL     1       5.253  -4.189   1.971  0.00  0.00    +0.136 C 
ATOM     19  N   UNL     1       4.575  -4.865   2.837  0.00  0.00    -0.076 NA
ATOM     20  N   UNL     1       6.377  -3.497   2.365  0.00  0.00    -0.344 N 
ATOM     21  H   UNL     1       6.887  -2.989   1.714  0.00  0.00    +0.144 HD
ATOM     22  H   UNL     1       6.659  -3.517   3.293  0.00  0.00    +0.144 HD
BRANCH  19  23
ATOM     23  O   UNL     1       3.486  -5.666   2.415  0.00  0.00    -0.408 OA
ATOM     24  H   UNL     1       3.040  -6.134   3.134  0.00  0.00    +0.328 HD
ENDBRANCH  19  23
ENDBRANCH  17  18
ENDBRANCH   3  13
TORSDOF 4
