REMARK  Name = ZINC08188756
REMARK  5 active torsions:
REMARK  status: ('A' for Active; 'I' for Inactive)
REMARK    1  A    between atoms: C_3  and  S_16
REMARK    2  A    between atoms: C_6  and  N_7
REMARK    3  A    between atoms: C_8  and  C_10
REMARK    4  A    between atoms: S_16  and  C_17
REMARK    5  A    between atoms: C_20  and  N_23
REMARK                            x       y       z     vdW  Elec       q    Type
REMARK                         _______ _______ _______ _____ _____    ______ ____
ROOT
ATOM      1  C   UNL     1      -3.567  -1.841   0.113  0.00  0.00    +0.024 A 
ATOM      2  C   UNL     1      -2.208  -1.598   0.106  0.00  0.00    +0.017 A 
ATOM      3  C   UNL     1      -1.736  -0.293   0.037  0.00  0.00    +0.013 A 
ATOM      4  C   UNL     1      -2.632   0.767  -0.019  0.00  0.00    +0.017 A 
ATOM      5  C   UNL     1      -3.990   0.524  -0.018  0.00  0.00    +0.024 A 
ATOM      6  C   UNL     1      -4.462  -0.780   0.051  0.00  0.00    +0.034 A 
ENDROOT
BRANCH   6   7
ATOM      7  N   UNL     1      -5.841  -1.027   0.058  0.00  0.00    -0.283 N 
ATOM      8  C   UNL     1      -6.670  -0.243  -0.661  0.00  0.00    +0.246 C 
ATOM      9  O   UNL     1      -6.233   0.725  -1.246  0.00  0.00    -0.273 OA
ATOM     10  H   UNL     1      -6.200  -1.762   0.580  0.00  0.00    +0.155 HD
BRANCH   8  11
ATOM     11  C   UNL     1      -8.139  -0.570  -0.737  0.00  0.00    +0.204 C 
ATOM     12  C   UNL     1      -8.354  -1.915  -1.466  0.00  0.00    +0.043 C 
ATOM     13  C   UNL     1      -9.642  -1.694  -2.289  0.00  0.00    +0.031 C 
ATOM     14  C   UNL     1     -10.054  -0.242  -1.960  0.00  0.00    +0.161 C 
ATOM     15  O   UNL     1      -8.829   0.404  -1.549  0.00  0.00    -0.367 OA
ENDBRANCH   8  11
ENDBRANCH   6   7
BRANCH   3  16
ATOM     16  S   UNL     1      -0.001   0.017   0.029  0.00  0.00    -0.089 S 
BRANCH  16  17
ATOM     17  C   UNL     1       0.400   0.146  -1.682  0.00  0.00    +0.013 A 
ATOM     18  C   UNL     1      -0.568  -0.109  -2.646  0.00  0.00    +0.017 A 
ATOM     19  C   UNL     1      -0.251  -0.001  -3.985  0.00  0.00    +0.034 A 
ATOM     20  C   UNL     1       1.031   0.348  -4.369  0.00  0.00    +0.126 A 
ATOM     21  C   UNL     1       1.999   0.596  -3.412  0.00  0.00    +0.034 A 
ATOM     22  C   UNL     1       1.688   0.496  -2.071  0.00  0.00    +0.017 A 
BRANCH  20  23
ATOM     23  N   UNL     1       1.368   0.456  -5.806  0.00  0.00    +0.056 N 
ATOM     24  O   UNL     1       2.497   0.762  -6.145  0.00  0.00    -0.126 OA
ATOM     25  O   UNL     1       0.517   0.237  -6.649  0.00  0.00    -0.126 OA
ENDBRANCH  20  23
ENDBRANCH  16  17
ENDBRANCH   3  16
TORSDOF 5
