REMARK  Name = ZINC44970926
REMARK  8 active torsions:
REMARK  status: ('A' for Active; 'I' for Inactive)
REMARK    1  A    between atoms: C_1  and  C_2
REMARK    2  A    between atoms: C_2  and  C_4
REMARK    3  A    between atoms: C_2  and  N_10
REMARK    4  A    between atoms: C_17  and  C_19
REMARK    5  A    between atoms: C_22  and  O_27
REMARK    6  A    between atoms: C_23  and  O_25
REMARK    7  A    between atoms: O_25  and  C_26
REMARK    8  A    between atoms: O_27  and  C_28
REMARK                            x       y       z     vdW  Elec       q    Type
REMARK                         _______ _______ _______ _____ _____    ______ ____
ROOT
ATOM      1  N   UNL     1       0.711  -0.489   1.189  0.00  0.00    -0.294 N 
ATOM      2  C   UNL     1       2.054  -0.600   1.174  0.00  0.00    +0.303 C 
ATOM      3  O   UNL     1       2.677  -0.297   0.175  0.00  0.00    -0.253 OA
ATOM      4  N   UNL     1       2.706  -1.046   2.266  0.00  0.00    -0.279 N 
ATOM      5  C   UNL     1       2.077  -1.453   3.535  0.00  0.00    +0.110 C 
ATOM      6  C   UNL     1       3.092  -2.424   4.188  0.00  0.00    +0.021 C 
ATOM      7  C   UNL     1       4.444  -1.770   3.797  0.00  0.00    +0.029 C 
ATOM      8  C   UNL     1       4.161  -1.215   2.385  0.00  0.00    +0.108 C 
ATOM      9  H   UNL     1       0.213  -0.731   1.986  0.00  0.00    +0.151 HD
ENDROOT
BRANCH   8  10
ATOM     10  C   UNL     1       4.847   0.116   2.215  0.00  0.00    -0.023 A 
ATOM     11  C   UNL     1       4.284   1.257   2.757  0.00  0.00    +0.009 A 
ATOM     12  C   UNL     1       4.910   2.480   2.603  0.00  0.00    +0.050 A 
ATOM     13  C   UNL     1       6.103   2.565   1.904  0.00  0.00    +0.162 A 
ATOM     14  C   UNL     1       6.669   1.417   1.358  0.00  0.00    +0.162 A 
ATOM     15  C   UNL     1       6.040   0.194   1.520  0.00  0.00    +0.055 A 
BRANCH  14  16
ATOM     16  O   UNL     1       7.840   1.496   0.671  0.00  0.00    -0.491 OA
ATOM     17  C   UNL     1       8.363   0.277   0.139  0.00  0.00    +0.277 C 
ENDBRANCH  14  16
BRANCH  13  18
ATOM     18  O   UNL     1       6.719   3.768   1.752  0.00  0.00    -0.491 OA
ATOM     19  C   UNL     1       6.080   4.903   2.338  0.00  0.00    +0.277 C 
ENDBRANCH  13  18
ENDBRANCH   8  10
BRANCH   1  21
ATOM     20  C   UNL     1      -0.019   1.526   0.010  0.00  0.00    +0.030 C 
ATOM     21  C   UNL     1       0.002  -0.004   0.002  0.00  0.00    +0.100 C 
BRANCH  21  22
ATOM     22  C   UNL     1      -1.433  -0.534   0.013  0.00  0.00    +0.138 C 
ATOM     23  C   UNL     1      -1.437  -2.075   0.166  0.00  0.00    +0.035 C 
ATOM     24  C   UNL     1      -2.841  -2.307   0.788  0.00  0.00    +0.031 C 
ATOM     25  C   UNL     1      -3.022  -1.050   1.665  0.00  0.00    +0.160 C 
ATOM     26  O   UNL     1      -2.139  -0.039   1.162  0.00  0.00    -0.375 OA
ENDBRANCH  21  22
ENDBRANCH   1  21
TORSDOF 5
