REMARK  Name = ZINC13627252
REMARK  6 active torsions:
REMARK  status: ('A' for Active; 'I' for Inactive)
REMARK    1  A    between atoms: C_1  and  C_2
REMARK    2  A    between atoms: C_8  and  N_10
REMARK    3  A    between atoms: C_11  and  C_13
REMARK    4  A    between atoms: C_13  and  C_14
REMARK    5  A    between atoms: C_14  and  C_15
REMARK    6  A    between atoms: C_15  and  N_16
REMARK                            x       y       z     vdW  Elec       q    Type
REMARK                         _______ _______ _______ _____ _____    ______ ____
ROOT
ATOM      1  N   UNL     1       1.264   1.197   8.374  0.00  0.00    -0.299 N 
ATOM      2  C   UNL     1       0.851   1.597   9.593  0.00  0.00    +0.307 C 
ATOM      3  O   UNL     1      -0.286   1.997   9.748  0.00  0.00    -0.252 OA
ATOM      4  N   UNL     1       1.699   1.553  10.639  0.00  0.00    -0.245 N 
ATOM      5  C   UNL     1       3.108   1.172  10.459  0.00  0.00    +0.211 C 
ATOM      6  C   UNL     1       3.518   0.257  11.584  0.00  0.00    +0.235 C 
ATOM      7  O   UNL     1       4.385  -0.571  11.397  0.00  0.00    -0.274 OA
ATOM      8  N   UNL     1       2.934   0.346  12.794  0.00  0.00    -0.283 N 
ATOM      9  C   UNL     1       1.897   1.258  13.022  0.00  0.00    +0.055 A 
ATOM     10  C   UNL     1       1.267   1.874  11.936  0.00  0.00    +0.059 A 
ATOM     11  C   UNL     1       0.240   2.777  12.143  0.00  0.00    +0.025 A 
ATOM     12  C   UNL     1      -0.160   3.077  13.434  0.00  0.00    +0.002 A 
ATOM     13  C   UNL     1       0.464   2.477  14.512  0.00  0.00    +0.002 A 
ATOM     14  C   UNL     1       1.489   1.559  14.311  0.00  0.00    +0.025 A 
ATOM     15  H   UNL     1       2.191   0.948   8.233  0.00  0.00    +0.150 HD
ATOM     16  H   UNL     1       3.236  -0.228  13.515  0.00  0.00    +0.155 HD
ENDROOT
BRANCH   1  17
ATOM     17  C   UNL     1       0.313   1.138   7.261  0.00  0.00    +0.106 C 
BRANCH  17  18
ATOM     18  C   UNL     1       1.033   0.657   5.999  0.00  0.00    +0.028 C 
BRANCH  18  19
ATOM     19  C   UNL     1       0.040   0.596   4.837  0.00  0.00    +0.097 C 
BRANCH  19  21
ATOM     20  N   UNL     1       0.068  -0.010   2.439  0.00  0.00    -0.312 N 
ATOM     21  C   UNL     1       0.749   0.121   3.595  0.00  0.00    +0.213 C 
ATOM     22  O   UNL     1       1.932  -0.142   3.635  0.00  0.00    -0.276 OA
ATOM     23  H   UNL     1      -0.878   0.200   2.407  0.00  0.00    +0.149 HD
BRANCH  20  30
ATOM     24  C   UNL     1      -0.021   1.565   0.010  0.00  0.00    +0.009 C 
ATOM     25  C   UNL     1       0.013   0.036  -0.005  0.00  0.00    +0.006 C 
ATOM     26  C   UNL     1       0.733  -0.446  -1.267  0.00  0.00    +0.005 C 
ATOM     27  C   UNL     1       0.766  -1.975  -1.283  0.00  0.00    +0.000 C 
ATOM     28  C   UNL     1       1.510  -2.482  -0.046  0.00  0.00    +0.002 C 
ATOM     29  C   UNL     1       0.791  -2.001   1.216  0.00  0.00    +0.022 C 
ATOM     30  C   UNL     1       0.757  -0.471   1.231  0.00  0.00    +0.076 C 
ENDBRANCH  20  30
ENDBRANCH  19  21
ENDBRANCH  18  19
ENDBRANCH  17  18
ENDBRANCH   1  17
TORSDOF 5
