REMARK  Name = ZINC20687824
REMARK  8 active torsions:
REMARK  status: ('A' for Active; 'I' for Inactive)
REMARK    1  A    between atoms: C_1  and  C_2
REMARK    2  A    between atoms: C_2  and  N_3
REMARK    3  A    between atoms: N_3  and  C_4
REMARK    4  A    between atoms: N_3  and  C_23
REMARK    5  A    between atoms: C_4  and  C_5
REMARK    6  A    between atoms: C_11  and  C_16
REMARK    7  A    between atoms: C_23  and  C_24
REMARK    8  A    between atoms: N_26  and  C_27
REMARK                            x       y       z     vdW  Elec       q    Type
REMARK                         _______ _______ _______ _____ _____    ______ ____
ROOT
ATOM      1  N   UNL     1       4.644  -4.179  -0.198  0.00  0.00    +0.390 N 
ATOM      2  H   UNL     1       3.748  -4.230   0.437  0.00  0.00    -0.081 HD
ENDROOT
BRANCH   1   4
ATOM      3  C   UNL     1       5.571  -4.824  -2.371  0.00  0.00    -0.017 C 
ATOM      4  C   UNL     1       4.329  -4.827  -1.478  0.00  0.00    -0.081 C 
ENDBRANCH   1   4
BRANCH   1   5
ATOM      5  C   UNL     1       5.730  -4.886   0.496  0.00  0.00    -0.003 C 
BRANCH   5   6
ATOM      6  C   UNL     1       5.215  -6.199   1.027  0.00  0.00    +0.094 A 
ATOM      7  N   UNL     1       6.083  -7.075   1.596  0.00  0.00    -0.312 N 
ATOM      8  H   UNL     1       7.152  -6.825   1.663  0.00  0.00    +0.170 HD
ATOM      9  C   UNL     1       5.663  -8.255   2.088  0.00  0.00    +0.260 A 
ATOM     10  O   UNL     1       6.454  -9.028   2.601  0.00  0.00    -0.267 OA
ATOM     11  C   UNL     1       4.275  -8.592   1.994  0.00  0.00    +0.080 A 
ATOM     12  C   UNL     1       3.586  -9.796   2.442  0.00  0.00    +0.004 A 
ATOM     13  C   UNL     1       2.249  -9.893   2.244  0.00  0.00    +0.056 A 
ATOM     14  S   UNL     1       1.839  -8.357   1.437  0.00  0.00    -0.076 S 
ATOM     15  C   UNL     1       3.455  -7.628   1.385  0.00  0.00    +0.116 A 
ATOM     16  N   UNL     1       3.943  -6.478   0.927  0.00  0.00    -0.229 NA
BRANCH  12  17
ATOM     17  C   UNL     1       4.333 -10.894   3.101  0.00  0.00    -0.016 A 
ATOM     18  C   UNL     1       5.490 -11.403   2.513  0.00  0.00    +0.011 A 
ATOM     19  C   UNL     1       6.185 -12.421   3.132  0.00  0.00    +0.039 A 
ATOM     20  C   UNL     1       5.729 -12.945   4.331  0.00  0.00    +0.123 A 
ATOM     21  C   UNL     1       4.577 -12.445   4.917  0.00  0.00    +0.039 A 
ATOM     22  C   UNL     1       3.878 -11.424   4.307  0.00  0.00    +0.011 A 
ATOM     23  F   UNL     1       6.409 -13.946   4.931  0.00  0.00    -0.205 F 
ENDBRANCH  12  17
ENDBRANCH   5   6
ENDBRANCH   1   5
BRANCH   1  24
ATOM     24  C   UNL     1       4.979  -2.763  -0.393  0.00  0.00    +0.019 C 
BRANCH  24  25
ATOM     25  C   UNL     1       3.761  -2.021  -0.879  0.00  0.00    +0.201 C 
ATOM     26  O   UNL     1       2.716  -2.614  -1.046  0.00  0.00    -0.278 OA
ATOM     27  N   UNL     1       3.832  -0.698  -1.128  0.00  0.00    -0.287 N 
ATOM     28  H   UNL     1       4.798  -0.176  -1.058  0.00  0.00    +0.155 HD
BRANCH  27  29
ATOM     29  C   UNL     1       2.675   0.012  -1.476  0.00  0.00    +0.037 A 
ATOM     30  C   UNL     1       1.448  -0.353  -0.939  0.00  0.00    +0.027 A 
ATOM     31  C   UNL     1       0.307   0.346  -1.283  0.00  0.00    +0.051 A 
ATOM     32  C   UNL     1       0.384   1.415  -2.165  0.00  0.00    +0.162 A 
ATOM     33  C   UNL     1       1.612   1.784  -2.701  0.00  0.00    +0.164 A 
ATOM     34  C   UNL     1       2.756   1.081  -2.357  0.00  0.00    +0.072 A 
ATOM     35  O   UNL     1       1.708   2.835  -3.561  0.00  0.00    -0.485 OA
ATOM     36  C   UNL     1       0.493   3.280  -4.173  0.00  0.00    +0.270 C 
ATOM     37  C   UNL     1      -0.584   3.383  -3.085  0.00  0.00    +0.270 C 
ATOM     38  O   UNL     1      -0.752   2.087  -2.498  0.00  0.00    -0.485 OA
ENDBRANCH  27  29
ENDBRANCH  24  25
ENDBRANCH   1  24
TORSDOF 7
