REMARK  Name = ZINC39664746
REMARK  9 active torsions:
REMARK  status: ('A' for Active; 'I' for Inactive)
REMARK    1  A    between atoms: C_1  and  C_2
REMARK    2  A    between atoms: C_5  and  C_10
REMARK    3  A    between atoms: C_14  and  C_23
REMARK    4  A    between atoms: N_25  and  C_26
REMARK    5  A    between atoms: C_26  and  C_28
REMARK    6  A    between atoms: C_26  and  C_32
REMARK    7  A    between atoms: C_28  and  N_29
REMARK    8  A    between atoms: N_29  and  C_30
REMARK    9  A    between atoms: N_29  and  C_31
REMARK                            x       y       z     vdW  Elec       q    Type
REMARK                         _______ _______ _______ _____ _____    ______ ____
ROOT
ATOM      1  C   UNL     1       0.697  -4.755   0.331  0.00  0.00    +0.250 C 
ATOM      2  O   UNL     1       0.881  -5.504   1.270  0.00  0.00    -0.270 OA
ATOM      3  N   UNL     1       0.417  -5.258  -0.888  0.00  0.00    -0.296 N 
ATOM      4  C   UNL     1       0.239  -4.516  -2.158  0.00  0.00    +0.121 C 
ATOM      5  C   UNL     1       0.922  -5.400  -3.226  0.00  0.00    +0.100 C 
ATOM      6  C   UNL     1       0.903  -6.818  -2.631  0.00  0.00    -0.004 C 
ATOM      7  C   UNL     1       0.223  -6.680  -1.261  0.00  0.00    +0.115 C 
ATOM      8  C   UNL     1       0.100  -7.756  -3.528  0.00  0.00    -0.010 C 
ATOM      9  C   UNL     1       0.144  -9.172  -2.947  0.00  0.00    -0.082 C 
ATOM     10  N   UNL     1       1.538  -9.623  -2.857  0.00  0.00    +0.379 N 
ATOM     11  C   UNL     1       2.280  -8.771  -1.920  0.00  0.00    -0.082 C 
ATOM     12  C   UNL     1       2.327  -7.338  -2.457  0.00  0.00    -0.010 C 
ATOM     13  H   UNL     1       1.561 -10.578  -2.531  0.00  0.00    -0.086 HD
ATOM     14  H   UNL     1       1.967  -9.571  -3.768  0.00  0.00    -0.086 HD
ENDROOT
BRANCH   1  19
ATOM     15  C   UNL     1       1.015   0.944   1.081  0.00  0.00    +0.047 C 
ATOM     16  C   UNL     1       0.933  -0.548   0.886  0.00  0.00    -0.012 A 
ATOM     17  C   UNL     1       0.241  -1.065  -0.196  0.00  0.00    +0.007 A 
ATOM     18  C   UNL     1       0.161  -2.429  -0.381  0.00  0.00    +0.016 A 
ATOM     19  C   UNL     1       0.780  -3.293   0.524  0.00  0.00    +0.075 A 
ATOM     20  C   UNL     1       1.478  -2.768   1.615  0.00  0.00    +0.171 A 
ATOM     21  C   UNL     1       1.555  -1.395   1.787  0.00  0.00    +0.162 A 
ATOM     22  F   UNL     1       2.234  -0.883   2.837  0.00  0.00    -0.202 F 
ATOM     23  F   UNL     1       2.080  -3.596   2.497  0.00  0.00    -0.202 F 
ENDBRANCH   1  19
BRANCH   5  24
ATOM     24  C   UNL     1       2.340  -4.944  -3.455  0.00  0.00    +0.219 C 
ATOM     25  O   UNL     1       2.989  -4.494  -2.535  0.00  0.00    -0.275 OA
ATOM     26  N   UNL     1       2.888  -5.037  -4.683  0.00  0.00    -0.310 N 
ATOM     27  H   UNL     1       2.395  -5.462  -5.403  0.00  0.00    +0.149 HD
BRANCH  26  28
ATOM     28  C   UNL     1       4.227  -4.498  -4.931  0.00  0.00    +0.087 C 
BRANCH  28  29
ATOM     29  C   UNL     1       4.814  -5.153  -6.154  0.00  0.00    -0.029 A 
ATOM     30  C   UNL     1       4.018  -5.396  -7.258  0.00  0.00    +0.005 A 
ATOM     31  C   UNL     1       4.556  -5.998  -8.380  0.00  0.00    +0.000 A 
ATOM     32  C   UNL     1       5.891  -6.356  -8.399  0.00  0.00    +0.000 A 
ATOM     33  C   UNL     1       6.688  -6.112  -7.296  0.00  0.00    +0.000 A 
ATOM     34  C   UNL     1       6.150  -5.506  -6.175  0.00  0.00    +0.005 A 
ENDBRANCH  28  29
BRANCH  28  35
ATOM     35  C   UNL     1       4.134  -2.987  -5.157  0.00  0.00    -0.052 C 
BRANCH  35  36
ATOM     36  N   UNL     1       5.486  -2.430  -5.301  0.00  0.00    +0.377 N 
ATOM     37  C   UNL     1       5.393  -1.011  -5.669  0.00  0.00    -0.097 C 
ATOM     38  C   UNL     1       6.207  -2.560  -4.028  0.00  0.00    -0.097 C 
ATOM     39  H   UNL     1       5.982  -2.933  -6.022  0.00  0.00    -0.083 HD
ENDBRANCH  35  36
ENDBRANCH  28  35
ENDBRANCH  26  28
ENDBRANCH   5  24
TORSDOF 6
