REMARK  Name = ZINC13506008
REMARK  10 active torsions:
REMARK  status: ('A' for Active; 'I' for Inactive)
REMARK    1  A    between atoms: C_1  and  C_2
REMARK    2  A    between atoms: C_5  and  C_7
REMARK    3  A    between atoms: C_7  and  C_9
REMARK    4  A    between atoms: C_7  and  N_17
REMARK    5  A    between atoms: N_11  and  C_12
REMARK    6  A    between atoms: N_17  and  C_18
REMARK    7  A    between atoms: C_18  and  C_19
REMARK    8  A    between atoms: C_26  and  C_28
REMARK    9  A    between atoms: C_28  and  N_29
REMARK   10  A    between atoms: C_30  and  C_32
REMARK                            x       y       z     vdW  Elec       q    Type
REMARK                         _______ _______ _______ _____ _____    ______ ____
ROOT
ATOM      1  N   UNL     1      -1.586   0.186   4.823  0.00  0.00    -0.278 N 
ATOM      2  C   UNL     1      -1.170  -0.001   6.091  0.00  0.00    +0.234 C 
ATOM      3  O   UNL     1      -1.615   0.690   6.983  0.00  0.00    -0.274 OA
ENDROOT
BRANCH   1   4
ATOM      4  C   UNL     1      -2.494   1.290   4.505  0.00  0.00    +0.228 C 
BRANCH   4   9
ATOM      5  C   UNL     1      -5.912   0.056   8.002  0.00  0.00    +0.086 C 
ATOM      6  C   UNL     1      -5.306   0.525   6.705  0.00  0.00    +0.102 A 
ATOM      7  C   UNL     1      -5.989   0.933   5.620  0.00  0.00    +0.045 A 
ATOM      8  C   UNL     1      -5.030   1.284   4.641  0.00  0.00    +0.047 A 
ATOM      9  C   UNL     1      -3.820   1.062   5.184  0.00  0.00    +0.135 A 
ATOM     10  O   UNL     1      -3.993   0.602   6.434  0.00  0.00    -0.462 OA
ENDBRANCH   4   9
BRANCH   4  11
ATOM     11  C   UNL     1      -1.898   2.587   4.989  0.00  0.00    +0.241 C 
ATOM     12  O   UNL     1      -0.820   2.588   5.546  0.00  0.00    -0.273 OA
ATOM     13  N   UNL     1      -2.562   3.745   4.804  0.00  0.00    -0.311 N 
ATOM     14  H   UNL     1      -3.424   3.744   4.359  0.00  0.00    +0.149 HD
BRANCH  13  15
ATOM     15  C   UNL     1      -1.983   5.005   5.275  0.00  0.00    +0.073 C 
ATOM     16  C   UNL     1      -2.390   5.258   6.742  0.00  0.00    +0.022 C 
ATOM     17  C   UNL     1      -2.608   6.790   6.816  0.00  0.00    +0.002 C 
ATOM     18  C   UNL     1      -3.268   7.108   5.452  0.00  0.00    +0.002 C 
ATOM     19  C   UNL     1      -2.541   6.181   4.455  0.00  0.00    +0.022 C 
ENDBRANCH  13  15
ENDBRANCH   4  11
ENDBRANCH   1   4
BRANCH   1  20
ATOM     20  C   UNL     1      -1.129  -0.716   3.762  0.00  0.00    +0.144 C 
BRANCH  20  21
ATOM     21  C   UNL     1      -2.152  -1.801   3.550  0.00  0.00    -0.030 A 
ATOM     22  C   UNL     1      -2.122  -2.941   4.332  0.00  0.00    +0.008 A 
ATOM     23  C   UNL     1      -3.064  -3.935   4.141  0.00  0.00    +0.038 A 
ATOM     24  C   UNL     1      -4.030  -3.793   3.160  0.00  0.00    +0.123 A 
ATOM     25  C   UNL     1      -4.056  -2.653   2.375  0.00  0.00    +0.038 A 
ATOM     26  C   UNL     1      -3.117  -1.659   2.571  0.00  0.00    +0.008 A 
ATOM     27  F   UNL     1      -4.948  -4.766   2.970  0.00  0.00    -0.205 F 
ENDBRANCH  20  21
ENDBRANCH   1  20
BRANCH   2  28
ATOM     28  C   UNL     1      -0.152  -1.067   6.402  0.00  0.00    +0.200 C 
BRANCH  28  29
ATOM     29  N   UNL     1       0.230  -0.982   7.813  0.00  0.00    -0.302 N 
ATOM     30  C   UNL     1       1.135  -1.843   8.320  0.00  0.00    +0.251 C 
ATOM     31  O   UNL     1       1.634  -2.692   7.604  0.00  0.00    -0.270 OA
ATOM     32  H   UNL     1      -0.168  -0.305   8.383  0.00  0.00    +0.150 HD
BRANCH  30  33
ATOM     33  C   UNL     1       1.517  -1.758   9.732  0.00  0.00    +0.074 A 
ATOM     34  C   UNL     1       2.413  -2.540  10.444  0.00  0.00    +0.021 A 
ATOM     35  C   UNL     1       2.589  -2.239  11.771  0.00  0.00    +0.008 A 
ATOM     36  C   UNL     1       1.883  -1.215  12.318  0.00  0.00    +0.046 A 
ATOM     37  S   UNL     1       0.946  -0.624  10.986  0.00  0.00    -0.092 S 
ENDBRANCH  30  33
ENDBRANCH  28  29
ENDBRANCH   2  28
TORSDOF 9
