REMARK  Name = ZINC20686709
REMARK  8 active torsions:
REMARK  status: ('A' for Active; 'I' for Inactive)
REMARK    1  A    between atoms: C_1  and  N_2
REMARK    2  A    between atoms: N_2  and  C_3
REMARK    3  A    between atoms: N_2  and  C_4
REMARK    4  A    between atoms: C_7  and  C_10
REMARK    5  A    between atoms: C_23  and  C_26
REMARK    6  A    between atoms: N_28  and  C_29
REMARK    7  A    between atoms: C_32  and  N_35
REMARK    8  A    between atoms: N_35  and  C_36
REMARK                            x       y       z     vdW  Elec       q    Type
REMARK                         _______ _______ _______ _____ _____    ______ ____
ROOT
ATOM      1  C   UNL     1       1.388   2.105  -0.270  0.00  0.00    +0.105 C 
ATOM      2  C   UNL     1       2.538   1.811  -1.236  0.00  0.00    +0.029 C 
ATOM      3  C   UNL     1       3.793   2.575  -0.726  0.00  0.00    +0.033 C 
ATOM      4  C   UNL     1       3.590   3.981  -1.254  0.00  0.00    -0.030 C 
ATOM      5  C   UNL     1       2.761   3.977  -2.267  0.00  0.00    -0.023 C 
ATOM      6  C   UNL     1       2.286   2.571  -2.556  0.00  0.00    +0.049 C 
ATOM      7  C   UNL     1       0.830   2.569  -2.920  0.00  0.00    -0.019 A 
ATOM      8  C   UNL     1       0.470   3.068  -4.164  0.00  0.00    +0.006 A 
ATOM      9  C   UNL     1      -0.853   3.100  -4.563  0.00  0.00    +0.001 A 
ATOM     10  C   UNL     1      -1.842   2.632  -3.725  0.00  0.00    +0.015 A 
ATOM     11  C   UNL     1      -1.500   2.124  -2.472  0.00  0.00    +0.058 A 
ATOM     12  C   UNL     1      -0.151   2.090  -2.069  0.00  0.00    +0.044 A 
ATOM     13  N   UNL     1       0.142   1.569  -0.818  0.00  0.00    -0.336 N 
ATOM     14  H   UNL     1      -0.443   0.837  -0.242  0.00  0.00    +0.147 HD
ENDROOT
BRANCH   1  18
ATOM     15  C   UNL     1       1.014   6.330   0.255  0.00  0.00    +0.029 A 
ATOM     16  C   UNL     1       0.165   5.659  -0.616  0.00  0.00    +0.023 A 
ATOM     17  C   UNL     1       0.289   4.294  -0.783  0.00  0.00    +0.007 A 
ATOM     18  C   UNL     1       1.256   3.595  -0.085  0.00  0.00    -0.027 A 
ATOM     19  C   UNL     1       2.099   4.259   0.788  0.00  0.00    +0.007 A 
ATOM     20  C   UNL     1       1.984   5.625   0.956  0.00  0.00    +0.023 A 
BRANCH  15  22
ATOM     21  C   UNL     1      -0.209   8.434  -0.216  0.00  0.00    +0.129 C 
ATOM     22  N   UNL     1       0.891   7.711   0.427  0.00  0.00    -0.336 N 
ATOM     23  C   UNL     1       1.862   8.436   1.250  0.00  0.00    +0.129 C 
ENDBRANCH  15  22
ENDBRANCH   1  18
BRANCH  11  24
ATOM     24  C   UNL     1      -2.552   1.623  -1.568  0.00  0.00    +0.250 C 
ATOM     25  O   UNL     1      -2.254   1.180  -0.475  0.00  0.00    -0.270 OA
ATOM     26  N   UNL     1      -3.843   1.655  -1.953  0.00  0.00    -0.281 N 
ATOM     27  H   UNL     1      -4.106   1.994  -2.966  0.00  0.00    +0.155 HD
BRANCH  26  28
ATOM     28  C   UNL     1      -4.849   1.257  -1.064  0.00  0.00    +0.034 A 
ATOM     29  C   UNL     1      -5.986   0.620  -1.542  0.00  0.00    +0.025 A 
ATOM     30  C   UNL     1      -6.976   0.224  -0.665  0.00  0.00    +0.025 A 
ATOM     31  C   UNL     1      -6.839   0.472   0.695  0.00  0.00    +0.031 A 
ATOM     32  C   UNL     1      -5.704   1.114   1.173  0.00  0.00    +0.025 A 
ATOM     33  C   UNL     1      -4.712   1.506   0.296  0.00  0.00    +0.025 A 
BRANCH  31  34
ATOM     34  N   UNL     1      -7.845   0.075   1.583  0.00  0.00    -0.314 N 
ATOM     35  H   UNL     1      -7.691   0.176   2.668  0.00  0.00    +0.152 HD
BRANCH  34  36
ATOM     36  C   UNL     1      -9.043  -0.448   1.093  0.00  0.00    +0.031 A 
ATOM     37  C   UNL     1      -9.746   0.230   0.105  0.00  0.00    +0.023 A 
ATOM     38  C   UNL     1     -10.928  -0.293  -0.382  0.00  0.00    +0.002 A 
ATOM     39  C   UNL     1     -11.418  -1.485   0.122  0.00  0.00    +0.000 A 
ATOM     40  C   UNL     1     -10.724  -2.159   1.110  0.00  0.00    +0.002 A 
ATOM     41  C   UNL     1      -9.538  -1.645   1.597  0.00  0.00    +0.023 A 
ENDBRANCH  34  36
ENDBRANCH  31  34
ENDBRANCH  26  28
ENDBRANCH  11  24
TORSDOF 6
