REMARK  Name = ZINC63851989
REMARK  10 active torsions:
REMARK  status: ('A' for Active; 'I' for Inactive)
REMARK    1  A    between atoms: C_1  and  C_2
REMARK    2  A    between atoms: C_3  and  C_15
REMARK    3  A    between atoms: C_5  and  C_7
REMARK    4  A    between atoms: C_7  and  C_8
REMARK    5  A    between atoms: N_17  and  N_18
REMARK    6  A    between atoms: N_18  and  C_19
REMARK    7  A    between atoms: C_20  and  C_27
REMARK    8  A    between atoms: C_22  and  C_24
REMARK    9  A    between atoms: C_24  and  C_25
REMARK   10  A    between atoms: C_24  and  C_26
REMARK                            x       y       z     vdW  Elec       q    Type
REMARK                         _______ _______ _______ _____ _____    ______ ____
ROOT
ATOM      1  C   UNL     1      -0.008  -0.248  -2.562  0.00  0.00    +0.269 C 
ATOM      2  O   UNL     1      -0.025   0.946  -2.797  0.00  0.00    -0.268 OA
ATOM      3  N   UNL     1      -0.001  -1.134  -3.577  0.00  0.00    -0.230 N 
ATOM      4  H   UNL     1       0.014  -2.086  -3.389  0.00  0.00    +0.173 HD
ENDROOT
BRANCH   1   7
ATOM      5  C   UNL     1      -0.018   1.503   0.010  0.00  0.00    +0.067 C 
ATOM      6  C   UNL     1       0.002  -0.004   0.002  0.00  0.00    +0.058 A 
ATOM      7  C   UNL     1       0.006  -0.722  -1.174  0.00  0.00    +0.098 A 
ATOM      8  S   UNL     1       0.033  -2.390  -0.537  0.00  0.00    -0.067 S 
ATOM      9  C   UNL     1       0.036  -2.012   1.103  0.00  0.00    +0.084 A 
ATOM     10  N   UNL     1       0.022  -0.699   1.113  0.00  0.00    -0.248 NA
BRANCH   9  11
ATOM     11  C   UNL     1       0.054  -2.955   2.278  0.00  0.00    +0.098 C 
BRANCH  11  12
ATOM     12  C   UNL     1      -1.361  -3.288   2.677  0.00  0.00    -0.041 A 
ATOM     13  C   UNL     1      -2.020  -2.504   3.604  0.00  0.00    +0.007 A 
ATOM     14  C   UNL     1      -3.317  -2.808   3.970  0.00  0.00    +0.038 A 
ATOM     15  C   UNL     1      -3.957  -3.900   3.408  0.00  0.00    +0.123 A 
ATOM     16  C   UNL     1      -3.295  -4.685   2.479  0.00  0.00    +0.038 A 
ATOM     17  C   UNL     1      -2.000  -4.375   2.110  0.00  0.00    +0.007 A 
ATOM     18  F   UNL     1      -5.225  -4.199   3.765  0.00  0.00    -0.205 F 
ENDBRANCH  11  12
ENDBRANCH   9  11
ENDBRANCH   1   7
BRANCH   3  19
ATOM     19  N   UNL     1      -0.014  -0.681  -4.902  0.00  0.00    -0.232 N 
ATOM     20  H   UNL     1      -0.028   0.270  -5.090  0.00  0.00    +0.173 HD
BRANCH  19  21
ATOM     21  C   UNL     1      -0.006  -1.589  -5.941  0.00  0.00    +0.241 A 
ATOM     22  C   UNL     1      -0.012  -1.298  -7.295  0.00  0.00    +0.202 A 
ATOM     23  N   UNL     1       0.000  -2.491  -7.953  0.00  0.00    -0.200 NA
ATOM     24  C   UNL     1       0.012  -3.449  -7.077  0.00  0.00    +0.202 A 
ATOM     25  O   UNL     1       0.013  -2.930  -5.838  0.00  0.00    -0.423 OA
BRANCH  24  26
ATOM     26  C   UNL     1       0.027  -4.920  -7.401  0.00  0.00    +0.069 C 
ATOM     27  C   UNL     1      -1.220  -5.277  -8.213  0.00  0.00    +0.017 C 
ATOM     28  C   UNL     1       1.279  -5.250  -8.216  0.00  0.00    +0.017 C 
ENDBRANCH  24  26
BRANCH  22  29
ATOM     29  C   UNL     1      -0.027   0.005  -7.889  0.00  0.00    +0.124 C 
ATOM     30  N   UNL     1      -0.038   1.039  -8.360  0.00  0.00    -0.189 NA
ENDBRANCH  22  29
ENDBRANCH  19  21
ENDBRANCH   3  19
TORSDOF 7
