REMARK  Name = ZINC06665040
REMARK  7 active torsions:
REMARK  status: ('A' for Active; 'I' for Inactive)
REMARK    1  A    between atoms: C_2  and  C_3
REMARK    2  A    between atoms: C_2  and  N_21
REMARK    3  A    between atoms: C_4  and  O_5
REMARK    4  A    between atoms: N_12  and  C_15
REMARK    5  A    between atoms: N_21  and  N_22
REMARK    6  A    between atoms: N_22  and  C_23
REMARK    7  A    between atoms: C_26  and  N_29
REMARK                            x       y       z     vdW  Elec       q    Type
REMARK                         _______ _______ _______ _____ _____    ______ ____
ROOT
ATOM      1  C   UNL     1      -1.130  -0.870   0.301  0.00  0.00    +0.103 A 
ATOM      2  C   UNL     1      -1.022  -2.219  -0.012  0.00  0.00    +0.140 A 
ATOM      3  C   UNL     1      -2.257  -2.988  -0.202  0.00  0.00    +0.041 A 
ATOM      4  C   UNL     1      -2.217  -4.350  -0.517  0.00  0.00    +0.013 A 
ATOM      5  C   UNL     1      -3.384  -5.041  -0.687  0.00  0.00    +0.001 A 
ATOM      6  C   UNL     1      -4.608  -4.401  -0.549  0.00  0.00    +0.002 A 
ATOM      7  C   UNL     1      -4.670  -3.060  -0.239  0.00  0.00    +0.027 A 
ATOM      8  C   UNL     1      -3.496  -2.337  -0.060  0.00  0.00    +0.061 A 
ATOM      9  N   UNL     1      -3.535  -0.992   0.253  0.00  0.00    -0.276 N 
ATOM     10  C   UNL     1      -2.410  -0.280   0.433  0.00  0.00    +0.269 A 
ATOM     11  O   UNL     1      -2.494   0.903   0.713  0.00  0.00    -0.266 OA
ENDROOT
BRANCH   9  12
ATOM     12  C   UNL     1      -4.776  -0.357   0.390  0.00  0.00    +0.050 A 
ATOM     13  C   UNL     1      -5.493  -0.479   1.572  0.00  0.00    +0.026 A 
ATOM     14  C   UNL     1      -6.716   0.148   1.704  0.00  0.00    +0.002 A 
ATOM     15  C   UNL     1      -7.227   0.898   0.660  0.00  0.00    +0.000 A 
ATOM     16  C   UNL     1      -6.515   1.021  -0.519  0.00  0.00    +0.002 A 
ATOM     17  C   UNL     1      -5.289   0.400  -0.655  0.00  0.00    +0.026 A 
ENDBRANCH   9  12
BRANCH   1  19
ATOM     18  C   UNL     1       0.944   0.123  -0.508  0.00  0.00    +0.035 C 
ATOM     19  C   UNL     1       0.086  -0.055   0.500  0.00  0.00    +0.053 C 
BRANCH  19  20
ATOM     20  N   UNL     1       0.338   0.529   1.742  0.00  0.00    -0.266 N 
ATOM     21  H   UNL     1      -0.324   0.473   2.448  0.00  0.00    +0.170 HD
BRANCH  20  22
ATOM     22  N   UNL     1       1.549   1.197   1.969  0.00  0.00    -0.267 N 
ATOM     23  H   UNL     1       2.211   1.254   1.263  0.00  0.00    +0.170 HD
BRANCH  22  24
ATOM     24  C   UNL     1       1.801   1.782   3.212  0.00  0.00    +0.044 A 
ATOM     25  C   UNL     1       0.856   1.697   4.226  0.00  0.00    +0.026 A 
ATOM     26  C   UNL     1       1.109   2.276   5.454  0.00  0.00    +0.034 A 
ATOM     27  C   UNL     1       2.302   2.940   5.675  0.00  0.00    +0.126 A 
ATOM     28  C   UNL     1       3.245   3.026   4.667  0.00  0.00    +0.034 A 
ATOM     29  C   UNL     1       3.001   2.445   3.439  0.00  0.00    +0.026 A 
BRANCH  27  30
ATOM     30  N   UNL     1       2.569   3.560   6.992  0.00  0.00    +0.056 N 
ATOM     31  O   UNL     1       1.745   3.486   7.874  0.00  0.00    -0.126 OA
ATOM     32  O   UNL     1       3.612   4.141   7.186  0.00  0.00    -0.126 OA
ENDBRANCH  27  30
ENDBRANCH  22  24
ENDBRANCH  20  22
ENDBRANCH  19  20
ENDBRANCH   1  19
BRANCH   2  33
ATOM     33  O   UNL     1       0.189  -2.808  -0.139  0.00  0.00    -0.505 OA
ATOM     34  H   UNL     1       0.934  -2.206  -0.009  0.00  0.00    +0.292 HD
ENDBRANCH   2  33
TORSDOF 7
