REMARK  Name = ZINC01045288
REMARK  4 active torsions:
REMARK  status: ('A' for Active; 'I' for Inactive)
REMARK    1  A    between atoms: C_4  and  N_7
REMARK    2  A    between atoms: C_8  and  N_12
REMARK    3  A    between atoms: C_13  and  C_14
REMARK    4  A    between atoms: C_19  and  O_20
REMARK                            x       y       z     vdW  Elec       q    Type
REMARK                         _______ _______ _______ _____ _____    ______ ____
ROOT
ATOM      1  N   UNL     1       3.623  -0.651  -0.037  0.00  0.00    -0.215 N 
ATOM      2  C   UNL     1       3.891  -1.841   0.584  0.00  0.00    +0.156 A 
ATOM      3  C   UNL     1       5.210  -2.150   0.311  0.00  0.00    +0.069 A 
ATOM      4  C   UNL     1       5.728  -1.128  -0.482  0.00  0.00    +0.137 A 
ATOM      5  N   UNL     1       4.788  -0.241  -0.695  0.00  0.00    -0.173 NA
ENDROOT
BRANCH   1   9
ATOM      6  C   UNL     1      -0.017   1.379   0.010  0.00  0.00    +0.000 A 
ATOM      7  C   UNL     1       1.170   2.089   0.002  0.00  0.00    +0.002 A 
ATOM      8  C   UNL     1       2.377   1.419  -0.013  0.00  0.00    +0.028 A 
ATOM      9  C   UNL     1       2.400   0.031  -0.021  0.00  0.00    +0.068 A 
ATOM     10  C   UNL     1       1.206  -0.680  -0.013  0.00  0.00    +0.028 A 
ATOM     11  C   UNL     1       0.002  -0.004   0.002  0.00  0.00    +0.002 A 
ENDBRANCH   1   9
BRANCH   2  12
ATOM     12  N   UNL     1       3.023  -2.579   1.328  0.00  0.00    -0.235 NA
ATOM     13  C   UNL     1       3.416  -3.702   1.865  0.00  0.00    +0.124 C 
BRANCH  13  14
ATOM     14  C   UNL     1       2.480  -4.500   2.669  0.00  0.00    +0.036 A 
ATOM     15  C   UNL     1       2.898  -5.701   3.251  0.00  0.00    +0.028 A 
ATOM     16  C   UNL     1       2.013  -6.444   4.004  0.00  0.00    +0.019 A 
ATOM     17  C   UNL     1       0.711  -6.006   4.187  0.00  0.00    +0.019 A 
ATOM     18  C   UNL     1       0.285  -4.821   3.617  0.00  0.00    +0.047 A 
ATOM     19  C   UNL     1       1.161  -4.058   2.862  0.00  0.00    +0.125 A 
ATOM     20 BR   UNL     1       2.579  -8.068   4.790  0.00  0.00    -0.050 Br
BRANCH  19  21
ATOM     21  O   UNL     1       0.745  -2.892   2.307  0.00  0.00    -0.506 OA
ATOM     22  H   UNL     1       0.372  -2.989   1.420  0.00  0.00    +0.292 HD
ENDBRANCH  19  21
ENDBRANCH  13  14
ENDBRANCH   2  12
TORSDOF 4
