REMARK  Name = ZINC06760707
REMARK  5 active torsions:
REMARK  status: ('A' for Active; 'I' for Inactive)
REMARK    1  A    between atoms: C_1  and  C_2
REMARK    2  A    between atoms: N_7  and  C_8
REMARK    3  A    between atoms: C_8  and  C_25
REMARK    4  A    between atoms: N_11  and  C_19
REMARK    5  A    between atoms: C_12  and  C_13
REMARK                            x       y       z     vdW  Elec       q    Type
REMARK                         _______ _______ _______ _____ _____    ______ ____
ROOT
ATOM      1  C   UNL     1      -0.192   1.609   0.037  0.00  0.00    +0.281 C 
ATOM      2  C   UNL     1       1.296   1.824   0.237  0.00  0.00    +0.274 C 
ATOM      3  O   UNL     1       1.884   2.882   0.315  0.00  0.00    -0.270 OA
ATOM      4  N   UNL     1       1.824   0.584   0.309  0.00  0.00    -0.251 N 
ATOM      5  C   UNL     1       0.841  -0.369   0.177  0.00  0.00    +0.111 C 
ATOM      6  N   UNL     1      -0.328   0.152   0.019  0.00  0.00    -0.337 N 
ATOM      7  H   UNL     1      -1.206  -0.368  -0.099  0.00  0.00    +0.164 HD
ENDROOT
BRANCH   1  14
ATOM      8  C   UNL     1      -4.704  -0.561  -1.073  0.00  0.00    +0.044 C 
ATOM      9  C   UNL     1      -3.849   0.508  -1.704  0.00  0.00    -0.046 A 
ATOM     10  C   UNL     1      -4.275   1.176  -2.845  0.00  0.00    +0.021 A 
ATOM     11  C   UNL     1      -3.469   2.150  -3.399  0.00  0.00    +0.084 A 
ATOM     12  C   UNL     1      -1.862   1.837  -1.773  0.00  0.00    +0.099 A 
ATOM     13  C   UNL     1      -2.620   0.841  -1.165  0.00  0.00    +0.045 A 
ATOM     14  N   UNL     1      -0.627   2.186  -1.238  0.00  0.00    -0.294 N 
ATOM     15  H   UNL     1      -0.054   2.811  -1.708  0.00  0.00    +0.150 HD
ATOM     16  N   UNL     1      -2.259   2.507  -2.893  0.00  0.00    -0.350 N 
ATOM     17  H   UNL     1      -1.680   3.236  -3.326  0.00  0.00    +0.166 HD
ENDBRANCH   1  14
BRANCH   5  18
ATOM     18  C   UNL     1       1.101  -1.826   0.213  0.00  0.00    +0.013 A 
ATOM     19  C   UNL     1       2.291  -2.337  -0.306  0.00  0.00    +0.011 A 
ATOM     20  C   UNL     1       2.531  -3.696  -0.263  0.00  0.00    +0.001 A 
ATOM     21  C   UNL     1       1.589  -4.551   0.281  0.00  0.00    +0.000 A 
ATOM     22  C   UNL     1       0.405  -4.050   0.792  0.00  0.00    +0.001 A 
ATOM     23  C   UNL     1       0.156  -2.693   0.761  0.00  0.00    +0.011 A 
ENDBRANCH   5  18
BRANCH   4  24
ATOM     24  C   UNL     1       3.247   0.294   0.501  0.00  0.00    +0.083 C 
ATOM     25  C   UNL     1       3.742   0.987   1.772  0.00  0.00    +0.023 C 
ATOM     26  C   UNL     1       5.228   0.683   1.973  0.00  0.00    +0.002 C 
ATOM     27  C   UNL     1       6.020   1.198   0.769  0.00  0.00    +0.000 C 
ATOM     28  C   UNL     1       5.526   0.504  -0.501  0.00  0.00    +0.002 C 
ATOM     29  C   UNL     1       4.039   0.808  -0.702  0.00  0.00    +0.023 C 
ENDBRANCH   4  24
BRANCH   1  30
ATOM     30  C   UNL     1      -0.982   2.213   1.199  0.00  0.00    +0.438 C 
ATOM     31  F   UNL     1      -0.446   1.764   2.411  0.00  0.00    -0.166 F 
ATOM     32  F   UNL     1      -0.903   3.608   1.142  0.00  0.00    -0.166 F 
ATOM     33  F   UNL     1      -2.321   1.818   1.107  0.00  0.00    -0.166 F 
ENDBRANCH   1  30
TORSDOF 4
