REMARK  Name = ZINC58847435
REMARK  8 active torsions:
REMARK  status: ('A' for Active; 'I' for Inactive)
REMARK    1  A    between atoms: C_1  and  O_2
REMARK    2  A    between atoms: O_2  and  C_3
REMARK    3  A    between atoms: C_7  and  C_11
REMARK    4  A    between atoms: C_8  and  O_9
REMARK    5  A    between atoms: O_9  and  C_10
REMARK    6  A    between atoms: C_22  and  S_27
REMARK    7  A    between atoms: S_27  and  N_30
REMARK    8  A    between atoms: N_30  and  C_31
REMARK                            x       y       z     vdW  Elec       q    Type
REMARK                         _______ _______ _______ _____ _____    ______ ____
ROOT
ATOM      1  C   UNL     1       5.101  -5.840   0.445  0.00  0.00    +0.109 C 
ATOM      2  C   UNL     1       3.724  -5.349   0.779  0.00  0.00    +0.029 C 
ATOM      3  C   UNL     1       3.750  -4.010   1.544  0.00  0.00    +0.033 C 
ATOM      4  C   UNL     1       2.478  -4.038   2.364  0.00  0.00    -0.030 C 
ATOM      5  C   UNL     1       2.008  -5.255   2.456  0.00  0.00    -0.023 C 
ATOM      6  C   UNL     1       2.915  -6.221   1.736  0.00  0.00    +0.049 C 
ATOM      7  C   UNL     1       3.764  -6.915   2.763  0.00  0.00    -0.018 A 
ATOM      8  C   UNL     1       3.134  -7.483   3.862  0.00  0.00    +0.034 A 
ATOM      9  C   UNL     1       3.872  -8.121   4.838  0.00  0.00    +0.109 A 
ATOM     10  C   UNL     1       5.248  -8.200   4.729  0.00  0.00    +0.030 A 
ATOM     11  C   UNL     1       5.882  -7.642   3.638  0.00  0.00    +0.025 A 
ATOM     12  C   UNL     1       5.139  -7.002   2.649  0.00  0.00    +0.031 A 
ATOM     13  N   UNL     1       5.788  -6.492   1.541  0.00  0.00    -0.336 N 
ATOM     14  H   UNL     1       6.755  -6.553   1.513  0.00  0.00    +0.147 HD
ENDROOT
BRANCH   1  19
ATOM     15  C   UNL     1       6.541  -3.073  -1.699  0.00  0.00    +0.162 A 
ATOM     16  C   UNL     1       7.460  -2.506  -0.830  0.00  0.00    +0.049 A 
ATOM     17  C   UNL     1       7.611  -3.018   0.446  0.00  0.00    +0.004 A 
ATOM     18  C   UNL     1       6.848  -4.095   0.857  0.00  0.00    +0.009 A 
ATOM     19  C   UNL     1       5.931  -4.666  -0.006  0.00  0.00    +0.018 A 
ATOM     20  C   UNL     1       5.770  -4.154  -1.284  0.00  0.00    +0.166 A 
BRANCH  15  22
ATOM     21  C   UNL     1       7.217  -1.461  -3.312  0.00  0.00    +0.277 C 
ATOM     22  O   UNL     1       6.391  -2.571  -2.954  0.00  0.00    -0.491 OA
ENDBRANCH  15  22
BRANCH  20  23
ATOM     23  O   UNL     1       4.863  -4.710  -2.131  0.00  0.00    -0.491 OA
ATOM     24  C   UNL     1       5.323  -5.777  -2.963  0.00  0.00    +0.277 C 
ENDBRANCH  20  23
ENDBRANCH   1  19
BRANCH   9  25
ATOM     25  S   UNL     1       3.058  -8.838   6.227  0.00  0.00    +0.072 S 
ATOM     26  O   UNL     1       3.978  -8.785   7.309  0.00  0.00    -0.150 OA
ATOM     27  O   UNL     1       1.769  -8.243   6.294  0.00  0.00    -0.150 OA
BRANCH  25  28
ATOM     28  N   UNL     1       2.823 -10.441   5.884  0.00  0.00    -0.216 N 
ATOM     29  H   UNL     1       3.247 -11.121   6.430  0.00  0.00    +0.174 HD
BRANCH  28  30
ATOM     30  C   UNL     1       2.014 -10.813   4.808  0.00  0.00    +0.049 A 
ATOM     31  C   UNL     1       0.632 -10.713   4.909  0.00  0.00    +0.024 A 
ATOM     32  C   UNL     1      -0.166 -11.082   3.843  0.00  0.00    +0.003 A 
ATOM     33  C   UNL     1       0.409 -11.550   2.676  0.00  0.00    +0.020 A 
ATOM     34  C   UNL     1       1.786 -11.652   2.572  0.00  0.00    +0.043 A 
ATOM     35  C   UNL     1       2.590 -11.279   3.633  0.00  0.00    +0.044 A 
ATOM     36 CL   UNL     1       2.503 -12.241   1.106  0.00  0.00    -0.083 Cl
ENDBRANCH  28  30
ENDBRANCH  25  28
ENDBRANCH   9  25
TORSDOF 6
