REMARK  Name = ZINC04102190
REMARK  9 active torsions:
REMARK  status: ('A' for Active; 'I' for Inactive)
REMARK    1  A    between atoms: C_1  and  C_2
REMARK    2  A    between atoms: C_2  and  C_38
REMARK    3  A    between atoms: C_3  and  C_24
REMARK    4  A    between atoms: C_9  and  N_13
REMARK    5  A    between atoms: C_14  and  C_16
REMARK    6  A    between atoms: C_16  and  C_18
REMARK    7  A    between atoms: C_16  and  N_57
REMARK    8  A    between atoms: C_24  and  O_26
REMARK    9  A    between atoms: O_26  and  C_27
REMARK                            x       y       z     vdW  Elec       q    Type
REMARK                         _______ _______ _______ _____ _____    ______ ____
ROOT
ATOM      1  C   UNL     1      -1.694   6.873   2.861  0.00  0.00    +0.025 C 
ATOM      2  C   UNL     1      -3.058   6.362   2.393  0.00  0.00    +0.042 C 
ATOM      3  C   UNL     1      -3.174   4.819   2.547  0.00  0.00    +0.201 C 
ATOM      4  N   UNL     1      -4.572   4.402   2.687  0.00  0.00    -0.271 N 
ATOM      5  C   UNL     1      -5.482   5.387   3.299  0.00  0.00    +0.165 C 
ATOM      6  S   UNL     1      -4.405   6.856   3.561  0.00  0.00    -0.127 S 
ATOM      7  C   UNL     1      -5.655   4.515   4.536  0.00  0.00    +0.190 C 
ATOM      8  C   UNL     1      -4.870   3.532   3.681  0.00  0.00    +0.240 C 
ATOM      9  O   UNL     1      -4.603   2.360   3.836  0.00  0.00    -0.273 OA
ATOM     10  C   UNL     1      -3.362   6.810   0.962  0.00  0.00    +0.025 C 
ENDROOT
BRANCH   7  11
ATOM     11  N   UNL     1      -4.944   4.998   5.722  0.00  0.00    -0.303 N 
ATOM     12  C   UNL     1      -5.379   4.660   6.952  0.00  0.00    +0.203 C 
ATOM     13  O   UNL     1      -6.359   3.956   7.077  0.00  0.00    -0.277 OA
ATOM     14  H   UNL     1      -4.161   5.561   5.622  0.00  0.00    +0.149 HD
BRANCH  12  15
ATOM     15  C   UNL     1      -4.648   5.157   8.172  0.00  0.00    +0.043 C 
BRANCH  15  16
ATOM     16  C   UNL     1      -5.057   6.579   8.459  0.00  0.00    -0.053 A 
ATOM     17  C   UNL     1      -6.251   6.837   9.106  0.00  0.00    +0.002 A 
ATOM     18  C   UNL     1      -6.625   8.140   9.373  0.00  0.00    +0.000 A 
ATOM     19  C   UNL     1      -5.809   9.187   8.985  0.00  0.00    +0.000 A 
ATOM     20  C   UNL     1      -4.617   8.929   8.334  0.00  0.00    +0.000 A 
ATOM     21  C   UNL     1      -4.241   7.625   8.071  0.00  0.00    +0.002 A 
ENDBRANCH  15  16
BRANCH  15  24
ATOM     22  H   UNL     1      -4.457   4.581  10.140  0.00  0.00    -0.088 HD
ATOM     23  H   UNL     1      -5.975   4.328   9.511  0.00  0.00    -0.088 HD
ATOM     24  N   UNL     1      -4.976   4.286   9.315  0.00  0.00    +0.388 N 
ATOM     25  H   UNL     1      -4.720   3.318   9.086  0.00  0.00    -0.088 HD
ENDBRANCH  15  24
ENDBRANCH  12  15
ENDBRANCH   7  11
BRANCH   3  26
ATOM     26  C   UNL     1      -2.580   4.156   1.331  0.00  0.00    +0.332 C 
ATOM     27  O   UNL     1      -3.302   3.750   0.451  0.00  0.00    -0.249 OA
BRANCH  26  28
ATOM     28  O   UNL     1      -1.250   4.016   1.226  0.00  0.00    -0.419 OA
BRANCH  28  29
ATOM     29  C   UNL     1      -0.748   3.368   0.027  0.00  0.00    +0.403 C 
ATOM     30  C   UNL     1       0.760   3.402   0.013  0.00  0.00    +0.047 A 
ATOM     31  C   UNL     1       1.681   4.423   0.010  0.00  0.00    +0.012 A 
ATOM     32  C   UNL     1       3.035   4.133  -0.005  0.00  0.00    +0.001 A 
ATOM     33  C   UNL     1       3.465   2.817  -0.016  0.00  0.00    +0.001 A 
ATOM     34  C   UNL     1       2.550   1.785  -0.013  0.00  0.00    +0.015 A 
ATOM     35  C   UNL     1       1.183   2.070   0.002  0.00  0.00    +0.069 A 
ATOM     36  C   UNL     1      -0.014   1.210   0.009  0.00  0.00    +0.343 C 
ATOM     37  O   UNL     1       0.002  -0.004   0.002  0.00  0.00    -0.245 OA
ATOM     38  O   UNL     1      -1.127   1.964   0.018  0.00  0.00    -0.417 OA
ENDBRANCH  28  29
ENDBRANCH  26  28
ENDBRANCH   3  26
TORSDOF 7
