REMARK  Name = ZINC36548284
REMARK  11 active torsions:
REMARK  status: ('A' for Active; 'I' for Inactive)
REMARK    1  A    between atoms: C_1  and  C_2
REMARK    2  A    between atoms: C_2  and  C_3
REMARK    3  A    between atoms: C_2  and  C_4
REMARK    4  A    between atoms: C_2  and  N_5
REMARK    5  A    between atoms: C_6  and  C_8
REMARK    6  A    between atoms: C_8  and  C_10
REMARK    7  A    between atoms: C_8  and  N_17
REMARK    8  A    between atoms: N_17  and  C_18
REMARK    9  A    between atoms: C_25  and  C_27
REMARK   10  A    between atoms: C_27  and  N_28
REMARK   11  A    between atoms: C_29  and  C_31
REMARK                            x       y       z     vdW  Elec       q    Type
REMARK                         _______ _______ _______ _____ _____    ______ ____
ROOT
ATOM      1  N   UNL     1       3.992   0.019  -2.652  0.00  0.00    -0.253 N 
ATOM      2  C   UNL     1       4.420   0.585  -3.798  0.00  0.00    +0.238 C 
ATOM      3  O   UNL     1       3.626   0.853  -4.675  0.00  0.00    -0.274 OA
ENDROOT
BRANCH   1   4
ATOM      4  C   UNL     1       4.909  -0.289  -1.640  0.00  0.00    +0.056 A 
ATOM      5  C   UNL     1       5.739  -1.395  -1.766  0.00  0.00    +0.025 A 
ATOM      6  C   UNL     1       6.642  -1.698  -0.766  0.00  0.00    +0.002 A 
ATOM      7  C   UNL     1       6.721  -0.900   0.361  0.00  0.00    +0.002 A 
ATOM      8  C   UNL     1       5.896   0.201   0.492  0.00  0.00    +0.022 A 
ATOM      9  C   UNL     1       4.994   0.513  -0.508  0.00  0.00    +0.062 A 
ATOM     10 CL   UNL     1       3.964   1.901  -0.348  0.00  0.00    -0.082 Cl
ENDBRANCH   1   4
BRANCH   1  11
ATOM     11  C   UNL     1       2.569  -0.272  -2.465  0.00  0.00    +0.197 C 
BRANCH  11  12
ATOM     12  C   UNL     1       2.146  -1.350  -3.430  0.00  0.00    -0.018 A 
ATOM     13  C   UNL     1       2.919  -2.486  -3.578  0.00  0.00    +0.007 A 
ATOM     14  C   UNL     1       2.532  -3.475  -4.463  0.00  0.00    +0.020 A 
ATOM     15  C   UNL     1       1.370  -3.327  -5.200  0.00  0.00    +0.041 A 
ATOM     16  C   UNL     1       0.597  -2.190  -5.051  0.00  0.00    +0.020 A 
ATOM     17  C   UNL     1       0.982  -1.204  -4.161  0.00  0.00    +0.007 A 
ATOM     18 CL   UNL     1       0.883  -4.569  -6.311  0.00  0.00    -0.084 Cl
ENDBRANCH  11  12
BRANCH  11  20
ATOM     19  N   UNL     1       1.208  -0.385  -0.403  0.00  0.00    -0.309 N 
ATOM     20  C   UNL     1       2.333  -0.742  -1.052  0.00  0.00    +0.239 C 
ATOM     21  O   UNL     1       3.157  -1.440  -0.501  0.00  0.00    -0.273 OA
ATOM     22  H   UNL     1       0.549   0.174  -0.844  0.00  0.00    +0.149 HD
BRANCH  19  24
ATOM     23  C   UNL     1       2.104  -0.330   1.872  0.00  0.00    +0.031 C 
ATOM     24  C   UNL     1       0.979  -0.841   0.971  0.00  0.00    +0.026 C 
ATOM     25  C   UNL     1       0.955  -2.370   1.002  0.00  0.00    +0.031 C 
ATOM     26  C   UNL     1      -0.362  -0.299   1.471  0.00  0.00    +0.031 C 
ENDBRANCH  19  24
ENDBRANCH  11  20
ENDBRANCH   1  11
BRANCH   2  27
ATOM     27  C   UNL     1       5.884   0.885  -3.990  0.00  0.00    +0.201 C 
BRANCH  27  28
ATOM     28  N   UNL     1       6.089   1.493  -5.307  0.00  0.00    -0.303 N 
ATOM     29  C   UNL     1       7.329   1.848  -5.700  0.00  0.00    +0.244 C 
ATOM     30  O   UNL     1       8.277   1.663  -4.961  0.00  0.00    -0.270 OA
ATOM     31  H   UNL     1       5.333   1.640  -5.897  0.00  0.00    +0.150 HD
BRANCH  29  32
ATOM     32  C   UNL     1       7.536   2.461  -7.029  0.00  0.00    +0.037 A 
ATOM     33  C   UNL     1       6.449   2.679  -7.877  0.00  0.00    +0.013 A 
ATOM     34  C   UNL     1       6.650   3.253  -9.116  0.00  0.00    +0.001 A 
ATOM     35  C   UNL     1       7.924   3.610  -9.518  0.00  0.00    +0.000 A 
ATOM     36  C   UNL     1       9.006   3.396  -8.682  0.00  0.00    +0.001 A 
ATOM     37  C   UNL     1       8.819   2.829  -7.439  0.00  0.00    +0.013 A 
ENDBRANCH  29  32
ENDBRANCH  27  28
ENDBRANCH   2  27
TORSDOF 8
