REMARK  Name = ZINC58846677
REMARK  10 active torsions:
REMARK  status: ('A' for Active; 'I' for Inactive)
REMARK    1  A    between atoms: C_1  and  C_2
REMARK    2  A    between atoms: C_4  and  C_38
REMARK    3  A    between atoms: C_6  and  N_8
REMARK    4  A    between atoms: N_8  and  S_9
REMARK    5  A    between atoms: S_9  and  C_12
REMARK    6  A    between atoms: C_25  and  C_28
REMARK    7  A    between atoms: C_32  and  O_36
REMARK    8  A    between atoms: C_33  and  O_34
REMARK    9  A    between atoms: O_34  and  C_35
REMARK   10  A    between atoms: O_36  and  C_37
REMARK                            x       y       z     vdW  Elec       q    Type
REMARK                         _______ _______ _______ _____ _____    ______ ____
ROOT
ATOM      1  C   UNL     1       0.455  -1.514   6.396  0.00  0.00    +0.109 A 
ATOM      2  C   UNL     1       0.999  -0.730   5.396  0.00  0.00    +0.030 A 
ATOM      3  C   UNL     1       0.612   0.589   5.272  0.00  0.00    +0.025 A 
ATOM      4  C   UNL     1      -0.324   1.127   6.150  0.00  0.00    +0.031 A 
ATOM      5  C   UNL     1      -0.880   0.338   7.145  0.00  0.00    -0.018 A 
ATOM      6  C   UNL     1      -0.481  -0.986   7.262  0.00  0.00    +0.034 A 
ATOM      7  C   UNL     1      -1.915   0.868   8.079  0.00  0.00    +0.049 C 
ATOM      8  C   UNL     1      -1.350   1.161   9.445  0.00  0.00    -0.023 C 
ATOM      9  C   UNL     1      -1.920   2.225   9.953  0.00  0.00    -0.030 C 
ATOM     10  C   UNL     1      -2.942   2.799   8.996  0.00  0.00    +0.033 C 
ATOM     11  C   UNL     1      -2.561   2.178   7.632  0.00  0.00    +0.029 C 
ATOM     12  C   UNL     1      -1.605   3.123   6.933  0.00  0.00    +0.109 C 
ATOM     13  N   UNL     1      -0.690   2.462   6.025  0.00  0.00    -0.336 N 
ATOM     14  H   UNL     1      -0.296   2.982   5.308  0.00  0.00    +0.147 HD
ENDROOT
BRANCH  12  15
ATOM     15  C   UNL     1      -0.824   3.875   7.980  0.00  0.00    +0.018 A 
ATOM     16  C   UNL     1       0.152   3.226   8.714  0.00  0.00    +0.009 A 
ATOM     17  C   UNL     1       0.869   3.913   9.675  0.00  0.00    +0.004 A 
ATOM     18  C   UNL     1       0.614   5.252   9.907  0.00  0.00    +0.049 A 
ATOM     19  C   UNL     1      -0.362   5.908   9.176  0.00  0.00    +0.162 A 
ATOM     20  C   UNL     1      -1.081   5.218   8.204  0.00  0.00    +0.166 A 
BRANCH  20  21
ATOM     21  O   UNL     1      -2.037   5.859   7.479  0.00  0.00    -0.491 OA
ATOM     22  C   UNL     1      -3.326   5.991   8.080  0.00  0.00    +0.277 C 
ENDBRANCH  20  21
BRANCH  19  23
ATOM     23  O   UNL     1      -0.615   7.225   9.403  0.00  0.00    -0.491 OA
ATOM     24  C   UNL     1       0.165   7.870  10.412  0.00  0.00    +0.277 C 
ENDBRANCH  19  23
ENDBRANCH  12  15
BRANCH   1  25
ATOM     25  S   UNL     1       0.953  -3.196   6.563  0.00  0.00    +0.072 S 
ATOM     26  O   UNL     1       0.585  -3.601   7.874  0.00  0.00    -0.150 OA
ATOM     27  O   UNL     1       2.291  -3.272   6.090  0.00  0.00    -0.150 OA
BRANCH  25  28
ATOM     28  N   UNL     1       0.030  -4.087   5.515  0.00  0.00    -0.216 N 
ATOM     29  H   UNL     1       0.453  -4.579   4.794  0.00  0.00    +0.174 HD
BRANCH  28  35
ATOM     30  C   UNL     1      -3.886  -4.611   8.438  0.00  0.00    +0.044 C 
ATOM     31  C   UNL     1      -3.284  -4.382   7.076  0.00  0.00    -0.048 A 
ATOM     32  C   UNL     1      -4.106  -4.213   5.977  0.00  0.00    +0.006 A 
ATOM     33  C   UNL     1      -3.558  -4.002   4.725  0.00  0.00    -0.048 A 
ATOM     34  C   UNL     1      -2.186  -3.960   4.568  0.00  0.00    +0.028 A 
ATOM     35  C   UNL     1      -1.357  -4.129   5.670  0.00  0.00    +0.049 A 
ATOM     36  C   UNL     1      -1.912  -4.335   6.927  0.00  0.00    +0.028 A 
ATOM     37  C   UNL     1      -4.458  -3.819   3.530  0.00  0.00    +0.044 C 
ENDBRANCH  28  35
ENDBRANCH  25  28
ENDBRANCH   1  25
TORSDOF 6
