REMARK  Name = ZINC00888407
REMARK  10 active torsions:
REMARK  status: ('A' for Active; 'I' for Inactive)
REMARK    1  A    between atoms: C_1  and  C_2
REMARK    2  A    between atoms: C_5  and  C_7
REMARK    3  A    between atoms: C_7  and  C_9
REMARK    4  A    between atoms: C_7  and  N_18
REMARK    5  A    between atoms: N_11  and  C_12
REMARK    6  A    between atoms: N_18  and  C_19
REMARK    7  A    between atoms: C_19  and  C_20
REMARK    8  A    between atoms: C_27  and  C_29
REMARK    9  A    between atoms: C_29  and  N_30
REMARK   10  A    between atoms: C_32  and  C_35
REMARK                            x       y       z     vdW  Elec       q    Type
REMARK                         _______ _______ _______ _____ _____    ______ ____
ROOT
ATOM      1  N   UNL     1       2.803  -2.822  -0.945  0.00  0.00    -0.277 N 
ATOM      2  C   UNL     1       3.077  -3.255  -2.192  0.00  0.00    +0.240 C 
ATOM      3  O   UNL     1       2.537  -4.253  -2.619  0.00  0.00    -0.273 OA
ENDROOT
BRANCH   1   4
ATOM      4  C   UNL     1       1.752  -3.473  -0.159  0.00  0.00    +0.228 C 
BRANCH   4   9
ATOM      5  C   UNL     1       0.042   0.820   1.866  0.00  0.00    +0.086 C 
ATOM      6  C   UNL     1       0.067  -0.561   1.263  0.00  0.00    +0.102 A 
ATOM      7  C   UNL     1      -1.008  -1.335   1.026  0.00  0.00    +0.045 A 
ATOM      8  C   UNL     1      -0.528  -2.538   0.458  0.00  0.00    +0.047 A 
ATOM      9  C   UNL     1       0.810  -2.428   0.382  0.00  0.00    +0.135 A 
ATOM     10  O   UNL     1       1.164  -1.226   0.866  0.00  0.00    -0.462 OA
ENDBRANCH   4   9
BRANCH   4  11
ATOM     11  C   UNL     1       2.375  -4.228   0.987  0.00  0.00    +0.241 C 
ATOM     12  O   UNL     1       3.574  -4.410   1.012  0.00  0.00    -0.273 OA
ATOM     13  N   UNL     1       1.601  -4.701   1.983  0.00  0.00    -0.311 N 
ATOM     14  H   UNL     1       0.642  -4.556   1.963  0.00  0.00    +0.149 HD
BRANCH  13  15
ATOM     15  C   UNL     1       2.207  -5.435   3.096  0.00  0.00    +0.073 C 
ATOM     16  C   UNL     1       2.360  -6.909   2.713  0.00  0.00    +0.022 C 
ATOM     17  C   UNL     1       2.993  -7.675   3.876  0.00  0.00    +0.002 C 
ATOM     18  C   UNL     1       2.097  -7.560   5.111  0.00  0.00    +0.000 C 
ATOM     19  C   UNL     1       1.944  -6.087   5.494  0.00  0.00    +0.002 C 
ATOM     20  C   UNL     1       1.311  -5.320   4.331  0.00  0.00    +0.022 C 
ENDBRANCH  13  15
ENDBRANCH   4  11
ENDBRANCH   1   4
BRANCH   1  21
ATOM     21  C   UNL     1       3.557  -1.703  -0.376  0.00  0.00    +0.145 C 
BRANCH  21  22
ATOM     22  C   UNL     1       4.336  -2.179   0.824  0.00  0.00    -0.012 A 
ATOM     23  C   UNL     1       3.851  -1.951   2.098  0.00  0.00    +0.006 A 
ATOM     24  C   UNL     1       4.565  -2.388   3.198  0.00  0.00    +0.000 A 
ATOM     25  C   UNL     1       5.764  -3.054   3.024  0.00  0.00    +0.001 A 
ATOM     26  C   UNL     1       6.250  -3.283   1.751  0.00  0.00    +0.020 A 
ATOM     27  C   UNL     1       5.532  -2.851   0.649  0.00  0.00    +0.046 A 
ATOM     28 CL   UNL     1       6.138  -3.144  -0.951  0.00  0.00    -0.083 Cl
ENDBRANCH  21  22
ENDBRANCH   1  21
BRANCH   2  29
ATOM     29  C   UNL     1       4.053  -2.497  -3.054  0.00  0.00    +0.264 C 
BRANCH  29  30
ATOM     30  N   UNL     1       4.084  -3.091  -4.393  0.00  0.00    -0.154 N 
ATOM     31  N   UNL     1       4.868  -4.043  -4.768  0.00  0.00    -0.130 NA
ATOM     32  C   UNL     1       4.605  -4.308  -6.032  0.00  0.00    +0.207 A 
ATOM     33  N   UNL     1       3.626  -3.472  -6.404  0.00  0.00    -0.108 NA
ATOM     34  N   UNL     1       3.330  -2.748  -5.378  0.00  0.00    -0.045 NA
BRANCH  32  35
ATOM     35  C   UNL     1       5.265  -5.333  -6.879  0.00  0.00    +0.058 A 
ATOM     36  C   UNL     1       6.270  -6.137  -6.348  0.00  0.00    +0.014 A 
ATOM     37  C   UNL     1       6.881  -7.089  -7.139  0.00  0.00    +0.001 A 
ATOM     38  C   UNL     1       6.497  -7.246  -8.459  0.00  0.00    +0.003 A 
ATOM     39  C   UNL     1       5.499  -6.452  -8.994  0.00  0.00    +0.039 A 
ATOM     40  C   UNL     1       4.876  -5.499  -8.209  0.00  0.00    +0.134 A 
ATOM     41  F   UNL     1       3.898  -4.726  -8.729  0.00  0.00    -0.205 F 
ENDBRANCH  32  35
ENDBRANCH  29  30
ENDBRANCH   2  29
TORSDOF 9
