REMARK  Name = ZINC62328486
REMARK  3 active torsions:
REMARK  status: ('A' for Active; 'I' for Inactive)
REMARK    1  A    between atoms: C_6  and  C_7
REMARK    2  A    between atoms: C_9  and  C_12
REMARK    3  A    between atoms: N_14  and  C_15
REMARK                            x       y       z     vdW  Elec       q    Type
REMARK                         _______ _______ _______ _____ _____    ______ ____
ROOT
ATOM      1  C   UNL     1      -3.349  -3.793   0.020  0.00  0.00    +0.270 C 
ATOM      2  O   UNL     1      -2.622  -4.766   0.005  0.00  0.00    -0.268 OA
ATOM      3  N   UNL     1      -4.687  -3.952   0.032  0.00  0.00    -0.280 N 
ATOM      4  H   UNL     1      -5.267  -3.179   0.112  0.00  0.00    +0.155 HD
ENDROOT
BRANCH   3   5
ATOM      5  C   UNL     1      -5.241  -5.234  -0.072  0.00  0.00    +0.037 A 
ATOM      6  C   UNL     1      -4.599  -6.316   0.520  0.00  0.00    +0.025 A 
ATOM      7  C   UNL     1      -5.141  -7.582   0.420  0.00  0.00    +0.031 A 
ATOM      8  C   UNL     1      -6.327  -7.773  -0.271  0.00  0.00    +0.087 A 
ATOM      9  C   UNL     1      -6.974  -6.690  -0.866  0.00  0.00    +0.159 A 
ATOM     10  C   UNL     1      -6.431  -5.420  -0.759  0.00  0.00    +0.071 A 
ATOM     11  O   UNL     1      -8.093  -7.168  -1.463  0.00  0.00    -0.408 OA
ATOM     12  C   UNL     1      -8.168  -8.494  -1.265  0.00  0.00    +0.419 A 
ATOM     13  O   UNL     1      -9.055  -9.217  -1.676  0.00  0.00    -0.223 OA
ATOM     14  N   UNL     1      -7.106  -8.900  -0.541  0.00  0.00    -0.288 N 
ATOM     15  H   UNL     1      -6.918  -9.809  -0.259  0.00  0.00    +0.172 HD
ENDBRANCH   3   5
BRANCH   1  18
ATOM     16  C   UNL     1      -1.267  -0.763   0.026  0.00  0.00    +0.168 A 
ATOM     17  C   UNL     1      -1.388  -2.117   0.016  0.00  0.00    +0.086 A 
ATOM     18  C   UNL     1      -2.764  -2.430   0.026  0.00  0.00    +0.168 A 
ATOM     19  N   UNL     1      -3.436  -1.303   0.042  0.00  0.00    -0.073 NA
ATOM     20  O   UNL     1      -2.505  -0.236   0.048  0.00  0.00    -0.354 OA
BRANCH  16  26
ATOM     21  C   UNL     1      -0.017   1.392   0.038  0.00  0.00    +0.013 A 
ATOM     22  C   UNL     1       1.169   2.095   0.033  0.00  0.00    +0.021 A 
ATOM     23  C   UNL     1       2.378   1.419   0.010  0.00  0.00    +0.041 A 
ATOM     24  C   UNL     1       2.403   0.035  -0.009  0.00  0.00    +0.021 A 
ATOM     25  C   UNL     1       1.223  -0.679  -0.004  0.00  0.00    +0.013 A 
ATOM     26  C   UNL     1       0.002  -0.004   0.020  0.00  0.00    +0.020 A 
ATOM     27 CL   UNL     1       3.867   2.311   0.003  0.00  0.00    -0.084 Cl
ENDBRANCH  16  26
ENDBRANCH   1  18
TORSDOF 3
