REMARK  Name = ZINC36207665
REMARK  11 active torsions:
REMARK  status: ('A' for Active; 'I' for Inactive)
REMARK    1  A    between atoms: C_1  and  C_2
REMARK    2  A    between atoms: C_7  and  C_8
REMARK    3  A    between atoms: C_17  and  C_19
REMARK    4  A    between atoms: C_19  and  N_20
REMARK    5  A    between atoms: N_20  and  C_21
REMARK    6  A    between atoms: N_20  and  C_28
REMARK    7  A    between atoms: C_21  and  C_22
REMARK    8  A    between atoms: C_28  and  C_29
REMARK    9  A    between atoms: C_29  and  C_31
REMARK   10  A    between atoms: C_29  and  O_38
REMARK   11  A    between atoms: C_31  and  N_32
REMARK                            x       y       z     vdW  Elec       q    Type
REMARK                         _______ _______ _______ _____ _____    ______ ____
ROOT
ATOM      1  C   UNL     1      -5.069   3.094   4.762  0.00  0.00    +0.159 C 
ENDROOT
BRANCH   1  11
ATOM      2  C   UNL     1      -1.902  -0.768   2.015  0.00  0.00    +0.004 A 
ATOM      3  C   UNL     1      -0.650  -0.867   2.523  0.00  0.00    +0.056 A 
ATOM      4  S   UNL     1      -0.649   0.317   3.855  0.00  0.00    -0.076 S 
ATOM      5  C   UNL     1      -2.313   0.912   3.701  0.00  0.00    +0.116 A 
ATOM      6  C   UNL     1      -2.829   0.183   2.617  0.00  0.00    +0.080 A 
ATOM      7  C   UNL     1      -4.185   0.473   2.264  0.00  0.00    +0.260 A 
ATOM      8  O   UNL     1      -4.723  -0.112   1.339  0.00  0.00    -0.267 OA
ATOM      9  N   UNL     1      -4.859   1.402   2.968  0.00  0.00    -0.309 N 
ATOM     10  H   UNL     1      -5.778   1.602   2.733  0.00  0.00    +0.170 HD
ATOM     11  C   UNL     1      -4.276   2.062   4.001  0.00  0.00    +0.125 A 
ATOM     12  N   UNL     1      -3.043   1.813   4.353  0.00  0.00    -0.225 NA
BRANCH   2  19
ATOM     13  C   UNL     1      -2.546   0.485  -0.512  0.00  0.00    +0.044 C 
ATOM     14  C   UNL     1      -2.632  -1.011  -0.356  0.00  0.00    -0.043 A 
ATOM     15  C   UNL     1      -3.015  -1.796  -1.425  0.00  0.00    +0.004 A 
ATOM     16  C   UNL     1      -3.094  -3.170  -1.283  0.00  0.00    +0.000 A 
ATOM     17  C   UNL     1      -2.791  -3.765  -0.072  0.00  0.00    +0.001 A 
ATOM     18  C   UNL     1      -2.407  -2.990   1.004  0.00  0.00    +0.009 A 
ATOM     19  C   UNL     1      -2.320  -1.605   0.865  0.00  0.00    -0.014 A 
ENDBRANCH   2  19
ENDBRANCH   1  11
BRANCH   1  20
ATOM     20  N   UNL     1      -4.234   3.668   5.825  0.00  0.00    -0.289 NA
BRANCH  20  21
ATOM     21  C   UNL     1      -3.908   2.658   6.841  0.00  0.00    +0.120 C 
BRANCH  21  22
ATOM     22  C   UNL     1      -2.743   3.136   7.669  0.00  0.00    -0.033 A 
ATOM     23  C   UNL     1      -1.450   2.949   7.217  0.00  0.00    +0.005 A 
ATOM     24  C   UNL     1      -0.382   3.387   7.976  0.00  0.00    +0.000 A 
ATOM     25  C   UNL     1      -0.606   4.014   9.188  0.00  0.00    +0.000 A 
ATOM     26  C   UNL     1      -1.899   4.203   9.639  0.00  0.00    +0.000 A 
ATOM     27  C   UNL     1      -2.967   3.768   8.878  0.00  0.00    +0.005 A 
ENDBRANCH  21  22
ENDBRANCH  20  21
BRANCH  20  28
ATOM     28  C   UNL     1      -4.885   4.836   6.433  0.00  0.00    +0.117 C 
BRANCH  28  29
ATOM     29  C   UNL     1      -4.875   6.000   5.439  0.00  0.00    +0.142 C 
BRANCH  29  30
ATOM     30  O   UNL     1      -3.525   6.381   5.166  0.00  0.00    -0.389 OA
ATOM     31  H   UNL     1      -3.009   6.594   5.956  0.00  0.00    +0.210 HD
ENDBRANCH  29  30
BRANCH  29  32
ATOM     32  C   UNL     1      -5.630   7.188   6.039  0.00  0.00    +0.117 C 
BRANCH  32  33
ATOM     33  N   UNL     1      -5.745   8.252   5.033  0.00  0.00    -0.296 NA
ATOM     34  C   UNL     1      -4.461   8.943   4.846  0.00  0.00    +0.112 C 
ATOM     35  C   UNL     1      -4.611  10.001   3.750  0.00  0.00    +0.175 C 
ATOM     36  O   UNL     1      -5.663  10.902   4.105  0.00  0.00    -0.377 OA
ATOM     37  C   UNL     1      -6.929  10.263   4.293  0.00  0.00    +0.175 C 
ATOM     38  C   UNL     1      -6.802   9.207   5.395  0.00  0.00    +0.112 C 
ENDBRANCH  32  33
ENDBRANCH  29  32
ENDBRANCH  28  29
ENDBRANCH  20  28
ENDBRANCH   1  20
TORSDOF 10
