REMARK  Name = ZINC20527629
REMARK  11 active torsions:
REMARK  status: ('A' for Active; 'I' for Inactive)
REMARK    1  A    between atoms: C_1  and  N_2
REMARK    2  A    between atoms: N_2  and  C_3
REMARK    3  A    between atoms: N_2  and  C_4
REMARK    4  A    between atoms: C_7  and  C_10
REMARK    5  A    between atoms: N_11  and  N_12
REMARK    6  A    between atoms: C_16  and  S_19
REMARK    7  A    between atoms: N_17  and  N_18
REMARK    8  A    between atoms: S_19  and  C_20
REMARK    9  A    between atoms: C_20  and  C_21
REMARK   10  A    between atoms: N_23  and  C_24
REMARK   11  A    between atoms: C_26  and  C_31
REMARK                            x       y       z     vdW  Elec       q    Type
REMARK                         _______ _______ _______ _____ _____    ______ ____
ROOT
ATOM      1  N   UNL     1       0.141   1.380   0.072  0.00  0.00    -0.204 N 
ATOM      2  C   UNL     1       0.136  -0.007   0.055  0.00  0.00    +0.254 A 
ATOM      3  N   UNL     1      -0.927  -0.774   0.061  0.00  0.00    -0.109 NA
ATOM      4  N   UNL     1      -0.499  -2.108   0.035  0.00  0.00    -0.119 NA
ATOM      5  C   UNL     1       0.813  -2.112   0.023  0.00  0.00    +0.210 A 
ATOM      6  N   UNL     1       1.239  -0.815   0.035  0.00  0.00    -0.211 N 
ATOM      7  H   UNL     1       1.095   1.926   0.075  0.00  0.00    +0.177 HD
ENDROOT
BRANCH   6   8
ATOM      8  N   UNL     1       2.540  -0.397   0.028  0.00  0.00    -0.294 N 
ATOM      9  H   UNL     1       3.355  -1.136   0.011  0.00  0.00    +0.163 HD
ATOM     10  H   UNL     1       2.772   0.678   0.038  0.00  0.00    +0.163 HD
ENDBRANCH   6   8
BRANCH   1  12
ATOM     11  C   UNL     1      -1.065   3.383   0.102  0.00  0.00    +0.138 C 
ATOM     12  N   UNL     1      -1.070   2.084   0.086  0.00  0.00    -0.188 NA
BRANCH  11  16
ATOM     13  C   UNL     1      -4.735   5.519   0.143  0.00  0.00    +0.029 A 
ATOM     14  C   UNL     1      -3.529   6.212   0.147  0.00  0.00    +0.024 A 
ATOM     15  C   UNL     1      -2.336   5.522   0.134  0.00  0.00    +0.011 A 
ATOM     16  C   UNL     1      -2.339   4.125   0.117  0.00  0.00    -0.005 A 
ATOM     17  C   UNL     1      -3.553   3.432   0.108  0.00  0.00    +0.011 A 
ATOM     18  C   UNL     1      -4.742   4.128   0.125  0.00  0.00    +0.024 A 
BRANCH  13  20
ATOM     19  C   UNL     1      -5.939   7.683   0.062  0.00  0.00    +0.129 C 
ATOM     20  N   UNL     1      -5.941   6.221   0.156  0.00  0.00    -0.336 N 
ATOM     21  C   UNL     1      -7.209   5.495   0.263  0.00  0.00    +0.129 C 
ENDBRANCH  13  20
ENDBRANCH  11  16
ENDBRANCH   1  12
BRANCH   5  22
ATOM     22  S   UNL     1       1.843  -3.541  -0.004  0.00  0.00    -0.075 S 
BRANCH  22  23
ATOM     23  C   UNL     1       0.672  -4.927  -0.011  0.00  0.00    +0.173 C 
BRANCH  23  24
ATOM     24  C   UNL     1       1.433  -6.227  -0.034  0.00  0.00    +0.228 C 
ATOM     25  O   UNL     1       2.646  -6.220  -0.044  0.00  0.00    -0.275 OA
ATOM     26  N   UNL     1       0.766  -7.398  -0.042  0.00  0.00    -0.284 N 
ATOM     27  H   UNL     1      -0.330  -7.407   0.042  0.00  0.00    +0.155 HD
BRANCH  26  28
ATOM     28  C   UNL     1       1.469  -8.603  -0.158  0.00  0.00    +0.052 A 
ATOM     29  C   UNL     1       2.722  -8.737   0.425  0.00  0.00    +0.037 A 
ATOM     30  C   UNL     1       3.412  -9.928   0.312  0.00  0.00    +0.057 A 
ATOM     31  C   UNL     1       2.859 -10.985  -0.388  0.00  0.00    +0.014 A 
ATOM     32  C   UNL     1       1.614 -10.855  -0.974  0.00  0.00    +0.022 A 
ATOM     33  C   UNL     1       0.917  -9.667  -0.862  0.00  0.00    +0.062 A 
ATOM     34 CL   UNL     1      -0.647  -9.503  -1.598  0.00  0.00    -0.082 Cl
BRANCH  30  35
ATOM     35  C   UNL     1       4.769 -10.075   0.949  0.00  0.00    +0.417 C 
ATOM     36  F   UNL     1       5.267 -11.358   0.697  0.00  0.00    -0.166 F 
ATOM     37  F   UNL     1       5.642  -9.123   0.412  0.00  0.00    -0.166 F 
ATOM     38  F   UNL     1       4.660  -9.881   2.330  0.00  0.00    -0.166 F 
ENDBRANCH  30  35
ENDBRANCH  26  28
ENDBRANCH  23  24
ENDBRANCH  22  23
ENDBRANCH   5  22
TORSDOF 9
