REMARK  Name = ZINC35316161
REMARK  9 active torsions:
REMARK  status: ('A' for Active; 'I' for Inactive)
REMARK    1  A    between atoms: C_1  and  C_2
REMARK    2  A    between atoms: N_4  and  N_5
REMARK    3  A    between atoms: C_6  and  C_8
REMARK    4  A    between atoms: C_8  and  S_9
REMARK    5  A    between atoms: S_9  and  C_10
REMARK    6  A    between atoms: C_22  and  C_26
REMARK    7  A    between atoms: C_26  and  C_27
REMARK    8  A    between atoms: C_26  and  C_28
REMARK    9  A    between atoms: C_26  and  C_29
REMARK                            x       y       z     vdW  Elec       q    Type
REMARK                         _______ _______ _______ _____ _____    ______ ____
ROOT
ATOM      1  C   UNL     1       0.055  -6.597  -3.911  0.00  0.00    +0.170 A 
ATOM      2  N   UNL     1       0.060  -7.374  -5.033  0.00  0.00    -0.301 N 
ATOM      3  H   UNL     1       0.051  -6.950  -5.905  0.00  0.00    +0.171 HD
ATOM      4  C   UNL     1       0.080  -8.717  -4.952  0.00  0.00    +0.261 A 
ATOM      5  O   UNL     1       0.085  -9.398  -5.963  0.00  0.00    -0.267 OA
ATOM      6  C   UNL     1       0.094  -9.336  -3.662  0.00  0.00    +0.075 A 
ATOM      7  C   UNL     1       0.114 -10.765  -3.341  0.00  0.00    -0.023 A 
ATOM      8  C   UNL     1       0.125 -11.098  -2.034  0.00  0.00    -0.004 A 
ATOM      9  S   UNL     1       0.110  -9.554  -1.164  0.00  0.00    -0.073 S 
ATOM     10  C   UNL     1       0.088  -8.461  -2.563  0.00  0.00    +0.117 A 
ATOM     11  N   UNL     1       0.073  -7.141  -2.711  0.00  0.00    -0.216 NA
ATOM     12  C   UNL     1       0.145 -12.478  -1.449  0.00  0.00    +0.046 C 
ATOM     13  C   UNL     1      -0.225 -13.477  -2.554  0.00  0.00    -0.000 C 
ATOM     14  C   UNL     1       0.602 -13.157  -3.803  0.00  0.00    +0.009 C 
ATOM     15  C   UNL     1       0.122 -11.843  -4.421  0.00  0.00    +0.037 C 
ENDROOT
BRANCH  13  16
ATOM     16  C   UNL     1       0.082 -14.900  -2.083  0.00  0.00    -0.035 C 
ATOM     17  C   UNL     1      -0.734 -15.208  -0.826  0.00  0.00    +0.011 C 
ATOM     18  C   UNL     1      -0.287 -15.894  -3.186  0.00  0.00    +0.011 C 
ATOM     19  C   UNL     1       1.574 -15.022  -1.765  0.00  0.00    +0.011 C 
ENDBRANCH  13  16
BRANCH   1  20
ATOM     20  S   UNL     1       0.029  -4.842  -4.069  0.00  0.00    -0.078 S 
BRANCH  20  21
ATOM     21  C   UNL     1       0.037  -4.247  -2.356  0.00  0.00    +0.174 C 
BRANCH  21  23
ATOM     22  N   UNL     1       0.019  -2.072  -1.177  0.00  0.00    -0.234 N 
ATOM     23  C   UNL     1       0.017  -2.740  -2.347  0.00  0.00    +0.239 C 
ATOM     24  O   UNL     1      -0.001  -2.128  -3.394  0.00  0.00    -0.273 OA
ATOM     25  H   UNL     1       0.034  -2.562  -0.339  0.00  0.00    +0.173 HD
BRANCH  22  29
ATOM     26  C   UNL     1      -0.018   1.503   0.010  0.00  0.00    +0.110 C 
ATOM     27  C   UNL     1       0.002  -0.004   0.002  0.00  0.00    +0.226 C 
ATOM     28  O   UNL     1       0.020  -0.616   1.049  0.00  0.00    -0.275 OA
ATOM     29  N   UNL     1       0.000  -0.672  -1.169  0.00  0.00    -0.235 N 
ATOM     30  H   UNL     1      -0.015  -0.182  -2.006  0.00  0.00    +0.173 HD
ENDBRANCH  22  29
ENDBRANCH  21  23
ENDBRANCH  20  21
ENDBRANCH   1  20
TORSDOF 5
