REMARK  Name = ZINC24743246
REMARK  8 active torsions:
REMARK  status: ('A' for Active; 'I' for Inactive)
REMARK    1  A    between atoms: C_1  and  C_2
REMARK    2  A    between atoms: C_2  and  C_3
REMARK    3  A    between atoms: C_2  and  C_4
REMARK    4  A    between atoms: C_4  and  C_6
REMARK    5  A    between atoms: C_4  and  N_24
REMARK    6  A    between atoms: N_11  and  C_14
REMARK    7  A    between atoms: C_19  and  N_20
REMARK    8  A    between atoms: C_25  and  C_27
REMARK                            x       y       z     vdW  Elec       q    Type
REMARK                         _______ _______ _______ _____ _____    ______ ____
ROOT
ATOM      1  C   UNL     1       4.648  -2.309  -0.145  0.00  0.00    +0.236 C 
ATOM      2  O   UNL     1       5.035  -2.869   0.859  0.00  0.00    -0.274 OA
ATOM      3  N   UNL     1       4.057  -1.101  -0.058  0.00  0.00    -0.297 N 
ATOM      4  C   UNL     1       3.769  -0.493   1.251  0.00  0.00    +0.126 C 
ATOM      5  C   UNL     1       2.299  -0.064   1.276  0.00  0.00    +0.124 C 
ATOM      6  N   UNL     1       2.023   0.796   0.117  0.00  0.00    -0.325 N 
ATOM      7  C   UNL     1       2.214   0.069  -1.144  0.00  0.00    +0.124 C 
ATOM      8  C   UNL     1       3.682  -0.355  -1.269  0.00  0.00    +0.126 C 
ENDROOT
BRANCH   6   9
ATOM      9  C   UNL     1       0.738   1.340   0.192  0.00  0.00    +0.060 A 
ATOM     10  C   UNL     1      -0.370   0.504   0.230  0.00  0.00    +0.027 A 
ATOM     11  C   UNL     1      -1.639   1.044   0.298  0.00  0.00    +0.022 A 
ATOM     12  C   UNL     1      -1.807   2.418   0.339  0.00  0.00    +0.043 A 
ATOM     13  C   UNL     1      -0.705   3.253   0.302  0.00  0.00    +0.054 A 
ATOM     14  C   UNL     1       0.567   2.718   0.228  0.00  0.00    +0.148 A 
ATOM     15 CL   UNL     1      -3.403   3.093   0.431  0.00  0.00    -0.083 Cl
BRANCH  14  16
ATOM     16  N   UNL     1       1.746   3.612   0.189  0.00  0.00    +0.058 N 
ATOM     17  O   UNL     1       1.595   4.820   0.220  0.00  0.00    -0.126 OA
ATOM     18  O   UNL     1       2.866   3.140   0.124  0.00  0.00    -0.126 OA
ENDBRANCH  14  16
ENDBRANCH   6   9
BRANCH   1  19
ATOM     19  C   UNL     1       4.828  -2.964  -1.490  0.00  0.00    +0.162 C 
BRANCH  19  20
ATOM     20  N   UNL     1       4.726  -4.418  -1.342  0.00  0.00    -0.300 N 
ATOM     21  C   UNL     1       4.353  -5.178  -2.391  0.00  0.00    +0.245 C 
ATOM     22  O   UNL     1       4.101  -4.656  -3.460  0.00  0.00    -0.270 OA
ATOM     23  H   UNL     1       4.954  -4.890  -0.375  0.00  0.00    +0.150 HD
BRANCH  21  24
ATOM     24  C   UNL     1       4.250  -6.644  -2.242  0.00  0.00    +0.037 A 
ATOM     25  C   UNL     1       4.544  -7.247  -1.017  0.00  0.00    +0.014 A 
ATOM     26  C   UNL     1       4.440  -8.615  -0.882  0.00  0.00    +0.021 A 
ATOM     27  C   UNL     1       4.056  -9.393  -1.962  0.00  0.00    +0.041 A 
ATOM     28  C   UNL     1       3.769  -8.802  -3.181  0.00  0.00    +0.021 A 
ATOM     29  C   UNL     1       3.863  -7.434  -3.327  0.00  0.00    +0.014 A 
ATOM     30 CL   UNL     1       3.935 -11.116  -1.787  0.00  0.00    -0.084 Cl
ENDBRANCH  21  24
ENDBRANCH  19  20
BRANCH  19  32
ATOM     31  C   UNL     1       6.360  -3.213  -3.447  0.00  0.00    +0.009 C 
ATOM     32  C   UNL     1       6.204  -2.604  -2.053  0.00  0.00    +0.012 C 
ATOM     33  C   UNL     1       6.336  -1.083  -2.143  0.00  0.00    +0.009 C 
ENDBRANCH  19  32
ENDBRANCH   1  19
TORSDOF 6
