REMARK  Name = ZINC20369181
REMARK  13 active torsions:
REMARK  status: ('A' for Active; 'I' for Inactive)
REMARK    1  A    between atoms: C_1  and  C_2
REMARK    2  A    between atoms: C_2  and  C_3
REMARK    3  A    between atoms: C_3  and  C_4
REMARK    4  A    between atoms: C_4  and  N_5
REMARK    5  A    between atoms: N_5  and  C_6
REMARK    6  A    between atoms: N_5  and  S_10
REMARK    7  A    between atoms: C_6  and  C_7
REMARK    8  A    between atoms: C_7  and  C_8
REMARK    9  A    between atoms: C_8  and  C_9
REMARK   10  A    between atoms: S_10  and  C_13
REMARK   11  A    between atoms: C_16  and  N_19
REMARK   12  A    between atoms: C_20  and  C_22
REMARK   13  A    between atoms: C_28  and  C_30
REMARK                            x       y       z     vdW  Elec       q    Type
REMARK                         _______ _______ _______ _____ _____    ______ ____
ROOT
ATOM      1  N   UNL     1       7.150   5.753   2.150  0.00  0.00    -0.285 N 
ATOM      2  C   UNL     1       7.296   4.493   1.692  0.00  0.00    +0.220 C 
ATOM      3  O   UNL     1       8.189   3.792   2.120  0.00  0.00    -0.275 OA
ATOM      4  H   UNL     1       6.290   6.359   1.829  0.00  0.00    +0.155 HD
ENDROOT
BRANCH   2   5
ATOM      5  C   UNL     1       6.350   3.957   0.650  0.00  0.00    +0.078 C 
ATOM      6  C   UNL     1       6.733   2.515   0.307  0.00  0.00    +0.032 C 
ATOM      7  C   UNL     1       5.748   1.961  -0.728  0.00  0.00    +0.109 C 
ATOM      8  N   UNL     1       5.717   2.868  -1.883  0.00  0.00    -0.297 N 
ATOM      9  C   UNL     1       5.452   4.295  -1.654  0.00  0.00    +0.109 C 
ATOM     10  C   UNL     1       6.435   4.822  -0.610  0.00  0.00    +0.032 C 
ATOM     11  C   UNL     1       5.932   2.401  -3.129  0.00  0.00    +0.247 C 
ATOM     12  O   UNL     1       6.072   1.207  -3.315  0.00  0.00    -0.270 OA
BRANCH  11  13
ATOM     13  C   UNL     1       5.997   3.339  -4.269  0.00  0.00    +0.037 A 
ATOM     14  C   UNL     1       7.020   3.224  -5.212  0.00  0.00    +0.014 A 
ATOM     15  C   UNL     1       7.076   4.102  -6.274  0.00  0.00    +0.021 A 
ATOM     16  C   UNL     1       6.121   5.096  -6.406  0.00  0.00    +0.041 A 
ATOM     17  C   UNL     1       5.104   5.215  -5.473  0.00  0.00    +0.021 A 
ATOM     18  C   UNL     1       5.037   4.343  -4.407  0.00  0.00    +0.014 A 
ATOM     19 CL   UNL     1       6.198   6.199  -7.745  0.00  0.00    -0.084 Cl
ENDBRANCH  11  13
ENDBRANCH   2   5
BRANCH   1  23
ATOM     20  C   UNL     1       9.956   7.350   4.783  0.00  0.00    +0.106 A 
ATOM     21  C   UNL     1      10.335   6.375   3.879  0.00  0.00    +0.030 A 
ATOM     22  C   UNL     1       9.407   5.843   3.005  0.00  0.00    +0.025 A 
ATOM     23  C   UNL     1       8.092   6.289   3.035  0.00  0.00    +0.034 A 
ATOM     24  C   UNL     1       7.716   7.273   3.940  0.00  0.00    +0.025 A 
ATOM     25  C   UNL     1       8.648   7.796   4.815  0.00  0.00    +0.030 A 
BRANCH  20  26
ATOM     26  S   UNL     1      11.143   8.025   5.897  0.00  0.00    +0.061 S 
ATOM     27  O   UNL     1      10.415   8.530   7.009  0.00  0.00    -0.153 OA
ATOM     28  O   UNL     1      12.169   7.052   6.036  0.00  0.00    -0.153 OA
BRANCH  26  29
ATOM     29  N   UNL     1      11.829   9.333   5.148  0.00  0.00    -0.177 NA
BRANCH  29  30
ATOM     30  C   UNL     1      11.239  10.664   5.312  0.00  0.00    +0.109 C 
BRANCH  30  31
ATOM     31  C   UNL     1      11.952  11.401   6.447  0.00  0.00    +0.017 C 
BRANCH  31  33
ATOM     32  C   UNL     1      12.049  13.528   7.754  0.00  0.00    +0.004 C 
ATOM     33  C   UNL     1      11.336  12.791   6.619  0.00  0.00    -0.002 C 
ENDBRANCH  31  33
ENDBRANCH  30  31
ENDBRANCH  29  30
BRANCH  29  34
ATOM     34  C   UNL     1      13.026   9.159   4.321  0.00  0.00    +0.109 C 
BRANCH  34  35
ATOM     35  C   UNL     1      12.615   8.996   2.857  0.00  0.00    +0.017 C 
BRANCH  35  36
ATOM     36  C   UNL     1      13.865   8.814   1.993  0.00  0.00    -0.002 C 
ATOM     37  C   UNL     1      13.454   8.652   0.528  0.00  0.00    +0.004 C 
ENDBRANCH  35  36
ENDBRANCH  34  35
ENDBRANCH  29  34
ENDBRANCH  26  29
ENDBRANCH  20  26
ENDBRANCH   1  23
TORSDOF 11
