REMARK  Name = ZINC01409628
REMARK  8 active torsions:
REMARK  status: ('A' for Active; 'I' for Inactive)
REMARK    1  A    between atoms: C_1  and  C_2
REMARK    2  A    between atoms: C_5  and  C_8
REMARK    3  A    between atoms: C_13  and  C_31
REMARK    4  A    between atoms: C_23  and  C_25
REMARK    5  A    between atoms: C_34  and  O_39
REMARK    6  A    between atoms: C_35  and  O_37
REMARK    7  A    between atoms: O_37  and  C_38
REMARK    8  A    between atoms: O_39  and  C_40
REMARK                            x       y       z     vdW  Elec       q    Type
REMARK                         _______ _______ _______ _____ _____    ______ ____
ROOT
ATOM      1  C   UNL     1      -0.030  -1.451   3.126  0.00  0.00    +0.032 C 
ATOM      2  C   UNL     1      -0.417  -0.024   2.739  0.00  0.00    +0.059 C 
ATOM      3  C   UNL     1       0.694   0.604   1.912  0.00  0.00    +0.017 C 
ATOM      4  C   UNL     1       1.976   0.288   2.151  0.00  0.00    +0.037 C 
ATOM      5  C   UNL     1       3.179   0.866   1.441  0.00  0.00    +0.147 C 
ATOM      6  N   UNL     1       2.859   1.631   0.255  0.00  0.00    -0.254 N 
ATOM      7  C   UNL     1       2.121   2.811   0.339  0.00  0.00    +0.059 A 
ATOM      8  C   UNL     1       2.693   4.040   0.045  0.00  0.00    +0.025 A 
ATOM      9  C   UNL     1       1.949   5.195   0.215  0.00  0.00    +0.002 A 
ATOM     10  C   UNL     1       0.646   5.128   0.673  0.00  0.00    +0.002 A 
ATOM     11  C   UNL     1       0.064   3.902   0.945  0.00  0.00    +0.025 A 
ATOM     12  C   UNL     1       0.801   2.746   0.758  0.00  0.00    +0.053 A 
ATOM     13  N   UNL     1       0.266   1.479   0.966  0.00  0.00    -0.316 N 
ATOM     14  C   UNL     1       3.281   1.197  -0.949  0.00  0.00    +0.252 C 
ATOM     15  O   UNL     1       3.827   0.115  -1.047  0.00  0.00    -0.270 OA
ATOM     16  C   UNL     1       2.304  -0.664   3.145  0.00  0.00    +0.163 C 
ATOM     17  O   UNL     1       3.475  -0.915   3.352  0.00  0.00    -0.292 OA
ATOM     18  C   UNL     1       1.260  -1.377   3.951  0.00  0.00    +0.088 C 
ATOM     19  H   UNL     1      -0.467   1.201   0.394  0.00  0.00    +0.152 HD
ENDROOT
BRANCH   1  24
ATOM     20  C   UNL     1      -4.244  -3.832   6.283  0.00  0.00    +0.044 C 
ATOM     21  C   UNL     1      -3.145  -3.212   5.460  0.00  0.00    -0.050 A 
ATOM     22  C   UNL     1      -2.770  -3.788   4.261  0.00  0.00    +0.003 A 
ATOM     23  C   UNL     1      -1.762  -3.218   3.506  0.00  0.00    +0.004 A 
ATOM     24  C   UNL     1      -1.129  -2.072   3.950  0.00  0.00    -0.043 A 
ATOM     25  C   UNL     1      -1.500  -1.499   5.152  0.00  0.00    +0.004 A 
ATOM     26  C   UNL     1      -2.511  -2.066   5.905  0.00  0.00    +0.003 A 
ENDBRANCH   1  24
BRANCH  14  27
ATOM     27  C   UNL     1       3.079   2.035  -2.149  0.00  0.00    +0.037 A 
ATOM     28  C   UNL     1       2.044   2.971  -2.185  0.00  0.00    +0.013 A 
ATOM     29  C   UNL     1       1.865   3.753  -3.307  0.00  0.00    +0.001 A 
ATOM     30  C   UNL     1       2.702   3.605  -4.399  0.00  0.00    +0.000 A 
ATOM     31  C   UNL     1       3.727   2.676  -4.371  0.00  0.00    +0.001 A 
ATOM     32  C   UNL     1       3.921   1.891  -3.254  0.00  0.00    +0.013 A 
ENDBRANCH  14  27
BRANCH   5  33
ATOM     33  C   UNL     1       3.917   1.763   2.402  0.00  0.00    -0.018 A 
ATOM     34  C   UNL     1       3.300   2.894   2.902  0.00  0.00    +0.009 A 
ATOM     35  C   UNL     1       3.973   3.720   3.783  0.00  0.00    +0.050 A 
ATOM     36  C   UNL     1       5.269   3.414   4.167  0.00  0.00    +0.162 A 
ATOM     37  C   UNL     1       5.889   2.275   3.664  0.00  0.00    +0.162 A 
ATOM     38  C   UNL     1       5.208   1.449   2.785  0.00  0.00    +0.055 A 
BRANCH  37  39
ATOM     39  O   UNL     1       7.161   1.970   4.038  0.00  0.00    -0.491 OA
ATOM     40  C   UNL     1       7.735   0.786   3.482  0.00  0.00    +0.277 C 
ENDBRANCH  37  39
BRANCH  36  41
ATOM     41  O   UNL     1       5.932   4.225   5.034  0.00  0.00    -0.491 OA
ATOM     42  C   UNL     1       5.232   5.377   5.510  0.00  0.00    +0.277 C 
ENDBRANCH  36  41
ENDBRANCH   5  33
TORSDOF 5
