REMARK  Name = ZINC08881596
REMARK  10 active torsions:
REMARK  status: ('A' for Active; 'I' for Inactive)
REMARK    1  A    between atoms: C_1  and  C_2
REMARK    2  A    between atoms: C_4  and  C_32
REMARK    3  A    between atoms: C_5  and  C_31
REMARK    4  A    between atoms: C_6  and  S_9
REMARK    5  A    between atoms: C_7  and  C_8
REMARK    6  A    between atoms: S_9  and  N_12
REMARK    7  A    between atoms: C_15  and  C_18
REMARK    8  A    between atoms: N_20  and  N_21
REMARK    9  A    between atoms: C_22  and  C_24
REMARK   10  A    between atoms: C_29  and  O_30
REMARK                            x       y       z     vdW  Elec       q    Type
REMARK                         _______ _______ _______ _____ _____    ______ ____
ROOT
ATOM      1  N   UNL     1       1.617  -2.804   3.335  0.00  0.00    -0.177 NA
ATOM      2  C   UNL     1       2.232  -4.110   3.061  0.00  0.00    +0.110 C 
ATOM      3  C   UNL     1       2.840  -4.651   4.358  0.00  0.00    +0.030 C 
ATOM      4  C   UNL     1       3.803  -3.612   4.937  0.00  0.00    +0.079 C 
ATOM      5  C   UNL     1       3.036  -2.328   5.262  0.00  0.00    +0.030 C 
ATOM      6  C   UNL     1       2.432  -1.759   3.969  0.00  0.00    +0.110 C 
ENDROOT
BRANCH   4   7
ATOM      7  C   UNL     1       4.429  -4.154   6.196  0.00  0.00    +0.232 C 
ATOM      8  O   UNL     1       4.134  -5.263   6.591  0.00  0.00    -0.274 OA
ATOM      9  N   UNL     1       5.316  -3.408   6.883  0.00  0.00    -0.234 N 
ATOM     10  H   UNL     1       5.552  -2.522   6.567  0.00  0.00    +0.173 HD
BRANCH   9  11
ATOM     11  N   UNL     1       5.898  -3.912   8.054  0.00  0.00    -0.230 N 
ATOM     12  C   UNL     1       6.786  -3.166   8.740  0.00  0.00    +0.264 C 
ATOM     13  O   UNL     1       7.082  -2.055   8.344  0.00  0.00    -0.269 OA
ATOM     14  H   UNL     1       5.663  -4.798   8.370  0.00  0.00    +0.173 HD
BRANCH  12  15
ATOM     15  C   UNL     1       7.399  -3.697   9.973  0.00  0.00    +0.079 A 
ATOM     16  C   UNL     1       7.066  -4.975  10.429  0.00  0.00    +0.017 A 
ATOM     17  C   UNL     1       7.642  -5.465  11.580  0.00  0.00    +0.001 A 
ATOM     18  C   UNL     1       8.550  -4.696  12.290  0.00  0.00    +0.004 A 
ATOM     19  C   UNL     1       8.887  -3.431  11.851  0.00  0.00    +0.046 A 
ATOM     20  C   UNL     1       8.322  -2.924  10.690  0.00  0.00    +0.129 A 
BRANCH  20  21
ATOM     21  O   UNL     1       8.657  -1.684  10.254  0.00  0.00    -0.506 OA
ATOM     22  H   UNL     1       8.095  -0.979  10.604  0.00  0.00    +0.292 HD
ENDBRANCH  20  21
ENDBRANCH  12  15
ENDBRANCH   9  11
ENDBRANCH   4   7
BRANCH   1  23
ATOM     23  S   UNL     1       0.037  -2.514   2.930  0.00  0.00    +0.061 S 
ATOM     24  O   UNL     1      -0.410  -1.460   3.772  0.00  0.00    -0.153 OA
ATOM     25  O   UNL     1      -0.609  -3.778   2.882  0.00  0.00    -0.153 OA
BRANCH  23  31
ATOM     26  C   UNL     1      -0.250  -3.191  -2.245  0.00  0.00    +0.044 C 
ATOM     27  C   UNL     1      -0.107  -2.250  -1.077  0.00  0.00    -0.045 A 
ATOM     28  C   UNL     1       0.017  -0.891  -1.296  0.00  0.00    +0.007 A 
ATOM     29  C   UNL     1       0.148  -0.027  -0.224  0.00  0.00    -0.045 A 
ATOM     30  C   UNL     1       0.154  -0.523   1.066  0.00  0.00    -0.021 A 
ATOM     31  C   UNL     1       0.029  -1.882   1.285  0.00  0.00    +0.112 A 
ATOM     32  C   UNL     1      -0.106  -2.745   0.214  0.00  0.00    -0.021 A 
ATOM     33  C   UNL     1      -0.248  -4.226   0.453  0.00  0.00    +0.046 C 
ATOM     34  C   UNL     1       0.298   0.418   2.234  0.00  0.00    +0.046 C 
ATOM     35  C   UNL     1       0.284   1.455  -0.463  0.00  0.00    +0.044 C 
ENDBRANCH  23  31
ENDBRANCH   1  23
TORSDOF 6
