REMARK  Name = ZINC63676444
REMARK  8 active torsions:
REMARK  status: ('A' for Active; 'I' for Inactive)
REMARK    1  A    between atoms: C_1  and  N_2
REMARK    2  A    between atoms: N_2  and  C_3
REMARK    3  A    between atoms: N_2  and  S_10
REMARK    4  A    between atoms: C_3  and  C_4
REMARK    5  A    between atoms: S_10  and  C_13
REMARK    6  A    between atoms: C_16  and  C_19
REMARK    7  A    between atoms: N_21  and  C_22
REMARK    8  A    between atoms: C_27  and  C_28
REMARK                            x       y       z     vdW  Elec       q    Type
REMARK                         _______ _______ _______ _____ _____    ______ ____
ROOT
ATOM      1  C   UNL     1       5.725  -1.630  -3.102  0.00  0.00    +0.248 C 
ATOM      2  O   UNL     1       6.294  -0.806  -3.792  0.00  0.00    -0.270 OA
ATOM      3  N   UNL     1       6.383  -2.730  -2.685  0.00  0.00    -0.281 N 
ATOM      4  H   UNL     1       5.950  -3.355  -2.083  0.00  0.00    +0.155 HD
ENDROOT
BRANCH   1   8
ATOM      5  C   UNL     1       1.663  -1.042  -2.008  0.00  0.00    +0.106 A 
ATOM      6  C   UNL     1       2.308  -0.103  -2.793  0.00  0.00    +0.029 A 
ATOM      7  C   UNL     1       3.627  -0.287  -3.151  0.00  0.00    +0.015 A 
ATOM      8  C   UNL     1       4.312  -1.425  -2.721  0.00  0.00    +0.037 A 
ATOM      9  C   UNL     1       3.655  -2.369  -1.930  0.00  0.00    +0.015 A 
ATOM     10  C   UNL     1       2.337  -2.170  -1.573  0.00  0.00    +0.029 A 
BRANCH   5  11
ATOM     11  S   UNL     1      -0.022  -0.799  -1.554  0.00  0.00    +0.061 S 
ATOM     12  O   UNL     1      -0.555  -2.084  -1.267  0.00  0.00    -0.153 OA
ATOM     13  O   UNL     1      -0.587   0.058  -2.537  0.00  0.00    -0.153 OA
BRANCH  11  15
ATOM     14  C   UNL     1      -0.047   1.510  -0.146  0.00  0.00    +0.131 C 
ATOM     15  N   UNL     1      -0.028   0.045  -0.130  0.00  0.00    -0.177 NA
BRANCH  15  16
ATOM     16  C   UNL     1      -0.015  -0.672   1.147  0.00  0.00    +0.140 C 
BRANCH  16  17
ATOM     17  C   UNL     1      -1.448  -0.832   1.658  0.00  0.00    +0.134 C 
ATOM     18  C   UNL     1      -1.453  -1.558   3.027  0.00  0.00    +0.035 C 
ATOM     19  C   UNL     1      -2.793  -1.050   3.625  0.00  0.00    +0.031 C 
ATOM     20  C   UNL     1      -2.874   0.389   3.071  0.00  0.00    +0.160 C 
ATOM     21  O   UNL     1      -2.032   0.456   1.913  0.00  0.00    -0.375 OA
ENDBRANCH  16  17
ENDBRANCH  15  16
ENDBRANCH  11  15
ENDBRANCH   5  11
ENDBRANCH   1   8
BRANCH   3  22
ATOM     22  C   UNL     1       7.690  -2.969  -3.120  0.00  0.00    +0.041 A 
ATOM     23  C   UNL     1       8.562  -1.907  -3.326  0.00  0.00    +0.024 A 
ATOM     24  C   UNL     1       9.852  -2.147  -3.756  0.00  0.00    +0.002 A 
ATOM     25  C   UNL     1      10.277  -3.444  -3.982  0.00  0.00    +0.001 A 
ATOM     26  C   UNL     1       9.412  -4.503  -3.779  0.00  0.00    +0.009 A 
ATOM     27  C   UNL     1       8.122  -4.271  -3.343  0.00  0.00    +0.016 A 
BRANCH  27  28
ATOM     28  C   UNL     1       7.182  -5.426  -3.115  0.00  0.00    +0.208 C 
ATOM     29  N   UNL     1       5.848  -5.101  -3.636  0.00  0.00    -0.360 N 
ATOM     30  C   UNL     1       5.567  -5.972  -4.562  0.00  0.00    +0.060 A 
ATOM     31  C   UNL     1       4.399  -6.164  -5.432  0.00  0.00    +0.027 A 
ATOM     32  C   UNL     1       4.389  -7.178  -6.319  0.00  0.00    +0.002 A 
ATOM     33  C   UNL     1       5.462  -8.077  -6.454  0.00  0.00    +0.002 A 
ATOM     34  C   UNL     1       6.580  -7.992  -5.707  0.00  0.00    +0.027 A 
ATOM     35  C   UNL     1       6.703  -6.924  -4.705  0.00  0.00    +0.060 A 
ATOM     36  N   UNL     1       7.642  -6.604  -3.862  0.00  0.00    -0.360 N 
ATOM     37  H   UNL     1       5.280  -4.371  -3.343  0.00  0.00    +0.162 HD
ATOM     38  H   UNL     1       8.491  -7.061  -3.748  0.00  0.00    +0.162 HD
ENDBRANCH  27  28
ENDBRANCH   3  22
TORSDOF 7
