REMARK  Name = ZINC14084458
REMARK  8 active torsions:
REMARK  status: ('A' for Active; 'I' for Inactive)
REMARK    1  A    between atoms: C_1  and  C_2
REMARK    2  A    between atoms: C_5  and  N_19
REMARK    3  A    between atoms: C_7  and  S_8
REMARK    4  A    between atoms: S_8  and  N_11
REMARK    5  A    between atoms: N_11  and  C_12
REMARK    6  A    between atoms: C_20  and  C_22
REMARK    7  A    between atoms: C_22  and  C_23
REMARK    8  A    between atoms: C_23  and  N_24
REMARK                            x       y       z     vdW  Elec       q    Type
REMARK                         _______ _______ _______ _____ _____    ______ ____
ROOT
ATOM      1  C   UNL     1      -0.035   1.475   0.019  0.00  0.00    +0.046 C 
ATOM      2  C   UNL     1       0.168  -0.014  -0.085  0.00  0.00    -0.024 A 
ATOM      3  C   UNL     1      -0.371  -0.711  -1.151  0.00  0.00    +0.007 A 
ATOM      4  C   UNL     1      -0.188  -2.076  -1.249  0.00  0.00    +0.023 A 
ATOM      5  C   UNL     1       0.540  -2.749  -0.276  0.00  0.00    +0.035 A 
ATOM      6  C   UNL     1       1.080  -2.046   0.793  0.00  0.00    +0.052 A 
ATOM      7  C   UNL     1       0.897  -0.680   0.882  0.00  0.00    +0.113 A 
ENDROOT
BRANCH   5   8
ATOM      8  N   UNL     1       0.728  -4.133  -0.372  0.00  0.00    -0.285 N 
ATOM      9  C   UNL     1       0.838  -4.715  -1.582  0.00  0.00    +0.219 C 
ATOM     10  O   UNL     1       0.864  -4.032  -2.584  0.00  0.00    -0.275 OA
ATOM     11  H   UNL     1       0.779  -4.672   0.432  0.00  0.00    +0.155 HD
BRANCH   9  12
ATOM     12  C   UNL     1       0.929  -6.215  -1.691  0.00  0.00    +0.115 C 
BRANCH  12  13
ATOM     13  C   UNL     1       1.046  -6.614  -3.164  0.00  0.00    +0.125 C 
BRANCH  13  14
ATOM     14  N   UNL     1       1.135  -8.073  -3.269  0.00  0.00    -0.241 N 
ATOM     15  C   UNL     1       2.311  -8.751  -3.244  0.00  0.00    +0.226 C 
ATOM     16  O   UNL     1       3.424  -8.281  -3.346  0.00  0.00    -0.275 OA
ATOM     17  C   UNL     1       1.958 -10.196  -3.066  0.00  0.00    +0.091 C 
ATOM     18  C   UNL     1       2.822 -11.236  -3.747  0.00  0.00    +0.040 C 
ATOM     19  C   UNL     1       2.059 -12.543  -3.700  0.00  0.00    -0.030 C 
ATOM     20  C   UNL     1       0.782 -12.638  -3.482  0.00  0.00    -0.030 C 
ATOM     21  C   UNL     1      -0.140 -11.456  -3.269  0.00  0.00    +0.040 C 
ATOM     22  C   UNL     1       0.571 -10.229  -3.780  0.00  0.00    +0.091 C 
ATOM     23  C   UNL     1       0.048  -8.878  -3.395  0.00  0.00    +0.226 C 
ATOM     24  O   UNL     1      -1.112  -8.565  -3.232  0.00  0.00    -0.275 OA
ENDBRANCH  13  14
ENDBRANCH  12  13
ENDBRANCH   9  12
ENDBRANCH   5   8
BRANCH   7  25
ATOM     25  S   UNL     1       1.588   0.214   2.235  0.00  0.00    +0.073 S 
ATOM     26  O   UNL     1       2.226  -0.743   3.070  0.00  0.00    -0.150 OA
ATOM     27  O   UNL     1       2.281   1.322   1.677  0.00  0.00    -0.150 OA
BRANCH  25  28
ATOM     28  N   UNL     1       0.325   0.836   3.107  0.00  0.00    -0.216 N 
ATOM     29  H   UNL     1       0.185   1.795   3.141  0.00  0.00    +0.174 HD
BRANCH  28  30
ATOM     30  C   UNL     1      -0.540  -0.022   3.794  0.00  0.00    +0.048 A 
ATOM     31  C   UNL     1      -1.022  -1.167   3.173  0.00  0.00    +0.027 A 
ATOM     32  C   UNL     1      -1.876  -2.013   3.854  0.00  0.00    +0.040 A 
ATOM     33  C   UNL     1      -2.251  -1.720   5.155  0.00  0.00    +0.124 A 
ATOM     34  C   UNL     1      -1.771  -0.579   5.775  0.00  0.00    +0.040 A 
ATOM     35  C   UNL     1      -0.913   0.267   5.100  0.00  0.00    +0.027 A 
ATOM     36  F   UNL     1      -3.086  -2.548   5.819  0.00  0.00    -0.205 F 
ENDBRANCH  28  30
ENDBRANCH  25  28
ENDBRANCH   7  25
TORSDOF 7
