REMARK  Name = ZINC11856013
REMARK  4 active torsions:
REMARK  status: ('A' for Active; 'I' for Inactive)
REMARK    1  A    between atoms: C_3  and  C_6
REMARK    2  A    between atoms: C_8  and  N_23
REMARK    3  A    between atoms: C_24  and  C_26
REMARK    4  A    between atoms: N_31  and  C_33
REMARK                            x       y       z     vdW  Elec       q    Type
REMARK                         _______ _______ _______ _____ _____    ______ ____
ROOT
ATOM      1  C   UNL     1       0.919   5.138  -0.034  0.00  0.00    +0.102 A 
ATOM      2  C   UNL     1       2.272   5.542  -0.036  0.00  0.00    +0.074 A 
ATOM      3  C   UNL     1       2.300   6.898  -0.012  0.00  0.00    +0.132 A 
ATOM      4  N   UNL     1       1.008   7.340   0.005  0.00  0.00    -0.185 N 
ATOM      5  N   UNL     1       0.167   6.220  -0.014  0.00  0.00    -0.162 NA
ATOM      6  C   UNL     1       0.601   8.660   0.032  0.00  0.00    +0.234 A 
ATOM      7  N   UNL     1      -0.727   8.951   0.041  0.00  0.00    -0.291 N 
ATOM      8  H   UNL     1      -1.384   8.237   0.030  0.00  0.00    +0.172 HD
ATOM      9  C   UNL     1      -1.124  10.239   0.069  0.00  0.00    +0.256 A 
ATOM     10  O   UNL     1      -2.311  10.520   0.085  0.00  0.00    -0.267 OA
ATOM     11  C   UNL     1      -0.147  11.259   0.074  0.00  0.00    +0.038 A 
ATOM     12  C   UNL     1       1.164  10.909   0.065  0.00  0.00    +0.053 A 
ATOM     13  N   UNL     1       1.503   9.614   0.043  0.00  0.00    -0.217 NA
ATOM     14  C   UNL     1       2.276  11.925   0.085  0.00  0.00    +0.056 C 
ATOM     15  C   UNL     1       1.755  13.301  -0.325  0.00  0.00    +0.006 C 
ATOM     16  C   UNL     1       0.516  13.620   0.521  0.00  0.00    +0.005 C 
ATOM     17  C   UNL     1      -0.614  12.689   0.086  0.00  0.00    +0.042 C 
ENDROOT
BRANCH   1  20
ATOM     18  C   UNL     1      -1.072   1.920  -0.086  0.00  0.00    +0.008 A 
ATOM     19  C   UNL     1      -0.857   3.280  -0.055  0.00  0.00    +0.018 A 
ATOM     20  C   UNL     1       0.431   3.743  -0.056  0.00  0.00    +0.039 A 
ATOM     21  S   UNL     1       1.368   2.224  -0.092  0.00  0.00    -0.095 S 
ATOM     22  C   UNL     1      -0.004   1.082  -0.103  0.00  0.00    +0.046 A 
ENDBRANCH   1  20
BRANCH   3  23
ATOM     23  N   UNL     1       3.442   7.696  -0.007  0.00  0.00    -0.270 N 
ATOM     24  C   UNL     1       4.663   7.126  -0.026  0.00  0.00    +0.223 C 
ATOM     25  O   UNL     1       4.768   5.918  -0.048  0.00  0.00    -0.275 OA
ATOM     26  H   UNL     1       3.358   8.662   0.010  0.00  0.00    +0.156 HD
BRANCH  24  27
ATOM     27  C   UNL     1       5.898   7.989  -0.021  0.00  0.00    +0.102 C 
ATOM     28  C   UNL     1       5.966   8.849   1.262  0.00  0.00    +0.110 C 
ATOM     29  C   UNL     1       7.438   8.880   1.611  0.00  0.00    +0.221 C 
ATOM     30  O   UNL     1       7.954   9.665   2.378  0.00  0.00    -0.275 OA
ATOM     31  N   UNL     1       8.091   7.910   0.948  0.00  0.00    -0.271 N 
ATOM     32  C   UNL     1       7.174   7.128   0.110  0.00  0.00    +0.127 C 
BRANCH  31  33
ATOM     33  C   UNL     1       9.468   7.676   1.044  0.00  0.00    +0.036 A 
ATOM     34  C   UNL     1      10.272   8.547   1.766  0.00  0.00    +0.026 A 
ATOM     35  C   UNL     1      11.630   8.312   1.864  0.00  0.00    +0.040 A 
ATOM     36  C   UNL     1      12.190   7.213   1.234  0.00  0.00    +0.124 A 
ATOM     37  C   UNL     1      11.390   6.345   0.510  0.00  0.00    +0.040 A 
ATOM     38  C   UNL     1      10.031   6.575   0.413  0.00  0.00    +0.026 A 
ATOM     39  F   UNL     1      13.518   6.987   1.328  0.00  0.00    -0.205 F 
ENDBRANCH  31  33
ENDBRANCH  24  27
ENDBRANCH   3  23
TORSDOF 4
