REMARK  Name = ZINC22001493
REMARK  7 active torsions:
REMARK  status: ('A' for Active; 'I' for Inactive)
REMARK    1  A    between atoms: C_1  and  C_2
REMARK    2  A    between atoms: C_5  and  N_9
REMARK    3  A    between atoms: C_19  and  S_20
REMARK    4  A    between atoms: S_20  and  C_21
REMARK    5  A    between atoms: C_21  and  C_23
REMARK    6  A    between atoms: C_21  and  C_24
REMARK    7  A    between atoms: N_26  and  C_27
REMARK                            x       y       z     vdW  Elec       q    Type
REMARK                         _______ _______ _______ _____ _____    ______ ____
ROOT
ATOM      1  N   UNL     1      -2.629   4.056   0.634  0.00  0.00    -0.255 N 
ATOM      2  C   UNL     1      -2.626   5.408   0.698  0.00  0.00    +0.267 A 
ATOM      3  O   UNL     1      -1.607   6.025   0.951  0.00  0.00    -0.267 OA
ATOM      4  C   UNL     1      -3.896   6.104   0.451  0.00  0.00    +0.065 A 
ATOM      5  C   UNL     1      -3.995   7.494   0.493  0.00  0.00    +0.015 A 
ATOM      6  C   UNL     1      -5.202   8.091   0.255  0.00  0.00    +0.001 A 
ATOM      7  C   UNL     1      -6.327   7.328  -0.029  0.00  0.00    +0.002 A 
ATOM      8  C   UNL     1      -6.259   5.964  -0.077  0.00  0.00    +0.028 A 
ATOM      9  C   UNL     1      -5.039   5.324   0.162  0.00  0.00    +0.079 A 
ATOM     10  N   UNL     1      -4.926   3.976   0.124  0.00  0.00    -0.223 NA
ATOM     11  C   UNL     1      -3.781   3.378   0.343  0.00  0.00    +0.177 A 
ENDROOT
BRANCH   1  16
ATOM     12  C   UNL     1       2.178   1.182   1.551  0.00  0.00    +0.047 C 
ATOM     13  C   UNL     1       0.902   1.945   1.308  0.00  0.00    -0.015 A 
ATOM     14  C   UNL     1       0.574   2.353   0.028  0.00  0.00    +0.008 A 
ATOM     15  C   UNL     1      -0.595   3.052  -0.198  0.00  0.00    +0.027 A 
ATOM     16  C   UNL     1      -1.443   3.347   0.862  0.00  0.00    +0.055 A 
ATOM     17  C   UNL     1      -1.116   2.933   2.145  0.00  0.00    +0.065 A 
ATOM     18  C   UNL     1       0.059   2.237   2.367  0.00  0.00    +0.128 A 
ATOM     19  F   UNL     1       0.380   1.836   3.617  0.00  0.00    -0.205 F 
ENDBRANCH   1  16
BRANCH  11  20
ATOM     20  S   UNL     1      -3.723   1.619   0.267  0.00  0.00    -0.075 S 
BRANCH  20  21
ATOM     21  C   UNL     1      -5.452   1.265  -0.135  0.00  0.00    +0.137 C 
ATOM     22  C   UNL     1      -6.346   1.698   1.029  0.00  0.00    +0.029 C 
BRANCH  21  23
ATOM     23  C   UNL     1      -5.620  -0.214  -0.374  0.00  0.00    +0.230 C 
ATOM     24  O   UNL     1      -4.848  -1.001   0.132  0.00  0.00    -0.274 OA
ATOM     25  N   UNL     1      -6.627  -0.661  -1.150  0.00  0.00    -0.285 N 
ATOM     26  H   UNL     1      -7.280   0.055  -1.671  0.00  0.00    +0.155 HD
BRANCH  25  27
ATOM     27  C   UNL     1      -6.842  -2.038  -1.294  0.00  0.00    +0.035 A 
ATOM     28  C   UNL     1      -8.137  -2.530  -1.407  0.00  0.00    +0.025 A 
ATOM     29  C   UNL     1      -8.356  -3.885  -1.549  0.00  0.00    +0.029 A 
ATOM     30  C   UNL     1      -7.281  -4.760  -1.579  0.00  0.00    +0.067 A 
ATOM     31  C   UNL     1      -5.978  -4.269  -1.466  0.00  0.00    +0.069 A 
ATOM     32  C   UNL     1      -5.762  -2.907  -1.328  0.00  0.00    +0.051 A 
ATOM     33  N   UNL     1      -5.127  -5.370  -1.529  0.00  0.00    -0.306 N 
ATOM     34  H   UNL     1      -4.038  -5.227  -1.460  0.00  0.00    +0.170 HD
ATOM     35  C   UNL     1      -5.875  -6.479  -1.673  0.00  0.00    +0.325 A 
ATOM     36  O   UNL     1      -5.440  -7.612  -1.761  0.00  0.00    -0.247 OA
ATOM     37  N   UNL     1      -7.179  -6.145  -1.707  0.00  0.00    -0.306 N 
ATOM     38  H   UNL     1      -8.088  -6.756  -1.812  0.00  0.00    +0.170 HD
ENDBRANCH  25  27
ENDBRANCH  21  23
ENDBRANCH  20  21
ENDBRANCH  11  20
TORSDOF 5
