REMARK  Name = ZINC14269298
REMARK  8 active torsions:
REMARK  status: ('A' for Active; 'I' for Inactive)
REMARK    1  A    between atoms: C_1  and  C_2
REMARK    2  A    between atoms: C_2  and  C_3
REMARK    3  A    between atoms: C_9  and  C_11
REMARK    4  A    between atoms: C_14  and  N_18
REMARK    5  A    between atoms: C_15  and  C_17
REMARK    6  A    between atoms: N_18  and  C_19
REMARK    7  A    between atoms: C_19  and  N_21
REMARK    8  A    between atoms: C_22  and  C_24
REMARK                            x       y       z     vdW  Elec       q    Type
REMARK                         _______ _______ _______ _____ _____    ______ ____
ROOT
ATOM      1  N   UNL     1      -1.199  -0.718   0.009  0.00  0.00    -0.296 N 
ATOM      2  H   UNL     1      -1.966  -0.371   0.492  0.00  0.00    +0.154 HD
ENDROOT
BRANCH   1   6
ATOM      3  C   UNL     1       2.397   1.389   0.024  0.00  0.00    +0.009 A 
ATOM      4  C   UNL     1       2.390   0.017   0.280  0.00  0.00    +0.012 A 
ATOM      5  C   UNL     1       1.200  -0.677   0.274  0.00  0.00    +0.024 A 
ATOM      6  C   UNL     1       0.006  -0.011   0.014  0.00  0.00    +0.036 A 
ATOM      7  C   UNL     1       0.011   1.355  -0.241  0.00  0.00    -0.029 A 
ATOM      8  C   UNL     1       1.199   2.054  -0.238  0.00  0.00    +0.015 A 
ATOM      9  C   UNL     1      -1.283   2.071  -0.529  0.00  0.00    +0.045 C 
BRANCH   3  16
ATOM     10  C   UNL     1       7.350   2.511   0.377  0.00  0.00    +0.155 A 
ATOM     11  N   UNL     1       7.809   3.719   0.203  0.00  0.00    -0.132 NA
ATOM     12  N   UNL     1       6.840   4.526  -0.058  0.00  0.00    -0.120 NA
ATOM     13  C   UNL     1       5.720   3.867  -0.062  0.00  0.00    +0.218 A 
ATOM     14  N   UNL     1       5.980   2.547   0.214  0.00  0.00    -0.190 N 
ATOM     15  N   UNL     1       4.885   1.694   0.250  0.00  0.00    -0.156 NA
ATOM     16  C   UNL     1       3.674   2.137   0.029  0.00  0.00    +0.132 A 
ATOM     17  S   UNL     1       3.958   3.874  -0.273  0.00  0.00    -0.026 S 
BRANCH  10  19
ATOM     18  C   UNL     1       8.610   0.612  -0.601  0.00  0.00    +0.012 C 
ATOM     19  C   UNL     1       8.171   1.289   0.699  0.00  0.00    +0.075 C 
ENDBRANCH  10  19
ENDBRANCH   3  16
ENDBRANCH   1   6
BRANCH   1  20
ATOM     20  C   UNL     1      -1.296  -1.880  -0.666  0.00  0.00    +0.141 C 
ATOM     21  S   UNL     1       0.086  -2.547  -1.426  0.00  0.00    -0.018 S 
BRANCH  20  22
ATOM     22  N   UNL     1      -2.481  -2.517  -0.743  0.00  0.00    -0.264 N 
ATOM     23  C   UNL     1      -2.578  -3.680  -1.419  0.00  0.00    +0.250 C 
ATOM     24  O   UNL     1      -1.597  -4.153  -1.958  0.00  0.00    -0.270 OA
ATOM     25  H   UNL     1      -3.264  -2.139  -0.313  0.00  0.00    +0.157 HD
BRANCH  23  26
ATOM     26  C   UNL     1      -3.877  -4.378  -1.503  0.00  0.00    +0.038 A 
ATOM     27  C   UNL     1      -5.008  -3.828  -0.872  0.00  0.00    +0.013 A 
ATOM     28  C   UNL     1      -6.213  -4.448  -0.940  0.00  0.00    +0.009 A 
ATOM     29  C   UNL     1      -6.341  -5.663  -1.639  0.00  0.00    -0.018 A 
ATOM     30  C   UNL     1      -7.577  -6.327  -1.718  0.00  0.00    +0.008 A 
ATOM     31  C   UNL     1      -7.671  -7.500  -2.401  0.00  0.00    +0.001 A 
ATOM     32  C   UNL     1      -6.557  -8.058  -3.026  0.00  0.00    +0.001 A 
ATOM     33  C   UNL     1      -5.343  -7.445  -2.971  0.00  0.00    +0.008 A 
ATOM     34  C   UNL     1      -5.208  -6.231  -2.275  0.00  0.00    -0.017 A 
ATOM     35  C   UNL     1      -3.971  -5.572  -2.199  0.00  0.00    +0.021 A 
ENDBRANCH  23  26
ENDBRANCH  20  22
ENDBRANCH   1  20
TORSDOF 6
