REMARK  Name = ZINC14474935
REMARK  6 active torsions:
REMARK  status: ('A' for Active; 'I' for Inactive)
REMARK    1  A    between atoms: C_4  and  C_7
REMARK    2  A    between atoms: C_7  and  C_8
REMARK    3  A    between atoms: C_8  and  N_9
REMARK    4  A    between atoms: N_9  and  S_10
REMARK    5  A    between atoms: S_10  and  C_13
REMARK    6  A    between atoms: C_26  and  C_29
REMARK                            x       y       z     vdW  Elec       q    Type
REMARK                         _______ _______ _______ _____ _____    ______ ____
ROOT
ATOM      1  C   UNL     1      -1.216   1.410  -3.539  0.00  0.00    +0.106 A 
ATOM      2  C   UNL     1      -2.170   2.407  -3.442  0.00  0.00    +0.030 A 
ATOM      3  C   UNL     1      -2.433   2.986  -2.216  0.00  0.00    +0.025 A 
ATOM      4  C   UNL     1      -1.740   2.568  -1.087  0.00  0.00    +0.031 A 
ATOM      5  C   UNL     1      -0.788   1.583  -1.171  0.00  0.00    -0.018 A 
ATOM      6  C   UNL     1      -0.528   0.994  -2.417  0.00  0.00    +0.034 A 
ATOM      7  C   UNL     1      -0.013   1.086   0.008  0.00  0.00    +0.049 C 
ATOM      8  C   UNL     1       1.403   1.611  -0.003  0.00  0.00    -0.023 C 
ATOM      9  C   UNL     1       1.799   1.873   1.219  0.00  0.00    -0.030 C 
ATOM     10  C   UNL     1       0.700   1.553   2.213  0.00  0.00    +0.033 C 
ATOM     11  C   UNL     1      -0.592   1.587   1.345  0.00  0.00    +0.029 C 
ATOM     12  C   UNL     1      -1.016   3.052   1.214  0.00  0.00    +0.105 C 
ATOM     13  N   UNL     1      -2.016   3.165   0.147  0.00  0.00    -0.336 N 
ATOM     14  H   UNL     1      -2.847   3.642   0.294  0.00  0.00    +0.147 HD
ENDROOT
BRANCH  12  15
ATOM     15  C   UNL     1      -1.612   3.523   2.516  0.00  0.00    -0.026 A 
ATOM     16  C   UNL     1      -2.935   3.206   2.820  0.00  0.00    +0.006 A 
ATOM     17  C   UNL     1      -3.502   3.611   3.989  0.00  0.00    +0.009 A 
ATOM     18  C   UNL     1      -2.749   4.371   4.900  0.00  0.00    -0.018 A 
ATOM     19  C   UNL     1      -3.302   4.813   6.114  0.00  0.00    +0.008 A 
ATOM     20  C   UNL     1      -2.542   5.546   6.973  0.00  0.00    +0.001 A 
ATOM     21  C   UNL     1      -1.221   5.867   6.667  0.00  0.00    +0.001 A 
ATOM     22  C   UNL     1      -0.652   5.457   5.501  0.00  0.00    +0.008 A 
ATOM     23  C   UNL     1      -1.405   4.698   4.589  0.00  0.00    -0.018 A 
ATOM     24  C   UNL     1      -0.852   4.256   3.375  0.00  0.00    +0.014 A 
ENDBRANCH  12  15
BRANCH   1  25
ATOM     25  S   UNL     1      -0.878   0.668  -5.101  0.00  0.00    +0.058 S 
ATOM     26  O   UNL     1      -0.334  -0.617  -4.831  0.00  0.00    -0.153 OA
ATOM     27  O   UNL     1      -2.040   0.852  -5.898  0.00  0.00    -0.153 OA
BRANCH  25  28
ATOM     28  N   UNL     1       0.328   1.553  -5.812  0.00  0.00    -0.190 NA
ATOM     29  H   UNL     1       0.151   2.046  -6.628  0.00  0.00    +0.148 HD
BRANCH  28  30
ATOM     30  C   UNL     1       1.662   1.592  -5.208  0.00  0.00    +0.110 C 
BRANCH  30  31
ATOM     31  C   UNL     1       2.665   2.145  -6.222  0.00  0.00    +0.052 C 
BRANCH  31  35
ATOM     32  C   UNL     1       6.555   2.258  -4.461  0.00  0.00    +0.000 A 
ATOM     33  C   UNL     1       6.137   1.130  -5.142  0.00  0.00    +0.000 A 
ATOM     34  C   UNL     1       4.878   1.094  -5.712  0.00  0.00    +0.003 A 
ATOM     35  C   UNL     1       4.037   2.185  -5.600  0.00  0.00    -0.046 A 
ATOM     36  C   UNL     1       4.457   3.315  -4.923  0.00  0.00    +0.003 A 
ATOM     37  C   UNL     1       5.714   3.349  -4.350  0.00  0.00    +0.000 A 
ENDBRANCH  31  35
ENDBRANCH  30  31
ENDBRANCH  28  30
ENDBRANCH  25  28
ENDBRANCH   1  25
TORSDOF 6
