REMARK  Name = ZINC24214039
REMARK  10 active torsions:
REMARK  status: ('A' for Active; 'I' for Inactive)
REMARK    1  A    between atoms: C_1  and  N_2
REMARK    2  A    between atoms: N_2  and  C_3
REMARK    3  A    between atoms: N_2  and  C_14
REMARK    4  A    between atoms: C_3  and  C_4
REMARK    5  A    between atoms: C_14  and  C_15
REMARK    6  A    between atoms: N_17  and  C_18
REMARK    7  A    between atoms: C_21  and  S_24
REMARK    8  A    between atoms: S_24  and  N_27
REMARK    9  A    between atoms: N_27  and  C_28
REMARK   10  A    between atoms: N_27  and  C_29
REMARK                            x       y       z     vdW  Elec       q    Type
REMARK                         _______ _______ _______ _____ _____    ______ ____
ROOT
ATOM      1  C   UNL     1       6.134  -1.854  -2.966  0.00  0.00    +0.201 C 
ATOM      2  O   UNL     1       6.002  -1.052  -3.866  0.00  0.00    -0.278 OA
ATOM      3  N   UNL     1       6.502  -3.121  -3.242  0.00  0.00    -0.287 N 
ATOM      4  H   UNL     1       6.706  -3.825  -2.422  0.00  0.00    +0.155 HD
ENDROOT
BRANCH   3   5
ATOM      5  C   UNL     1       6.623  -3.541  -4.571  0.00  0.00    +0.033 A 
ATOM      6  C   UNL     1       5.782  -3.019  -5.545  0.00  0.00    +0.025 A 
ATOM      7  C   UNL     1       5.908  -3.431  -6.857  0.00  0.00    +0.030 A 
ATOM      8  C   UNL     1       6.863  -4.370  -7.200  0.00  0.00    +0.106 A 
ATOM      9  C   UNL     1       7.698  -4.897  -6.231  0.00  0.00    +0.030 A 
ATOM     10  C   UNL     1       7.581  -4.484  -4.918  0.00  0.00    +0.025 A 
BRANCH   8  11
ATOM     11  S   UNL     1       7.016  -4.899  -8.874  0.00  0.00    +0.061 S 
ATOM     12  O   UNL     1       6.485  -3.855  -9.679  0.00  0.00    -0.153 OA
ATOM     13  O   UNL     1       8.345  -5.378  -9.028  0.00  0.00    -0.153 OA
BRANCH  11  14
ATOM     14  N   UNL     1       6.016  -6.204  -9.069  0.00  0.00    -0.177 NA
ATOM     15  C   UNL     1       4.626  -6.005  -9.487  0.00  0.00    +0.132 C 
BRANCH  14  16
ATOM     16  C   UNL     1       6.521  -7.557  -8.824  0.00  0.00    +0.080 C 
ATOM     17  C   UNL     1       6.397  -8.387 -10.103  0.00  0.00    +0.020 C 
ATOM     18  C   UNL     1       6.925  -9.800  -9.847  0.00  0.00    +0.002 C 
ATOM     19  C   UNL     1       6.107 -10.456  -8.733  0.00  0.00    +0.000 C 
ATOM     20  C   UNL     1       6.230  -9.626  -7.454  0.00  0.00    +0.002 C 
ATOM     21  C   UNL     1       5.703  -8.213  -7.710  0.00  0.00    +0.020 C 
ENDBRANCH  14  16
ENDBRANCH  11  14
ENDBRANCH   8  11
ENDBRANCH   3   5
BRANCH   1  22
ATOM     22  C   UNL     1       5.888  -1.434  -1.540  0.00  0.00    +0.019 C 
BRANCH  22  24
ATOM     23  C   UNL     1       6.615   0.841  -1.936  0.00  0.00    -0.095 C 
ATOM     24  N   UNL     1       5.503  -0.017  -1.506  0.00  0.00    +0.386 N 
ATOM     25  H   UNL     1       4.673   0.125  -2.214  0.00  0.00    -0.081 HD
BRANCH  24  26
ATOM     26  C   UNL     1       5.027   0.367  -0.171  0.00  0.00    -0.043 C 
BRANCH  26  27
ATOM     27  C   UNL     1       4.415   1.743  -0.232  0.00  0.00    -0.060 A 
ATOM     28  C   UNL     1       3.067   1.887  -0.501  0.00  0.00    +0.005 A 
ATOM     29  C   UNL     1       2.502   3.147  -0.560  0.00  0.00    +0.049 A 
ATOM     30  C   UNL     1       3.287   4.271  -0.348  0.00  0.00    +0.162 A 
ATOM     31  C   UNL     1       4.642   4.126  -0.075  0.00  0.00    +0.162 A 
ATOM     32  C   UNL     1       5.203   2.858  -0.019  0.00  0.00    +0.051 A 
ATOM     33  O   UNL     1       5.429   5.215   0.143  0.00  0.00    -0.485 OA
ATOM     34  C   UNL     1       4.914   6.479  -0.289  0.00  0.00    +0.270 C 
ATOM     35  C   UNL     1       3.454   6.585   0.171  0.00  0.00    +0.270 C 
ATOM     36  O   UNL     1       2.719   5.506  -0.418  0.00  0.00    -0.485 OA
ENDBRANCH  26  27
ENDBRANCH  24  26
ENDBRANCH  22  24
ENDBRANCH   1  22
TORSDOF 8
