REMARK  Name = ZINC59515508
REMARK  7 active torsions:
REMARK  status: ('A' for Active; 'I' for Inactive)
REMARK    1  A    between atoms: C_1  and  C_2
REMARK    2  A    between atoms: C_2  and  C_3
REMARK    3  A    between atoms: C_2  and  C_4
REMARK    4  A    between atoms: C_7  and  N_10
REMARK    5  A    between atoms: C_11  and  C_13
REMARK    6  A    between atoms: N_15  and  N_16
REMARK    7  A    between atoms: C_17  and  C_18
REMARK                            x       y       z     vdW  Elec       q    Type
REMARK                         _______ _______ _______ _____ _____    ______ ____
ROOT
ATOM      1  N   UNL     1       2.657  -1.832  -4.664  0.00  0.00    -0.278 N 
ATOM      2  C   UNL     1       3.817  -2.511  -4.557  0.00  0.00    +0.305 C 
ATOM      3  O   UNL     1       4.246  -2.811  -3.462  0.00  0.00    -0.265 OA
ATOM      4  H   UNL     1       2.275  -1.660  -5.539  0.00  0.00    +0.155 HD
ENDROOT
BRANCH   1   8
ATOM      5  C   UNL     1       0.717  -0.475  -1.238  0.00  0.00    -0.045 A 
ATOM      6  C   UNL     1      -0.022  -0.872  -2.338  0.00  0.00    +0.006 A 
ATOM      7  C   UNL     1       0.618  -1.323  -3.476  0.00  0.00    +0.023 A 
ATOM      8  C   UNL     1       2.006  -1.377  -3.515  0.00  0.00    +0.034 A 
ATOM      9  C   UNL     1       2.745  -0.977  -2.408  0.00  0.00    +0.023 A 
ATOM     10  C   UNL     1       2.098  -0.523  -1.276  0.00  0.00    +0.006 A 
BRANCH   5  12
ATOM     11  C   UNL     1      -0.833   1.242  -0.345  0.00  0.00    +0.012 C 
ATOM     12  C   UNL     1       0.015   0.016   0.001  0.00  0.00    +0.013 C 
ATOM     13  C   UNL     1      -0.889  -1.091   0.548  0.00  0.00    +0.012 C 
ENDBRANCH   5  12
ENDBRANCH   1   8
BRANCH   2  14
ATOM     14  C   UNL     1       4.571  -2.895  -5.785  0.00  0.00    +0.318 C 
ATOM     15  O   UNL     1       4.142  -2.596  -6.880  0.00  0.00    -0.263 OA
ATOM     16  N   UNL     1       5.731  -3.574  -5.678  0.00  0.00    -0.199 N 
ATOM     17  H   UNL     1       6.074  -3.813  -4.803  0.00  0.00    +0.178 HD
BRANCH  16  18
ATOM     18  N   UNL     1       6.440  -3.935  -6.831  0.00  0.00    -0.187 NA
ATOM     19  C   UNL     1       7.557  -4.589  -6.729  0.00  0.00    +0.138 C 
BRANCH  19  20
ATOM     20  C   UNL     1       8.303  -4.968  -7.942  0.00  0.00    -0.005 A 
ATOM     21  C   UNL     1       7.815  -4.620  -9.204  0.00  0.00    +0.010 A 
ATOM     22  C   UNL     1       8.518  -4.978 -10.335  0.00  0.00    +0.016 A 
ATOM     23  C   UNL     1       9.706  -5.680 -10.222  0.00  0.00    +0.018 A 
ATOM     24  C   UNL     1      10.196  -6.028  -8.974  0.00  0.00    +0.016 A 
ATOM     25  C   UNL     1       9.506  -5.672  -7.835  0.00  0.00    +0.010 A 
ATOM     26 BR   UNL     1      10.664  -6.167 -11.778  0.00  0.00    -0.050 Br
ENDBRANCH  19  20
ENDBRANCH  16  18
ENDBRANCH   2  14
TORSDOF 5
