REMARK  Name = ZINC09981885
REMARK  8 active torsions:
REMARK  status: ('A' for Active; 'I' for Inactive)
REMARK    1  A    between atoms: C_1  and  C_2
REMARK    2  A    between atoms: C_10  and  C_11
REMARK    3  A    between atoms: N_13  and  C_14
REMARK    4  A    between atoms: N_13  and  C_21
REMARK    5  A    between atoms: C_14  and  C_15
REMARK    6  A    between atoms: C_22  and  N_37
REMARK    7  A    between atoms: N_23  and  C_30
REMARK    8  A    between atoms: C_30  and  C_31
REMARK                            x       y       z     vdW  Elec       q    Type
REMARK                         _______ _______ _______ _____ _____    ______ ____
ROOT
ATOM      1  C   UNL     1       3.591  -2.174  -1.973  0.00  0.00    +0.287 C 
ATOM      2  O   UNL     1       3.851  -2.438  -3.132  0.00  0.00    -0.266 OA
ATOM      3  N   UNL     1       4.032  -1.022  -1.430  0.00  0.00    -0.253 N 
ENDROOT
BRANCH   1  13
ATOM      4  C   UNL     1       2.566  -4.945  -2.943  0.00  0.00    +0.048 C 
ATOM      5  C   UNL     1       2.348  -4.321  -1.589  0.00  0.00    +0.008 A 
ATOM      6  C   UNL     1       1.612  -4.896  -0.464  0.00  0.00    +0.024 A 
ATOM      7  C   UNL     1       0.924  -6.095  -0.261  0.00  0.00    +0.012 A 
ATOM      8  C   UNL     1       0.327  -6.337   0.944  0.00  0.00    +0.001 A 
ATOM      9  C   UNL     1       0.399  -5.400   1.966  0.00  0.00    +0.004 A 
ATOM     10  C   UNL     1       1.073  -4.212   1.786  0.00  0.00    +0.047 A 
ATOM     11  C   UNL     1       1.689  -3.943   0.569  0.00  0.00    +0.136 A 
ATOM     12  O   UNL     1       2.407  -2.900   0.108  0.00  0.00    -0.450 OA
ATOM     13  C   UNL     1       2.796  -3.111  -1.166  0.00  0.00    +0.194 A 
ENDBRANCH   1  13
BRANCH   3  14
ATOM     14  C   UNL     1       4.880  -0.172  -2.170  0.00  0.00    +0.140 A 
ATOM     15  C   UNL     1       6.182   0.043  -1.767  0.00  0.00    +0.128 A 
ATOM     16  N   UNL     1       6.987   0.873  -2.513  0.00  0.00    -0.276 N 
ATOM     17  C   UNL     1       6.506   1.477  -3.615  0.00  0.00    +0.331 A 
ATOM     18  O   UNL     1       7.232   2.211  -4.258  0.00  0.00    -0.246 OA
ATOM     19  N   UNL     1       5.238   1.283  -4.019  0.00  0.00    -0.273 N 
ATOM     20  H   UNL     1       4.906   1.743  -4.843  0.00  0.00    +0.173 HD
ATOM     21  C   UNL     1       4.410   0.475  -3.328  0.00  0.00    +0.277 A 
ATOM     22  O   UNL     1       3.263   0.306  -3.704  0.00  0.00    -0.266 OA
BRANCH  15  23
ATOM     23  N   UNL     1       6.671  -0.568  -0.638  0.00  0.00    -0.343 N 
ATOM     24  H   UNL     1       6.124  -1.210  -0.158  0.00  0.00    +0.144 HD
ATOM     25  H   UNL     1       7.563  -0.358  -0.320  0.00  0.00    +0.144 HD
ENDBRANCH  15  23
BRANCH  16  26
ATOM     26  C   UNL     1       8.373   1.107  -2.101  0.00  0.00    +0.163 C 
BRANCH  26  27
ATOM     27  C   UNL     1       8.428   2.291  -1.171  0.00  0.00    -0.028 A 
ATOM     28  C   UNL     1       8.615   3.562  -1.681  0.00  0.00    +0.005 A 
ATOM     29  C   UNL     1       8.660   4.649  -0.829  0.00  0.00    +0.000 A 
ATOM     30  C   UNL     1       8.529   4.465   0.535  0.00  0.00    +0.000 A 
ATOM     31  C   UNL     1       8.348   3.193   1.046  0.00  0.00    +0.000 A 
ATOM     32  C   UNL     1       8.297   2.106   0.193  0.00  0.00    +0.005 A 
ENDBRANCH  26  27
ENDBRANCH  16  26
ENDBRANCH   3  14
BRANCH   3  33
ATOM     33  C   UNL     1       3.630  -0.653  -0.070  0.00  0.00    +0.149 C 
BRANCH  33  34
ATOM     34  C   UNL     1       2.361   0.159  -0.124  0.00  0.00    -0.030 A 
ATOM     35  C   UNL     1       1.136  -0.478  -0.192  0.00  0.00    +0.005 A 
ATOM     36  C   UNL     1      -0.028   0.267  -0.242  0.00  0.00    +0.000 A 
ATOM     37  C   UNL     1       0.034   1.648  -0.224  0.00  0.00    +0.000 A 
ATOM     38  C   UNL     1       1.259   2.284  -0.156  0.00  0.00    +0.000 A 
ATOM     39  C   UNL     1       2.422   1.540  -0.106  0.00  0.00    +0.005 A 
ENDBRANCH  33  34
ENDBRANCH   3  33
TORSDOF 7
