REMARK  Name = ZINC00937104
REMARK  11 active torsions:
REMARK  status: ('A' for Active; 'I' for Inactive)
REMARK    1  A    between atoms: C_1  and  C_2
REMARK    2  A    between atoms: C_2  and  O_3
REMARK    3  A    between atoms: O_3  and  C_4
REMARK    4  A    between atoms: C_4  and  C_6
REMARK    5  A    between atoms: C_7  and  C_32
REMARK    6  A    between atoms: C_8  and  C_27
REMARK    7  A    between atoms: C_10  and  N_11
REMARK    8  A    between atoms: N_11  and  N_12
REMARK    9  A    between atoms: C_27  and  O_29
REMARK   10  A    between atoms: O_29  and  C_30
REMARK   11  A    between atoms: C_30  and  C_31
REMARK                            x       y       z     vdW  Elec       q    Type
REMARK                         _______ _______ _______ _____ _____    ______ ____
ROOT
ATOM      1  N   UNL     1      -0.580  -2.243  -4.019  0.00  0.00    -0.230 N 
ATOM      2  H   UNL     1      -1.134  -1.734  -3.405  0.00  0.00    +0.175 HD
ENDROOT
BRANCH   1   3
ATOM      3  N   UNL     1      -1.103  -2.767  -5.075  0.00  0.00    -0.178 NA
ATOM      4  C   UNL     1      -2.411  -2.697  -5.271  0.00  0.00    +0.129 C 
ATOM      5  C   UNL     1      -2.986  -3.139  -6.485  0.00  0.00    +0.038 C 
ATOM      6  C   UNL     1      -4.329  -3.069  -6.680  0.00  0.00    -0.024 C 
ATOM      7  C   UNL     1      -4.863  -3.576  -7.997  0.00  0.00    +0.038 C 
ATOM      8  C   UNL     1      -6.343  -3.932  -7.869  0.00  0.00    +0.024 C 
ATOM      9  C   UNL     1      -7.078  -2.721  -7.280  0.00  0.00    +0.105 C 
ATOM     10  N   UNL     1      -6.552  -2.482  -5.933  0.00  0.00    -0.329 N 
ATOM     11  C   UNL     1      -5.186  -2.552  -5.690  0.00  0.00    +0.040 C 
ATOM     12  C   UNL     1      -4.681  -2.101  -4.484  0.00  0.00    +0.023 C 
ATOM     13  C   UNL     1      -3.302  -2.163  -4.229  0.00  0.00    +0.211 C 
ATOM     14  O   UNL     1      -2.849  -1.776  -3.162  0.00  0.00    -0.285 OA
ATOM     15  C   UNL     1      -5.568  -1.532  -3.408  0.00  0.00    +0.042 C 
ATOM     16  C   UNL     1      -6.886  -1.041  -4.007  0.00  0.00    +0.024 C 
ATOM     17  C   UNL     1      -7.484  -2.181  -4.841  0.00  0.00    +0.105 C 
ENDBRANCH   1   3
BRANCH   1  22
ATOM     18  C   UNL     1       1.497  -1.916  -2.678  0.00  0.00    +0.092 A 
ATOM     19  C   UNL     1       2.850  -2.215  -2.627  0.00  0.00    -0.013 A 
ATOM     20  C   UNL     1       3.344  -2.972  -3.671  0.00  0.00    +0.102 A 
ATOM     21  S   UNL     1       1.899  -3.236  -4.679  0.00  0.00    -0.065 S 
ATOM     22  C   UNL     1       0.764  -2.405  -3.761  0.00  0.00    +0.100 A 
ATOM     23  C   UNL     1       3.731  -1.740  -1.500  0.00  0.00    +0.046 C 
BRANCH  18  24
ATOM     24  C   UNL     1       0.856  -1.117  -1.626  0.00  0.00    +0.342 C 
ATOM     25  O   UNL     1       0.380  -1.666  -0.651  0.00  0.00    -0.245 OA
BRANCH  24  26
ATOM     26  O   UNL     1       0.794   0.225  -1.741  0.00  0.00    -0.461 OA
BRANCH  26  28
ATOM     27  C   UNL     1       0.183   2.437  -0.985  0.00  0.00    +0.048 C 
ATOM     28  C   UNL     1       0.156   0.938  -0.680  0.00  0.00    +0.229 C 
ENDBRANCH  26  28
ENDBRANCH  24  26
ENDBRANCH  18  24
BRANCH  20  29
ATOM     29  C   UNL     1       4.713  -3.441  -3.893  0.00  0.00    +0.346 C 
ATOM     30  O   UNL     1       5.588  -3.166  -3.094  0.00  0.00    -0.244 OA
BRANCH  29  31
ATOM     31  O   UNL     1       5.004  -4.179  -4.984  0.00  0.00    -0.461 OA
BRANCH  31  32
ATOM     32  C   UNL     1       6.360  -4.603  -5.138  0.00  0.00    +0.229 C 
ATOM     33  C   UNL     1       6.496  -5.422  -6.423  0.00  0.00    +0.048 C 
ENDBRANCH  31  32
ENDBRANCH  29  31
ENDBRANCH  20  29
ENDBRANCH   1  22
TORSDOF 8
