REMARK  Name = ZINC05568611
REMARK  4 active torsions:
REMARK  status: ('A' for Active; 'I' for Inactive)
REMARK    1  A    between atoms: C_3  and  C_8
REMARK    2  A    between atoms: N_10  and  N_11
REMARK    3  A    between atoms: C_12  and  C_14
REMARK    4  A    between atoms: C_17  and  N_21
REMARK                            x       y       z     vdW  Elec       q    Type
REMARK                         _______ _______ _______ _____ _____    ______ ____
ROOT
ATOM      1  N   UNL     1      -4.883   0.956   0.029  0.00  0.00    -0.230 N 
ATOM      2  C   UNL     1      -6.057   1.617   0.038  0.00  0.00    +0.262 C 
ATOM      3  O   UNL     1      -6.069   2.833   0.046  0.00  0.00    -0.269 OA
ATOM      4  H   UNL     1      -4.873  -0.015   0.024  0.00  0.00    +0.173 HD
ENDROOT
BRANCH   2   5
ATOM      5  C   UNL     1      -7.329   0.866   0.040  0.00  0.00    +0.057 A 
ATOM      6  C   UNL     1      -7.319  -0.530   0.032  0.00  0.00    +0.017 A 
ATOM      7  C   UNL     1      -8.509  -1.226   0.034  0.00  0.00    +0.033 A 
ATOM      8  C   UNL     1      -9.714  -0.544   0.044  0.00  0.00    +0.128 A 
ATOM      9  C   UNL     1      -9.733   0.839   0.052  0.00  0.00    +0.053 A 
ATOM     10  C   UNL     1      -8.547   1.548   0.055  0.00  0.00    +0.055 A 
ATOM     11 CL   UNL     1      -8.572   3.284   0.073  0.00  0.00    -0.083 Cl
BRANCH   8  12
ATOM     12  N   UNL     1     -10.987  -1.298   0.046  0.00  0.00    +0.056 N 
ATOM     13  O   UNL     1     -10.974  -2.516   0.039  0.00  0.00    -0.126 OA
ATOM     14  O   UNL     1     -12.049  -0.701   0.055  0.00  0.00    -0.126 OA
ENDBRANCH   8  12
ENDBRANCH   2   5
BRANCH   1  17
ATOM     15  C   UNL     1      -2.503   1.006   0.019  0.00  0.00    +0.260 C 
ATOM     16  O   UNL     1      -2.490  -0.209   0.012  0.00  0.00    -0.269 OA
ATOM     17  N   UNL     1      -3.677   1.668   0.028  0.00  0.00    -0.230 N 
ATOM     18  H   UNL     1      -3.686   2.638   0.034  0.00  0.00    +0.173 HD
BRANCH  15  21
ATOM     19  C   UNL     1       1.172   1.783   0.000  0.00  0.00    +0.002 A 
ATOM     20  C   UNL     1      -0.013   1.076   0.008  0.00  0.00    +0.013 A 
ATOM     21  C   UNL     1      -1.230   1.758   0.017  0.00  0.00    +0.040 A 
ATOM     22  C   UNL     1      -1.240   3.154   0.030  0.00  0.00    +0.033 A 
ATOM     23  C   UNL     1      -0.048   3.850   0.023  0.00  0.00    +0.042 A 
ATOM     24  C   UNL     1       1.156   3.166   0.008  0.00  0.00    +0.020 A 
ATOM     25 CL   UNL     1      -0.059   5.586   0.033  0.00  0.00    -0.084 Cl
ENDBRANCH  15  21
ENDBRANCH   1  17
TORSDOF 4
