REMARK  Name = ZINC20706311
REMARK  7 active torsions:
REMARK  status: ('A' for Active; 'I' for Inactive)
REMARK    1  A    between atoms: C_1  and  C_2
REMARK    2  A    between atoms: C_2  and  C_3
REMARK    3  A    between atoms: C_3  and  C_4
REMARK    4  A    between atoms: C_4  and  N_5
REMARK    5  A    between atoms: C_6  and  C_8
REMARK    6  A    between atoms: C_15  and  C_24
REMARK    7  A    between atoms: C_26  and  N_31
REMARK                            x       y       z     vdW  Elec       q    Type
REMARK                         _______ _______ _______ _____ _____    ______ ____
ROOT
ATOM      1  C   UNL     1      -1.792   0.958  -1.201  0.00  0.00    +0.058 A 
ATOM      2  C   UNL     1      -2.667   1.350  -2.215  0.00  0.00    +0.015 A 
ATOM      3  C   UNL     1      -2.396   2.486  -2.946  0.00  0.00    +0.001 A 
ATOM      4  C   UNL     1      -1.264   3.234  -2.677  0.00  0.00    +0.006 A 
ATOM      5  C   UNL     1      -0.383   2.861  -1.672  0.00  0.00    -0.019 A 
ATOM      6  C   UNL     1      -0.640   1.722  -0.929  0.00  0.00    +0.044 A 
ATOM      7  N   UNL     1       0.199   1.294   0.087  0.00  0.00    -0.336 N 
ATOM      8  C   UNL     1       1.577   1.750  -0.100  0.00  0.00    +0.106 C 
ATOM      9  C   UNL     1       1.599   3.279  -0.180  0.00  0.00    +0.029 C 
ATOM     10  C   UNL     1       0.823   3.723  -1.439  0.00  0.00    +0.049 C 
ATOM     11  C   UNL     1       1.820   3.562  -2.563  0.00  0.00    -0.023 C 
ATOM     12  C   UNL     1       3.042   3.552  -2.094  0.00  0.00    -0.030 C 
ATOM     13  C   UNL     1       3.035   3.713  -0.587  0.00  0.00    +0.033 C 
ATOM     14  H   UNL     1      -0.063   0.683   0.964  0.00  0.00    +0.147 HD
ENDROOT
BRANCH   8  15
ATOM     15  C   UNL     1       2.420   1.295   1.062  0.00  0.00    -0.007 A 
ATOM     16  C   UNL     1       2.779   2.193   2.050  0.00  0.00    +0.039 A 
ATOM     17  C   UNL     1       3.548   1.775   3.119  0.00  0.00    +0.127 A 
ATOM     18  C   UNL     1       3.968   0.460   3.196  0.00  0.00    +0.034 A 
ATOM     19  C   UNL     1       3.615  -0.438   2.207  0.00  0.00    +0.022 A 
ATOM     20  C   UNL     1       2.841  -0.021   1.139  0.00  0.00    +0.046 A 
ATOM     21 CL   UNL     1       2.396  -1.148  -0.104  0.00  0.00    -0.083 Cl
BRANCH  17  22
ATOM     22  N   UNL     1       3.927   2.736   4.179  0.00  0.00    +0.056 N 
ATOM     23  O   UNL     1       4.609   2.368   5.119  0.00  0.00    -0.126 OA
ATOM     24  O   UNL     1       3.557   3.894   4.111  0.00  0.00    -0.126 OA
ENDBRANCH  17  22
ENDBRANCH   8  15
BRANCH   1  26
ATOM     25  N   UNL     1      -3.101  -1.058  -0.756  0.00  0.00    -0.311 N 
ATOM     26  C   UNL     1      -2.074  -0.256  -0.413  0.00  0.00    +0.246 C 
ATOM     27  O   UNL     1      -1.380  -0.533   0.546  0.00  0.00    -0.270 OA
ATOM     28  H   UNL     1      -3.729  -0.808  -1.624  0.00  0.00    +0.149 HD
BRANCH  25  29
ATOM     29  C   UNL     1      -3.382  -2.264   0.027  0.00  0.00    +0.104 C 
BRANCH  29  30
ATOM     30  C   UNL     1      -4.589  -2.990  -0.570  0.00  0.00    +0.018 C 
BRANCH  30  32
ATOM     31  C   UNL     1      -6.090  -4.976  -0.349  0.00  0.00    +0.004 C 
ATOM     32  C   UNL     1      -4.882  -4.250   0.248  0.00  0.00    -0.002 C 
ENDBRANCH  30  32
ENDBRANCH  29  30
ENDBRANCH  25  29
ENDBRANCH   1  26
TORSDOF 6
