REMARK  Name = ZINC64169705
REMARK  7 active torsions:
REMARK  status: ('A' for Active; 'I' for Inactive)
REMARK    1  A    between atoms: C_3  and  N_20
REMARK    2  A    between atoms: C_6  and  C_7
REMARK    3  A    between atoms: N_9  and  C_10
REMARK    4  A    between atoms: C_13  and  O_16
REMARK    5  A    between atoms: O_16  and  C_17
REMARK    6  A    between atoms: N_20  and  S_21
REMARK    7  A    between atoms: S_21  and  C_24
REMARK                            x       y       z     vdW  Elec       q    Type
REMARK                         _______ _______ _______ _____ _____    ______ ____
ROOT
ATOM      1  C   UNL     1      -0.004   1.999  -0.251  0.00  0.00    +0.015 A 
ATOM      2  C   UNL     1       1.273   2.512  -0.252  0.00  0.00    +0.025 A 
ATOM      3  C   UNL     1       2.367   1.661  -0.119  0.00  0.00    +0.048 A 
ATOM      4  C   UNL     1       2.172   0.289   0.016  0.00  0.00    +0.025 A 
ATOM      5  C   UNL     1       0.898  -0.230   0.017  0.00  0.00    +0.015 A 
ATOM      6  C   UNL     1      -0.203   0.622  -0.116  0.00  0.00    +0.037 A 
ENDROOT
BRANCH   6   7
ATOM      7  C   UNL     1      -1.570   0.069  -0.114  0.00  0.00    +0.248 C 
ATOM      8  O   UNL     1      -2.526   0.811  -0.230  0.00  0.00    -0.270 OA
ATOM      9  N   UNL     1      -1.760  -1.259   0.017  0.00  0.00    -0.281 N 
ATOM     10  H   UNL     1      -1.004  -1.843   0.186  0.00  0.00    +0.155 HD
BRANCH   9  11
ATOM     11  C   UNL     1      -3.048  -1.796  -0.092  0.00  0.00    +0.034 A 
ATOM     12  C   UNL     1      -3.410  -2.896   0.675  0.00  0.00    +0.027 A 
ATOM     13  C   UNL     1      -4.681  -3.425   0.567  0.00  0.00    +0.047 A 
ATOM     14  C   UNL     1      -5.596  -2.859  -0.308  0.00  0.00    +0.127 A 
ATOM     15  C   UNL     1      -5.236  -1.760  -1.075  0.00  0.00    +0.047 A 
ATOM     16  C   UNL     1      -3.967  -1.227  -0.964  0.00  0.00    +0.027 A 
BRANCH  14  17
ATOM     17  O   UNL     1      -6.847  -3.381  -0.414  0.00  0.00    -0.434 OA
BRANCH  17  18
ATOM     18  C   UNL     1      -7.738  -2.748  -1.334  0.00  0.00    +0.541 C 
ATOM     19  F   UNL     1      -7.919  -1.411  -0.964  0.00  0.00    -0.166 F 
ATOM     20  F   UNL     1      -7.196  -2.806  -2.623  0.00  0.00    -0.166 F 
ENDBRANCH  17  18
ENDBRANCH  14  17
ENDBRANCH   9  11
ENDBRANCH   6   7
BRANCH   3  21
ATOM     21  N   UNL     1       3.656   2.182  -0.122  0.00  0.00    -0.216 N 
ATOM     22  H   UNL     1       3.916   2.830  -0.795  0.00  0.00    +0.174 HD
BRANCH  21  23
ATOM     23  S   UNL     1       4.747   1.696   1.025  0.00  0.00    +0.072 S 
ATOM     24  O   UNL     1       4.720   0.276   1.036  0.00  0.00    -0.150 OA
ATOM     25  O   UNL     1       5.939   2.434   0.790  0.00  0.00    -0.150 OA
BRANCH  23  26
ATOM     26  C   UNL     1       4.130   2.224   2.589  0.00  0.00    +0.110 A 
ATOM     27  C   UNL     1       4.408   3.583   3.037  0.00  0.00    +0.031 A 
ATOM     28  C   UNL     1       3.963   4.051   4.224  0.00  0.00    +0.027 A 
ATOM     29  C   UNL     1       3.179   3.178   5.095  0.00  0.00    +0.056 A 
ATOM     30  N   UNL     1       2.615   3.309   6.269  0.00  0.00    -0.268 N 
ATOM     31  C   UNL     1       2.000   2.123   6.591  0.00  0.00    +0.308 C 
ATOM     32  O   UNL     1       1.385   1.911   7.614  0.00  0.00    -0.252 OA
ATOM     33  N   UNL     1       2.186   1.212   5.578  0.00  0.00    -0.267 N 
ATOM     34  C   UNL     1       2.893   1.781   4.634  0.00  0.00    +0.058 A 
ATOM     35  C   UNL     1       3.408   1.358   3.333  0.00  0.00    +0.054 A 
ATOM     36  H   UNL     1       1.850   0.302   5.564  0.00  0.00    +0.156 HD
ATOM     37  H   UNL     1       2.630   4.109   6.819  0.00  0.00    +0.156 HD
ENDBRANCH  23  26
ENDBRANCH  21  23
ENDBRANCH   3  21
TORSDOF 7
