REMARK  Name = ZINC24913028
REMARK  6 active torsions:
REMARK  status: ('A' for Active; 'I' for Inactive)
REMARK    1  A    between atoms: C_3  and  C_32
REMARK    2  A    between atoms: C_10  and  C_11
REMARK    3  A    between atoms: N_19  and  C_22
REMARK    4  A    between atoms: C_22  and  C_23
REMARK    5  A    between atoms: C_23  and  N_24
REMARK    6  A    between atoms: C_25  and  C_27
REMARK                            x       y       z     vdW  Elec       q    Type
REMARK                         _______ _______ _______ _____ _____    ______ ____
ROOT
ATOM      1  C   UNL     1       0.669   2.475  -2.052  0.00  0.00    +0.015 A 
ATOM      2  C   UNL     1       1.632   2.645  -3.010  0.00  0.00    +0.033 A 
ATOM      3  C   UNL     1       2.816   1.918  -2.942  0.00  0.00    +0.144 A 
ATOM      4  N   UNL     1       3.044   1.060  -1.973  0.00  0.00    -0.242 NA
ATOM      5  C   UNL     1       2.147   0.851  -1.013  0.00  0.00    +0.084 A 
ATOM      6  C   UNL     1       0.919   1.558  -1.021  0.00  0.00    +0.041 A 
ATOM      7  C   UNL     1      -0.016   1.316   0.009  0.00  0.00    +0.130 A 
ATOM      8  N   UNL     1       0.259   0.443   0.961  0.00  0.00    -0.239 NA
ATOM      9  C   UNL     1       1.396  -0.236   1.001  0.00  0.00    +0.123 A 
ATOM     10  C   UNL     1       2.375  -0.072   0.040  0.00  0.00    +0.027 A 
ATOM     11  N   UNL     1      -1.225   1.990   0.019  0.00  0.00    -0.318 N 
ATOM     12  C   UNL     1      -1.357   2.818   1.226  0.00  0.00    +0.088 C 
ATOM     13  C   UNL     1      -2.667   3.606   1.160  0.00  0.00    -0.060 C 
ATOM     14  N   UNL     1      -3.793   2.671   1.041  0.00  0.00    +0.383 N 
ATOM     15  C   UNL     1      -3.661   1.843  -0.167  0.00  0.00    -0.060 C 
ATOM     16  C   UNL     1      -2.351   1.055  -0.101  0.00  0.00    +0.088 C 
ATOM     17  H   UNL     1      -3.774   2.002   1.914  0.00  0.00    -0.082 HD
ENDROOT
BRANCH  10  18
ATOM     18  C   UNL     1       3.639  -0.844   0.108  0.00  0.00    -0.007 A 
ATOM     19  C   UNL     1       4.384  -0.888   1.283  0.00  0.00    +0.016 A 
ATOM     20  C   UNL     1       5.529  -1.607   1.307  0.00  0.00    +0.046 A 
ATOM     21  S   UNL     1       5.608  -2.249  -0.356  0.00  0.00    -0.104 S 
ATOM     22  C   UNL     1       4.103  -1.525  -0.984  0.00  0.00    +0.053 A 
ENDBRANCH  10  18
BRANCH   3  23
ATOM     23  C   UNL     1       3.864   2.120  -4.006  0.00  0.00    +0.434 C 
ATOM     24  F   UNL     1       4.736   3.142  -3.614  0.00  0.00    -0.164 F 
ATOM     25  F   UNL     1       4.585   0.934  -4.182  0.00  0.00    -0.164 F 
ATOM     26  F   UNL     1       3.244   2.472  -5.210  0.00  0.00    -0.164 F 
ENDBRANCH   3  23
BRANCH  14  27
ATOM     27  C   UNL     1      -5.076   3.387   1.051  0.00  0.00    -0.060 C 
BRANCH  27  28
ATOM     28  C   UNL     1      -5.288   4.034   2.421  0.00  0.00    +0.086 C 
BRANCH  28  29
ATOM     29  N   UNL     1      -6.567   4.748   2.431  0.00  0.00    -0.311 N 
ATOM     30  C   UNL     1      -6.967   5.399   3.541  0.00  0.00    +0.282 C 
ATOM     31  O   UNL     1      -6.266   5.393   4.535  0.00  0.00    -0.267 OA
ATOM     32  H   UNL     1      -7.201   4.753   1.532  0.00  0.00    +0.149 HD
BRANCH  30  33
ATOM     33  C   UNL     1      -8.255   6.118   3.551  0.00  0.00    +0.221 A 
ATOM     34  C   UNL     1      -8.799   6.816   4.595  0.00  0.00    +0.077 A 
ATOM     35  C   UNL     1     -10.020   7.301   4.077  0.00  0.00    +0.157 A 
ATOM     36  N   UNL     1     -10.101   6.872   2.851  0.00  0.00    -0.086 NA
ATOM     37  O   UNL     1      -9.135   6.215   2.537  0.00  0.00    -0.350 OA
ENDBRANCH  30  33
ENDBRANCH  28  29
ENDBRANCH  27  28
ENDBRANCH  14  27
TORSDOF 6
