REMARK  Name = ZINC22305064
REMARK  7 active torsions:
REMARK  status: ('A' for Active; 'I' for Inactive)
REMARK    1  A    between atoms: C_1  and  C_2
REMARK    2  A    between atoms: N_5  and  C_11
REMARK    3  A    between atoms: C_7  and  C_10
REMARK    4  A    between atoms: C_11  and  C_12
REMARK    5  A    between atoms: C_18  and  C_20
REMARK    6  A    between atoms: C_23  and  N_25
REMARK    7  A    between atoms: C_26  and  C_28
REMARK                            x       y       z     vdW  Elec       q    Type
REMARK                         _______ _______ _______ _____ _____    ______ ____
ROOT
ATOM      1  C   UNL     1      -2.696  -4.052  -0.132  0.00  0.00    +0.064 A 
ATOM      2  C   UNL     1      -2.750  -4.892   0.931  0.00  0.00    +0.073 A 
ATOM      3  S   UNL     1      -2.624  -6.473   0.112  0.00  0.00    -0.060 S 
ATOM      4  C   UNL     1      -2.517  -5.909  -1.470  0.00  0.00    +0.165 A 
ATOM      5  N   UNL     1      -2.583  -4.602  -1.327  0.00  0.00    -0.228 NA
ATOM      6  N   UNL     1      -2.394  -6.643  -2.642  0.00  0.00    -0.260 N 
ATOM      7  C   UNL     1      -2.347  -7.989  -2.592  0.00  0.00    +0.256 C 
ATOM      8  O   UNL     1      -2.413  -8.561  -1.519  0.00  0.00    -0.269 OA
ATOM      9  H   UNL     1      -2.342  -6.188  -3.497  0.00  0.00    +0.157 HD
ENDROOT
BRANCH   7  10
ATOM     10  C   UNL     1      -2.222  -8.740  -3.789  0.00  0.00    +0.076 A 
ATOM     11  C   UNL     1      -2.162 -10.117  -3.953  0.00  0.00    +0.022 A 
ATOM     12  C   UNL     1      -2.039 -10.562  -5.244  0.00  0.00    +0.032 A 
ATOM     13  C   UNL     1      -1.984  -9.635  -6.258  0.00  0.00    +0.072 A 
ATOM     14  S   UNL     1      -2.107  -8.157  -5.469  0.00  0.00    -0.069 S 
BRANCH  13  15
ATOM     15  N   UNL     1      -1.861  -9.867  -7.623  0.00  0.00    -0.280 N 
ATOM     16  C   UNL     1      -1.823  -8.830  -8.482  0.00  0.00    +0.221 C 
ATOM     17  O   UNL     1      -1.897  -7.694  -8.065  0.00  0.00    -0.275 OA
ATOM     18  H   UNL     1      -1.802 -10.776  -7.956  0.00  0.00    +0.155 HD
BRANCH  16  19
ATOM     19  C   UNL     1      -1.690  -9.083  -9.962  0.00  0.00    +0.075 C 
ATOM     20  C   UNL     1      -0.378  -8.671 -10.633  0.00  0.00    +0.013 C 
ATOM     21  C   UNL     1      -1.653  -7.864 -10.886  0.00  0.00    +0.013 C 
ENDBRANCH  16  19
ENDBRANCH  13  15
ENDBRANCH   7  10
BRANCH   1  22
ATOM     22  C   UNL     1      -2.768  -2.557   0.042  0.00  0.00    +0.140 C 
BRANCH  22  26
ATOM     23  C   UNL     1      -0.019   1.526   0.010  0.00  0.00    +0.039 C 
ATOM     24  C   UNL     1       0.002  -0.004   0.002  0.00  0.00    +0.130 C 
ATOM     25  C   UNL     1      -1.434  -0.535   0.015  0.00  0.00    +0.116 C 
ATOM     26  N   UNL     1      -1.407  -2.003   0.085  0.00  0.00    -0.292 NA
ATOM     27  C   UNL     1      -0.692  -2.455   1.287  0.00  0.00    +0.116 C 
ATOM     28  C   UNL     1       0.736  -1.905   1.261  0.00  0.00    +0.130 C 
ATOM     29  O   UNL     1       0.692  -0.479   1.161  0.00  0.00    -0.371 OA
ATOM     30  C   UNL     1       1.461  -2.305   2.548  0.00  0.00    +0.039 C 
ENDBRANCH  22  26
ENDBRANCH   1  22
TORSDOF 5
