REMARK  Name = ZINC08638012
REMARK  6 active torsions:
REMARK  status: ('A' for Active; 'I' for Inactive)
REMARK    1  A    between atoms: C_1  and  C_2
REMARK    2  A    between atoms: C_5  and  N_8
REMARK    3  A    between atoms: C_9  and  C_30
REMARK    4  A    between atoms: N_13  and  C_16
REMARK    5  A    between atoms: C_16  and  C_17
REMARK    6  A    between atoms: C_17  and  N_18
REMARK                            x       y       z     vdW  Elec       q    Type
REMARK                         _______ _______ _______ _____ _____    ______ ____
ROOT
ATOM      1  N   UNL     1      -1.048  -8.176   1.331  0.00  0.00    -0.243 N 
ATOM      2  C   UNL     1      -2.477  -7.850   1.476  0.00  0.00    +0.166 C 
ATOM      3  C   UNL     1      -2.493  -6.335   1.531  0.00  0.00    +0.244 C 
ATOM      4  O   UNL     1      -3.462  -5.617   1.650  0.00  0.00    -0.273 OA
ATOM      5  N   UNL     1      -1.206  -5.953   1.418  0.00  0.00    -0.222 N 
ATOM      6  C   UNL     1      -0.387  -7.005   1.307  0.00  0.00    +0.316 C 
ATOM      7  O   UNL     1       0.820  -6.913   1.197  0.00  0.00    -0.252 OA
ATOM      8  C   UNL     1      -3.035  -8.438   2.773  0.00  0.00    +0.038 C 
ENDROOT
BRANCH   1  13
ATOM      9  C   UNL     1       1.224 -13.361   0.949  0.00  0.00    +0.044 C 
ATOM     10  C   UNL     1       0.621 -11.983   1.051  0.00  0.00    -0.050 A 
ATOM     11  C   UNL     1       1.437 -10.868   1.011  0.00  0.00    +0.005 A 
ATOM     12  C   UNL     1       0.887  -9.604   1.104  0.00  0.00    +0.024 A 
ATOM     13  C   UNL     1      -0.487  -9.455   1.237  0.00  0.00    +0.039 A 
ATOM     14  C   UNL     1      -1.304 -10.578   1.283  0.00  0.00    +0.024 A 
ATOM     15  C   UNL     1      -0.748 -11.838   1.184  0.00  0.00    +0.005 A 
ENDBRANCH   1  13
BRANCH   5  16
ATOM     16  C   UNL     1      -0.758  -4.558   1.421  0.00  0.00    +0.139 C 
BRANCH  16  17
ATOM     17  C   UNL     1      -0.737  -4.026  -0.013  0.00  0.00    +0.154 C 
BRANCH  17  18
ATOM     18  N   UNL     1      -0.289  -2.631  -0.009  0.00  0.00    -0.166 N 
ATOM     19  C   UNL     1       0.976  -2.184  -0.019  0.00  0.00    +0.268 C 
ATOM     20  O   UNL     1       1.912  -2.960  -0.033  0.00  0.00    -0.268 OA
ATOM     21  C   UNL     1       1.199  -0.732  -0.013  0.00  0.00    +0.065 A 
ATOM     22  C   UNL     1       2.400  -0.002  -0.021  0.00  0.00    +0.015 A 
ATOM     23  C   UNL     1       2.377   1.374  -0.013  0.00  0.00    +0.001 A 
ATOM     24  C   UNL     1       1.179   2.066   0.002  0.00  0.00    +0.002 A 
ATOM     25  C   UNL     1      -0.016   1.362   0.009  0.00  0.00    +0.029 A 
ATOM     26  C   UNL     1       0.002  -0.004   0.002  0.00  0.00    +0.121 A 
ATOM     27  S   UNL     1      -1.248  -1.260   0.007  0.00  0.00    +0.078 S 
ATOM     28  O   UNL     1      -1.907  -1.209   1.265  0.00  0.00    -0.150 OA
ATOM     29  O   UNL     1      -1.930  -1.195  -1.238  0.00  0.00    -0.150 OA
ENDBRANCH  17  18
ENDBRANCH  16  17
ENDBRANCH   5  16
TORSDOF 4
