REMARK  Name = ZINC04978331
REMARK  5 active torsions:
REMARK  status: ('A' for Active; 'I' for Inactive)
REMARK    1  A    between atoms: C_4  and  C_7
REMARK    2  A    between atoms: C_8  and  C_24
REMARK    3  A    between atoms: C_9  and  C_15
REMARK    4  A    between atoms: C_19  and  N_21
REMARK    5  A    between atoms: C_24  and  C_26
REMARK                            x       y       z     vdW  Elec       q    Type
REMARK                         _______ _______ _______ _____ _____    ______ ____
ROOT
ATOM      1  C   UNL     1      -1.918   3.410   1.661  0.00  0.00    +0.051 C 
ATOM      2  C   UNL     1      -1.310   2.196   1.492  0.00  0.00    +0.046 C 
ATOM      3  C   UNL     1      -0.633   1.930   0.162  0.00  0.00    +0.141 C 
ATOM      4  N   UNL     1      -0.687   3.004  -0.843  0.00  0.00    -0.288 N 
ATOM      5  C   UNL     1      -1.324   4.149  -0.533  0.00  0.00    +0.305 C 
ATOM      6  O   UNL     1      -1.369   5.037  -1.362  0.00  0.00    -0.252 OA
ATOM      7  N   UNL     1      -1.909   4.346   0.655  0.00  0.00    -0.268 N 
ATOM      8  H   UNL     1      -0.271   2.889  -1.712  0.00  0.00    +0.151 HD
ATOM      9  H   UNL     1      -2.352   5.194   0.814  0.00  0.00    +0.156 HD
ENDROOT
BRANCH   3  10
ATOM     10  C   UNL     1       0.816   1.619   0.433  0.00  0.00    -0.020 A 
ATOM     11  C   UNL     1       1.718   2.649   0.627  0.00  0.00    +0.009 A 
ATOM     12  C   UNL     1       3.049   2.368   0.870  0.00  0.00    +0.053 A 
ATOM     13  C   UNL     1       3.480   1.050   0.918  0.00  0.00    +0.209 A 
ATOM     14  C   UNL     1       2.573   0.018   0.724  0.00  0.00    +0.173 A 
ATOM     15  C   UNL     1       1.243   0.305   0.481  0.00  0.00    +0.042 A 
ATOM     16  O   UNL     1       4.788   0.770   1.157  0.00  0.00    -0.285 OA
BRANCH  14  17
ATOM     17  N   UNL     1       3.030  -1.389   0.774  0.00  0.00    +0.060 N 
ATOM     18  O   UNL     1       2.259  -2.290   0.496  0.00  0.00    -0.126 OA
ATOM     19  O   UNL     1       4.176  -1.646   1.095  0.00  0.00    -0.126 OA
ENDBRANCH  14  17
ENDBRANCH   3  10
BRANCH   1  23
ATOM     20  C   UNL     1      -3.853   4.294   5.335  0.00  0.00    +0.000 A 
ATOM     21  C   UNL     1      -2.946   5.192   4.801  0.00  0.00    +0.001 A 
ATOM     22  C   UNL     1      -2.313   4.911   3.608  0.00  0.00    +0.010 A 
ATOM     23  C   UNL     1      -2.591   3.717   2.938  0.00  0.00    -0.003 A 
ATOM     24  C   UNL     1      -3.512   2.817   3.481  0.00  0.00    +0.010 A 
ATOM     25  C   UNL     1      -4.132   3.109   4.678  0.00  0.00    +0.001 A 
ENDBRANCH   1  23
BRANCH   2  26
ATOM     26  C   UNL     1      -1.312   1.229   2.516  0.00  0.00    +0.193 C 
ATOM     27  O   UNL     1      -0.705   1.437   3.552  0.00  0.00    -0.287 OA
BRANCH  26  28
ATOM     28  C   UNL     1      -2.053  -0.040   2.334  0.00  0.00    +0.022 A 
ATOM     29  C   UNL     1      -2.846  -0.232   1.203  0.00  0.00    +0.012 A 
ATOM     30  C   UNL     1      -3.530  -1.418   1.037  0.00  0.00    +0.001 A 
ATOM     31  C   UNL     1      -3.439  -2.413   1.995  0.00  0.00    +0.000 A 
ATOM     32  C   UNL     1      -2.658  -2.226   3.122  0.00  0.00    +0.001 A 
ATOM     33  C   UNL     1      -1.965  -1.046   3.297  0.00  0.00    +0.012 A 
ENDBRANCH  26  28
ENDBRANCH   2  26
TORSDOF 5
