REMARK  Name = ZINC22620737
REMARK  13 active torsions:
REMARK  status: ('A' for Active; 'I' for Inactive)
REMARK    1  A    between atoms: C_1  and  C_2
REMARK    2  A    between atoms: C_2  and  C_4
REMARK    3  A    between atoms: C_2  and  N_33
REMARK    4  A    between atoms: C_7  and  S_16
REMARK    5  A    between atoms: N_8  and  C_9
REMARK    6  A    between atoms: S_16  and  C_17
REMARK    7  A    between atoms: C_17  and  C_19
REMARK    8  A    between atoms: C_17  and  C_20
REMARK    9  A    between atoms: N_22  and  C_23
REMARK   10  A    between atoms: C_26  and  O_29
REMARK   11  A    between atoms: O_29  and  C_30
REMARK   12  A    between atoms: N_33  and  C_34
REMARK   13  A    between atoms: N_33  and  C_35
REMARK                            x       y       z     vdW  Elec       q    Type
REMARK                         _______ _______ _______ _____ _____    ______ ____
ROOT
ATOM      1  C   UNL     1      -0.035  -0.418   2.436  0.00  0.00    +0.125 A 
ATOM      2  N   UNL     1       0.237  -1.212   1.440  0.00  0.00    -0.135 NA
ATOM      3  N   UNL     1       0.146  -2.439   1.813  0.00  0.00    -0.122 NA
ATOM      4  C   UNL     1      -0.193  -2.496   3.080  0.00  0.00    +0.197 A 
ATOM      5  N   UNL     1      -0.315  -1.207   3.520  0.00  0.00    -0.275 N 
ENDROOT
BRANCH   5   6
ATOM      6  C   UNL     1      -0.658  -0.781   4.812  0.00  0.00    +0.050 A 
ATOM      7  C   UNL     1       0.264  -0.084   5.582  0.00  0.00    +0.028 A 
ATOM      8  C   UNL     1      -0.078   0.338   6.852  0.00  0.00    +0.022 A 
ATOM      9  C   UNL     1      -1.333   0.058   7.361  0.00  0.00    +0.041 A 
ATOM     10  C   UNL     1      -2.252  -0.641   6.598  0.00  0.00    +0.022 A 
ATOM     11  C   UNL     1      -1.917  -1.061   5.326  0.00  0.00    +0.028 A 
ATOM     12 CL   UNL     1      -1.757   0.585   8.960  0.00  0.00    -0.084 Cl
ENDBRANCH   5   6
BRANCH   1  14
ATOM     13  C   UNL     1       1.406   1.599   2.392  0.00  0.00    -0.005 C 
ATOM     14  C   UNL     1      -0.036   1.088   2.403  0.00  0.00    -0.003 C 
BRANCH  14  15
ATOM     15  N   UNL     1      -0.729   1.551   1.193  0.00  0.00    +0.382 N 
ATOM     16  C   UNL     1      -0.048   1.075  -0.018  0.00  0.00    -0.096 C 
ATOM     17  C   UNL     1      -0.854   3.015   1.186  0.00  0.00    -0.096 C 
ATOM     18  H   UNL     1      -1.743   1.126   1.200  0.00  0.00    -0.082 HD
ENDBRANCH  14  15
ENDBRANCH   1  14
BRANCH   4  19
ATOM     19  S   UNL     1      -0.438  -3.957   4.034  0.00  0.00    -0.073 S 
BRANCH  19  20
ATOM     20  C   UNL     1      -0.092  -5.214   2.779  0.00  0.00    +0.137 C 
ATOM     21  C   UNL     1      -1.151  -5.139   1.677  0.00  0.00    +0.029 C 
BRANCH  20  22
ATOM     22  C   UNL     1      -0.124  -6.580   3.414  0.00  0.00    +0.230 C 
ATOM     23  O   UNL     1      -0.770  -6.765   4.423  0.00  0.00    -0.274 OA
ATOM     24  N   UNL     1       0.566  -7.597   2.860  0.00  0.00    -0.285 N 
ATOM     25  H   UNL     1       1.090  -7.450   1.904  0.00  0.00    +0.155 HD
BRANCH  24  26
ATOM     26  C   UNL     1       0.616  -8.842   3.502  0.00  0.00    +0.034 A 
ATOM     27  C   UNL     1       1.767  -9.615   3.429  0.00  0.00    +0.027 A 
ATOM     28  C   UNL     1       1.817 -10.839   4.067  0.00  0.00    +0.047 A 
ATOM     29  C   UNL     1       0.714 -11.301   4.769  0.00  0.00    +0.127 A 
ATOM     30  C   UNL     1      -0.438 -10.532   4.837  0.00  0.00    +0.047 A 
ATOM     31  C   UNL     1      -0.488  -9.305   4.205  0.00  0.00    +0.027 A 
BRANCH  29  32
ATOM     32  O   UNL     1       0.762 -12.509   5.391  0.00  0.00    -0.434 OA
BRANCH  32  33
ATOM     33  C   UNL     1       1.980 -13.248   5.280  0.00  0.00    +0.541 C 
ATOM     34  F   UNL     1       2.245 -13.509   3.931  0.00  0.00    -0.166 F 
ATOM     35  F   UNL     1       3.030 -12.502   5.826  0.00  0.00    -0.166 F 
ENDBRANCH  32  33
ENDBRANCH  29  32
ENDBRANCH  24  26
ENDBRANCH  20  22
ENDBRANCH  19  20
ENDBRANCH   4  19
TORSDOF 9
