REMARK  Name = ZINC32519403
REMARK  1 active torsions:
REMARK  status: ('A' for Active; 'I' for Inactive)
REMARK    1  A    between atoms: C_6  and  N_7
REMARK                            x       y       z     vdW  Elec       q    Type
REMARK                         _______ _______ _______ _____ _____    ______ ____
ROOT
ATOM      1  N   UNL     1       3.654  -2.553   1.110  0.00  0.00    -0.328 N 
ATOM      2  C   UNL     1       4.898  -1.754   1.031  0.00  0.00    +0.106 C 
ATOM      3  C   UNL     1       5.015  -0.975  -0.254  0.00  0.00    +0.038 C 
ATOM      4  C   UNL     1       4.429   0.439  -0.038  0.00  0.00    +0.108 C 
ATOM      5  N   UNL     1       3.028   0.417  -0.024  0.00  0.00    -0.313 N 
ATOM      6  C   UNL     1       2.437  -0.400   1.055  0.00  0.00    +0.125 C 
ATOM      7  C   UNL     1       2.457  -1.841   0.615  0.00  0.00    +0.124 C 
ATOM      8  C   UNL     1       2.514   1.699  -0.013  0.00  0.00    +0.137 A 
ATOM      9  C   UNL     1       1.122   1.917   0.002  0.00  0.00    +0.078 A 
ATOM     10  C   UNL     1      -0.013   1.076   0.008  0.00  0.00    +0.147 A 
ATOM     11  N   UNL     1      -1.080   1.823   0.017  0.00  0.00    -0.180 NA
ATOM     12  N   UNL     1      -0.710   3.174   0.025  0.00  0.00    -0.260 N 
ATOM     13  H   UNL     1      -1.484   3.955   0.040  0.00  0.00    +0.191 HD
ATOM     14  C   UNL     1       0.651   3.244   0.013  0.00  0.00    +0.163 A 
ATOM     15  N   UNL     1       1.535   4.240   0.009  0.00  0.00    -0.195 NA
ATOM     16  C   UNL     1       2.833   3.989  -0.004  0.00  0.00    +0.216 A 
ATOM     17  N   UNL     1       3.320   2.754  -0.014  0.00  0.00    -0.199 NA
ATOM     18  N   UNL     1       3.717   5.054  -0.007  0.00  0.00    -0.327 N 
ATOM     19  H   UNL     1       4.802   4.868  -0.018  0.00  0.00    +0.145 HD
ATOM     20  H   UNL     1       3.336   6.085   0.002  0.00  0.00    +0.145 HD
ENDROOT
BRANCH   1  26
ATOM     21  C   UNL     1       4.366  -2.744   3.409  0.00  0.00    +0.026 A 
ATOM     22  C   UNL     1       4.159  -3.218   4.690  0.00  0.00    +0.040 A 
ATOM     23  C   UNL     1       3.045  -3.990   4.973  0.00  0.00    +0.124 A 
ATOM     24  C   UNL     1       2.133  -4.285   3.974  0.00  0.00    +0.040 A 
ATOM     25  C   UNL     1       2.333  -3.810   2.692  0.00  0.00    +0.026 A 
ATOM     26  C   UNL     1       3.449  -3.035   2.406  0.00  0.00    +0.030 A 
ATOM     27  F   UNL     1       2.848  -4.456   6.225  0.00  0.00    -0.205 F 
ENDBRANCH   1  26
TORSDOF 1
