REMARK  Name = ZINC39672873
REMARK  6 active torsions:
REMARK  status: ('A' for Active; 'I' for Inactive)
REMARK    1  A    between atoms: C_1  and  C_2
REMARK    2  A    between atoms: C_5  and  C_9
REMARK    3  A    between atoms: C_13  and  C_22
REMARK    4  A    between atoms: N_24  and  C_25
REMARK    5  A    between atoms: C_25  and  C_26
REMARK    6  A    between atoms: C_26  and  N_32
REMARK                            x       y       z     vdW  Elec       q    Type
REMARK                         _______ _______ _______ _____ _____    ______ ____
ROOT
ATOM      1  C   UNL     1      -1.414  -5.932  -0.818  0.00  0.00    +0.247 C 
ATOM      2  O   UNL     1      -1.614  -6.944  -1.460  0.00  0.00    -0.270 OA
ATOM      3  N   UNL     1      -0.907  -6.013   0.428  0.00  0.00    -0.296 N 
ATOM      4  C   UNL     1      -0.684  -4.910   1.392  0.00  0.00    +0.121 C 
ATOM      5  C   UNL     1      -1.082  -5.503   2.762  0.00  0.00    +0.100 C 
ATOM      6  C   UNL     1      -0.923  -7.023   2.594  0.00  0.00    -0.004 C 
ATOM      7  C   UNL     1      -0.453  -7.228   1.147  0.00  0.00    +0.115 C 
ATOM      8  C   UNL     1      -2.261  -7.722   2.812  0.00  0.00    -0.010 C 
ATOM      9  C   UNL     1      -2.066  -9.236   2.695  0.00  0.00    -0.082 C 
ATOM     10  N   UNL     1      -1.089  -9.683   3.696  0.00  0.00    +0.379 N 
ATOM     11  C   UNL     1       0.220  -9.078   3.423  0.00  0.00    -0.082 C 
ATOM     12  C   UNL     1       0.121  -7.557   3.570  0.00  0.00    -0.010 C 
ATOM     13  H   UNL     1      -1.401  -9.408   4.615  0.00  0.00    -0.086 HD
ATOM     14  H   UNL     1      -1.008 -10.688   3.658  0.00  0.00    -0.086 HD
ENDROOT
BRANCH   1  19
ATOM     15  C   UNL     1      -2.634  -0.790  -3.101  0.00  0.00    +0.047 C 
ATOM     16  C   UNL     1      -2.314  -2.136  -2.503  0.00  0.00    -0.015 A 
ATOM     17  C   UNL     1      -2.898  -3.277  -3.023  0.00  0.00    +0.007 A 
ATOM     18  C   UNL     1      -2.610  -4.512  -2.480  0.00  0.00    +0.013 A 
ATOM     19  C   UNL     1      -1.726  -4.611  -1.404  0.00  0.00    +0.040 A 
ATOM     20  C   UNL     1      -1.139  -3.457  -0.883  0.00  0.00    +0.051 A 
ATOM     21  C   UNL     1      -1.431  -2.226  -1.439  0.00  0.00    +0.127 A 
ATOM     22  F   UNL     1      -0.860  -1.108  -0.940  0.00  0.00    -0.205 F 
ENDBRANCH   1  19
BRANCH   5  23
ATOM     23  C   UNL     1      -2.512  -5.155   3.089  0.00  0.00    +0.218 C 
ATOM     24  O   UNL     1      -3.320  -5.014   2.196  0.00  0.00    -0.275 OA
ATOM     25  N   UNL     1      -2.892  -5.002   4.373  0.00  0.00    -0.313 N 
ATOM     26  H   UNL     1      -2.267  -5.194   5.090  0.00  0.00    +0.149 HD
BRANCH  25  27
ATOM     27  C   UNL     1      -4.248  -4.545   4.686  0.00  0.00    +0.126 C 
BRANCH  27  28
ATOM     28  C   UNL     1      -4.361  -4.271   6.187  0.00  0.00    +0.038 C 
ATOM     29  C   UNL     1      -3.959  -5.526   6.965  0.00  0.00    +0.024 C 
ATOM     30  C   UNL     1      -4.889  -6.680   6.587  0.00  0.00    +0.002 C 
ATOM     31  C   UNL     1      -6.332  -6.306   6.930  0.00  0.00    +0.000 C 
ATOM     32  C   UNL     1      -6.734  -5.052   6.151  0.00  0.00    +0.002 C 
ATOM     33  C   UNL     1      -5.804  -3.897   6.530  0.00  0.00    +0.024 C 
BRANCH  28  34
ATOM     34  N   UNL     1      -3.468  -3.163   6.550  0.00  0.00    -0.291 NA
ATOM     35  C   UNL     1      -3.849  -1.928   5.849  0.00  0.00    +0.113 C 
ATOM     36  C   UNL     1      -2.933  -0.787   6.301  0.00  0.00    +0.175 C 
ATOM     37  O   UNL     1      -1.571  -1.151   6.057  0.00  0.00    -0.377 OA
ATOM     38  C   UNL     1      -1.166  -2.349   6.725  0.00  0.00    +0.175 C 
ATOM     39  C   UNL     1      -2.064  -3.505   6.277  0.00  0.00    +0.113 C 
ENDBRANCH  28  34
ENDBRANCH  27  28
ENDBRANCH  25  27
ENDBRANCH   5  23
TORSDOF 5
