REMARK  Name = ZINC08837683
REMARK  11 active torsions:
REMARK  status: ('A' for Active; 'I' for Inactive)
REMARK    1  A    between atoms: C_1  and  C_2
REMARK    2  A    between atoms: C_2  and  N_60
REMARK    3  A    between atoms: C_3  and  C_4
REMARK    4  A    between atoms: C_3  and  N_60
REMARK    5  A    between atoms: C_5  and  C_6
REMARK    6  A    between atoms: C_5  and  N_60
REMARK    7  A    between atoms: C_6  and  N_7
REMARK    8  A    between atoms: C_8  and  C_27
REMARK    9  A    between atoms: C_11  and  C_12
REMARK   10  A    between atoms: C_11  and  O_22
REMARK   11  A    between atoms: C_13  and  C_21
REMARK                            x       y       z     vdW  Elec       q    Type
REMARK                         _______ _______ _______ _____ _____    ______ ____
ROOT
ATOM      1  N   UNL     1      -4.900   0.656   3.606  0.00  0.00    -0.285 N 
ATOM      2  C   UNL     1      -5.913   1.700   3.788  0.00  0.00    +0.144 C 
ATOM      3  C   UNL     1      -6.425   1.561   5.203  0.00  0.00    +0.073 C 
ATOM      4  C   UNL     1      -7.399   2.342   5.819  0.00  0.00    +0.151 C 
ATOM      5  C   UNL     1      -5.726   0.495   5.768  0.00  0.00    +0.249 C 
ATOM      6  O   UNL     1      -5.861   0.076   6.906  0.00  0.00    -0.282 OA
ATOM      7  C   UNL     1      -4.793  -0.046   4.747  0.00  0.00    +0.288 C 
ATOM      8  O   UNL     1      -4.040  -0.984   4.920  0.00  0.00    -0.266 OA
ENDROOT
BRANCH   4   9
ATOM      9  C   UNL     1      -7.767   2.084   7.155  0.00  0.00    +0.111 A 
ATOM     10  C   UNL     1      -8.481   0.985   7.627  0.00  0.00    +0.068 A 
ATOM     11  N   UNL     1      -8.618   1.115   8.934  0.00  0.00    -0.232 NA
ATOM     12  C   UNL     1      -8.039   2.245   9.342  0.00  0.00    +0.138 A 
ATOM     13  N   UNL     1      -7.497   2.876   8.258  0.00  0.00    -0.297 N 
ATOM     14  C   UNL     1      -6.843   4.059   8.399  0.00  0.00    +0.093 A 
ATOM     15  C   UNL     1      -6.715   4.635   9.617  0.00  0.00    +0.018 A 
ATOM     16  C   UNL     1      -7.258   4.014  10.749  0.00  0.00    +0.005 A 
ATOM     17  C   UNL     1      -7.916   2.826  10.615  0.00  0.00    +0.047 A 
ATOM     18  C   UNL     1      -9.003  -0.155   6.792  0.00  0.00    +0.068 C 
ENDBRANCH   4   9
BRANCH   2  19
ATOM     19  C   UNL     1      -5.295   3.060   3.592  0.00  0.00    -0.022 A 
ATOM     20  C   UNL     1      -4.034   3.324   4.094  0.00  0.00    +0.007 A 
ATOM     21  C   UNL     1      -3.465   4.570   3.911  0.00  0.00    +0.015 A 
ATOM     22  C   UNL     1      -4.161   5.556   3.235  0.00  0.00    +0.018 A 
ATOM     23  C   UNL     1      -5.424   5.293   2.737  0.00  0.00    +0.015 A 
ATOM     24  C   UNL     1      -5.991   4.045   2.916  0.00  0.00    +0.007 A 
ATOM     25 BR   UNL     1      -3.385   7.263   2.990  0.00  0.00    -0.050 Br
ENDBRANCH   2  19
BRANCH   4  26
ATOM     26  O   UNL     1      -7.992   3.347   5.136  0.00  0.00    -0.504 OA
ATOM     27  H   UNL     1      -8.661   3.801   5.725  0.00  0.00    +0.292 HD
ENDBRANCH   4  26
BRANCH   1  28
ATOM     28  C   UNL     1      -4.134   0.414   2.381  0.00  0.00    +0.090 C 
BRANCH  28  29
ATOM     29  C   UNL     1      -2.847   1.241   2.412  0.00  0.00    -0.060 C 
BRANCH  29  30
ATOM     30  N   UNL     1      -2.077   0.970   1.180  0.00  0.00    +0.380 N 
ATOM     31  H   UNL     1      -1.971  -0.045   1.070  0.00  0.00    -0.082 HD
BRANCH  30  33
ATOM     32  C   UNL     1       0.141   0.709   2.176  0.00  0.00    -0.017 C 
ATOM     33  C   UNL     1      -0.736   1.585   1.278  0.00  0.00    -0.082 C 
ENDBRANCH  30  33
BRANCH  30  34
ATOM     34  C   UNL     1      -2.795   1.509   0.006  0.00  0.00    -0.082 C 
ATOM     35  C   UNL     1      -2.248   0.836  -1.254  0.00  0.00    -0.017 C 
ENDBRANCH  30  34
ENDBRANCH  29  30
ENDBRANCH  28  29
ENDBRANCH   1  28
TORSDOF 8
