REMARK  Name = ZINC19356423
REMARK  4 active torsions:
REMARK  status: ('A' for Active; 'I' for Inactive)
REMARK    1  A    between atoms: C_4  and  C_7
REMARK    2  A    between atoms: C_7  and  N_8
REMARK    3  A    between atoms: C_9  and  C_20
REMARK    4  A    between atoms: C_29  and  N_30
REMARK                            x       y       z     vdW  Elec       q    Type
REMARK                         _______ _______ _______ _____ _____    ______ ____
ROOT
ATOM      1  N   UNL     1      -1.103   5.347   0.118  0.00  0.00    -0.270 N 
ATOM      2  C   UNL     1      -0.425   4.089  -0.194  0.00  0.00    +0.196 C 
ATOM      3  N   UNL     1      -0.259   3.288   1.025  0.00  0.00    -0.321 N 
ATOM      4  C   UNL     1      -1.334   3.181   1.901  0.00  0.00    +0.041 A 
ATOM      5  C   UNL     1      -1.526   2.062   2.692  0.00  0.00    +0.024 A 
ATOM      6  C   UNL     1      -2.613   2.006   3.543  0.00  0.00    +0.002 A 
ATOM      7  C   UNL     1      -3.511   3.059   3.611  0.00  0.00    +0.001 A 
ATOM      8  C   UNL     1      -3.334   4.182   2.830  0.00  0.00    +0.015 A 
ATOM      9  C   UNL     1      -2.242   4.253   1.968  0.00  0.00    +0.058 A 
ATOM     10  C   UNL     1      -1.999   5.433   1.118  0.00  0.00    +0.250 C 
ATOM     11  O   UNL     1      -2.601   6.470   1.319  0.00  0.00    -0.270 OA
ATOM     12  H   UNL     1       0.699   2.789   1.229  0.00  0.00    +0.148 HD
ENDROOT
BRANCH   2  13
ATOM     13  C   UNL     1      -1.247   3.314  -1.192  0.00  0.00    +0.029 A 
ATOM     14  C   UNL     1      -2.594   3.504  -1.262  0.00  0.00    +0.020 A 
ATOM     15  C   UNL     1      -3.326   2.760  -2.209  0.00  0.00    -0.001 A 
ATOM     16  C   UNL     1      -4.716   2.907  -2.335  0.00  0.00    +0.010 A 
ATOM     17  C   UNL     1      -5.390   2.171  -3.262  0.00  0.00    +0.001 A 
ATOM     18  C   UNL     1      -4.718   1.273  -4.087  0.00  0.00    +0.002 A 
ATOM     19  C   UNL     1      -3.370   1.106  -3.992  0.00  0.00    +0.026 A 
ATOM     20  C   UNL     1      -2.640   1.847  -3.048  0.00  0.00    +0.048 A 
ATOM     21  N   UNL     1      -1.315   1.706  -2.937  0.00  0.00    -0.343 N 
ATOM     22  C   UNL     1      -0.626   2.395  -2.050  0.00  0.00    +0.106 A 
ATOM     23  H   UNL     1      -0.779   1.004  -3.594  0.00  0.00    +0.167 HD
BRANCH  22  24
ATOM     24  N   UNL     1       0.746   2.212  -1.967  0.00  0.00    -0.312 N 
ATOM     25  C   UNL     1       1.402   2.558  -3.237  0.00  0.00    +0.134 C 
ATOM     26  C   UNL     1       2.917   2.399  -3.083  0.00  0.00    +0.178 C 
ATOM     27  O   UNL     1       3.211   1.062  -2.669  0.00  0.00    -0.377 OA
ATOM     28  C   UNL     1       2.589   0.691  -1.436  0.00  0.00    +0.178 C 
ATOM     29  C   UNL     1       1.071   0.833  -1.573  0.00  0.00    +0.134 C 
ENDBRANCH  22  24
ENDBRANCH   2  13
BRANCH   1  30
ATOM     30  C   UNL     1      -0.803   6.541  -0.676  0.00  0.00    +0.145 C 
BRANCH  30  34
ATOM     31  C   UNL     1      -3.302   6.617  -4.139  0.00  0.00    +0.000 A 
ATOM     32  C   UNL     1      -3.768   7.121  -2.939  0.00  0.00    +0.000 A 
ATOM     33  C   UNL     1      -2.959   7.096  -1.818  0.00  0.00    +0.005 A 
ATOM     34  C   UNL     1      -1.684   6.568  -1.897  0.00  0.00    -0.030 A 
ATOM     35  C   UNL     1      -1.216   6.069  -3.099  0.00  0.00    +0.005 A 
ATOM     36  C   UNL     1      -2.027   6.089  -4.218  0.00  0.00    +0.000 A 
ENDBRANCH  30  34
ENDBRANCH   1  30
TORSDOF 4
