REMARK  Name = ZINC42469282
REMARK  4 active torsions:
REMARK  status: ('A' for Active; 'I' for Inactive)
REMARK    1  A    between atoms: C_3  and  N_9
REMARK    2  A    between atoms: C_6  and  C_7
REMARK    3  A    between atoms: C_7  and  O_8
REMARK    4  A    between atoms: C_13  and  O_16
REMARK                            x       y       z     vdW  Elec       q    Type
REMARK                         _______ _______ _______ _____ _____    ______ ____
ROOT
ATOM      1  C   UNL     1       1.207  -0.682  -0.028  0.00  0.00    +0.008 A 
ATOM      2  C   UNL     1       2.396   0.020  -0.037  0.00  0.00    +0.023 A 
ATOM      3  C   UNL     1       2.381   1.409  -0.013  0.00  0.00    +0.030 A 
ATOM      4  C   UNL     1       1.169   2.087   0.019  0.00  0.00    +0.023 A 
ATOM      5  C   UNL     1      -0.016   1.378   0.028  0.00  0.00    +0.008 A 
ATOM      6  C   UNL     1       0.002  -0.004   0.004  0.00  0.00    -0.022 A 
ENDROOT
BRANCH   3   7
ATOM      7  N   UNL     1       3.582   2.122  -0.021  0.00  0.00    -0.327 N 
ATOM      8  C   UNL     1       3.581   3.588  -0.118  0.00  0.00    +0.105 C 
ATOM      9  C   UNL     1       4.479   4.005  -1.287  0.00  0.00    +0.021 C 
ATOM     10  C   UNL     1       5.868   3.388  -1.104  0.00  0.00    +0.034 C 
ATOM     11  C   UNL     1       5.754   1.862  -1.103  0.00  0.00    +0.132 C 
ATOM     12  C   UNL     1       4.870   1.421   0.073  0.00  0.00    +0.136 C 
BRANCH  11  13
ATOM     13  O   UNL     1       7.054   1.286  -0.964  0.00  0.00    -0.390 OA
ATOM     14  H   UNL     1       7.668   1.526  -1.671  0.00  0.00    +0.210 HD
ENDBRANCH  11  13
ENDBRANCH   3   7
BRANCH   6  15
ATOM     15  C   UNL     1      -1.294  -0.774   0.013  0.00  0.00    +0.191 C 
BRANCH  15  16
ATOM     16  O   UNL     1      -1.680  -1.040   1.362  0.00  0.00    -0.390 OA
ATOM     17  H   UNL     1      -2.508  -1.533   1.444  0.00  0.00    +0.210 HD
ENDBRANCH  15  16
ENDBRANCH   6  15
TORSDOF 4
