REMARK  Name = ZINC06443779
REMARK  6 active torsions:
REMARK  status: ('A' for Active; 'I' for Inactive)
REMARK    1  A    between atoms: C_1  and  C_2
REMARK    2  A    between atoms: C_12  and  C_14
REMARK    3  A    between atoms: C_14  and  C_16
REMARK    4  A    between atoms: C_14  and  N_66
REMARK    5  A    between atoms: N_20  and  C_21
REMARK    6  A    between atoms: N_28  and  C_31
REMARK                            x       y       z     vdW  Elec       q    Type
REMARK                         _______ _______ _______ _____ _____    ______ ____
ROOT
ATOM      1  C   UNL     1       2.591  -0.626  -0.058  0.00  0.00    +0.039 C 
ENDROOT
BRANCH   1  13
ATOM      2  C   UNL     1       5.518  -1.872  -5.809  0.00  0.00    +0.046 C 
ATOM      3  C   UNL     1       4.165  -2.265  -5.276  0.00  0.00    -0.026 A 
ATOM      4  C   UNL     1       3.308  -3.018  -6.049  0.00  0.00    +0.005 A 
ATOM      5  C   UNL     1       2.059  -3.386  -5.570  0.00  0.00    +0.001 A 
ATOM      6  C   UNL     1       1.654  -3.007  -4.321  0.00  0.00    +0.010 A 
ATOM      7  C   UNL     1       2.506  -2.242  -3.518  0.00  0.00    -0.001 A 
ATOM      8  C   UNL     1       3.775  -1.868  -4.001  0.00  0.00    +0.052 A 
ATOM      9  N   UNL     1       4.611  -1.113  -3.206  0.00  0.00    -0.322 N 
ATOM     10  H   UNL     1       5.484  -0.855  -3.540  0.00  0.00    +0.169 HD
ATOM     11  C   UNL     1       4.231  -0.724  -1.976  0.00  0.00    +0.251 A 
ATOM     12  O   UNL     1       4.994  -0.053  -1.303  0.00  0.00    -0.268 OA
ATOM     13  C   UNL     1       2.973  -1.078  -1.443  0.00  0.00    +0.011 A 
ATOM     14  C   UNL     1       2.105  -1.819  -2.176  0.00  0.00    +0.017 A 
ENDBRANCH   1  13
BRANCH   1  20
ATOM     15  C   UNL     1       3.805  -2.520   0.837  0.00  0.00    -0.058 C 
ATOM     16  C   UNL     1       4.932  -2.926   1.790  0.00  0.00    +0.086 C 
ATOM     17  N   UNL     1       4.592  -2.502   3.155  0.00  0.00    -0.331 N 
ATOM     18  C   UNL     1       4.400  -1.046   3.219  0.00  0.00    +0.086 C 
ATOM     19  C   UNL     1       3.274  -0.640   2.266  0.00  0.00    -0.058 C 
ATOM     20  N   UNL     1       3.638  -1.052   0.894  0.00  0.00    +0.391 N 
ATOM     21  H   UNL     1       4.526  -0.605   0.636  0.00  0.00    -0.080 HD
BRANCH  17  22
ATOM     22  C   UNL     1       5.566  -2.920   4.067  0.00  0.00    +0.065 A 
ATOM     23  C   UNL     1       5.396  -2.682   5.424  0.00  0.00    +0.026 A 
ATOM     24  C   UNL     1       6.358  -3.099   6.324  0.00  0.00    +0.002 A 
ATOM     25  C   UNL     1       7.495  -3.745   5.873  0.00  0.00    +0.003 A 
ATOM     26  C   UNL     1       7.671  -3.980   4.521  0.00  0.00    +0.040 A 
ATOM     27  C   UNL     1       6.710  -3.569   3.616  0.00  0.00    +0.144 A 
ATOM     28  F   UNL     1       6.883  -3.797   2.296  0.00  0.00    -0.204 F 
ENDBRANCH  17  22
ENDBRANCH   1  20
BRANCH   1  29
ATOM     29  C   UNL     1       2.488   0.878  -0.030  0.00  0.00    +0.143 A 
ATOM     30  N   UNL     1       3.484   1.730  -0.030  0.00  0.00    -0.115 NA
ATOM     31  N   UNL     1       2.990   2.919  -0.003  0.00  0.00    -0.023 NA
ATOM     32  N   UNL     1       1.705   2.848   0.008  0.00  0.00    -0.044 NA
ATOM     33  N   UNL     1       1.357   1.606  -0.002  0.00  0.00    -0.227 N 
BRANCH  33  34
ATOM     34  C   UNL     1      -0.013   1.086   0.008  0.00  0.00    +0.111 C 
ATOM     35  C   UNL     1      -0.763   1.597   1.255  0.00  0.00    +0.027 C 
ATOM     36  C   UNL     1      -1.531   2.845   0.750  0.00  0.00    +0.002 C 
ATOM     37  C   UNL     1      -1.978   2.421  -0.670  0.00  0.00    +0.002 C 
ATOM     38  C   UNL     1      -0.784   1.609  -1.216  0.00  0.00    +0.027 C 
ENDBRANCH  33  34
ENDBRANCH   1  29
TORSDOF 5
