REMARK  Name = ZINC36604262
REMARK  13 active torsions:
REMARK  status: ('A' for Active; 'I' for Inactive)
REMARK    1  A    between atoms: C_1  and  C_2
REMARK    2  A    between atoms: C_7  and  C_8
REMARK    3  A    between atoms: C_8  and  C_10
REMARK    4  A    between atoms: C_8  and  N_17
REMARK    5  A    between atoms: N_12  and  C_13
REMARK    6  A    between atoms: C_13  and  C_14
REMARK    7  A    between atoms: C_13  and  C_15
REMARK    8  A    between atoms: C_13  and  C_16
REMARK    9  A    between atoms: N_17  and  C_18
REMARK   10  A    between atoms: C_24  and  C_26
REMARK   11  A    between atoms: C_32  and  O_34
REMARK   12  A    between atoms: O_34  and  C_35
REMARK   13  A    between atoms: C_35  and  C_36
REMARK                            x       y       z     vdW  Elec       q    Type
REMARK                         _______ _______ _______ _____ _____    ______ ____
ROOT
ATOM      1  N   UNL     1       0.780  -0.342   3.797  0.00  0.00    -0.254 N 
ATOM      2  C   UNL     1       2.095  -0.129   4.005  0.00  0.00    +0.241 C 
ATOM      3  O   UNL     1       2.696   0.670   3.318  0.00  0.00    -0.273 OA
ENDROOT
BRANCH   2   4
ATOM      4  C   UNL     1       2.817  -0.884   5.091  0.00  0.00    +0.166 C 
ATOM      5  C   UNL     1       3.311  -2.241   4.548  0.00  0.00    +0.033 C 
ATOM      6  C   UNL     1       4.698  -2.402   5.223  0.00  0.00    +0.021 C 
ATOM      7  C   UNL     1       5.204  -0.939   5.247  0.00  0.00    +0.112 C 
ATOM      8  N   UNL     1       4.001  -0.127   5.524  0.00  0.00    -0.256 N 
ATOM      9  C   UNL     1       3.989   1.102   6.077  0.00  0.00    +0.404 C 
ATOM     10  O   UNL     1       2.933   1.678   6.255  0.00  0.00    -0.226 OA
BRANCH   9  11
ATOM     11  O   UNL     1       5.145   1.692   6.432  0.00  0.00    -0.445 OA
BRANCH  11  12
ATOM     12  C   UNL     1       5.058   2.995   7.013  0.00  0.00    +0.269 C 
BRANCH  12  13
ATOM     13  C   UNL     1       6.441   3.492   7.343  0.00  0.00    -0.010 A 
ATOM     14  C   UNL     1       6.995   3.224   8.581  0.00  0.00    +0.007 A 
ATOM     15  C   UNL     1       8.264   3.680   8.884  0.00  0.00    +0.000 A 
ATOM     16  C   UNL     1       8.980   4.404   7.949  0.00  0.00    +0.000 A 
ATOM     17  C   UNL     1       8.427   4.671   6.710  0.00  0.00    +0.000 A 
ATOM     18  C   UNL     1       7.160   4.211   6.406  0.00  0.00    +0.007 A 
ENDBRANCH  12  13
ENDBRANCH  11  12
ENDBRANCH   9  11
ENDBRANCH   2   4
BRANCH   1  19
ATOM     19  C   UNL     1       0.060  -1.171   4.663  0.00  0.00    +0.037 A 
ATOM     20  C   UNL     1      -0.348  -0.696   5.903  0.00  0.00    +0.023 A 
ATOM     21  C   UNL     1      -1.060  -1.517   6.756  0.00  0.00    +0.002 A 
ATOM     22  C   UNL     1      -1.366  -2.811   6.376  0.00  0.00    +0.000 A 
ATOM     23  C   UNL     1      -0.961  -3.287   5.143  0.00  0.00    +0.002 A 
ATOM     24  C   UNL     1      -0.254  -2.469   4.283  0.00  0.00    +0.023 A 
ENDBRANCH   1  19
BRANCH   1  25
ATOM     25  C   UNL     1       0.106   0.296   2.663  0.00  0.00    +0.197 C 
BRANCH  25  32
ATOM     26  C   UNL     1       1.629  -1.431   0.919  0.00  0.00    +0.044 C 
ATOM     27  C   UNL     1       0.132  -1.580   1.007  0.00  0.00    -0.045 A 
ATOM     28  C   UNL     1      -0.512  -2.547   0.258  0.00  0.00    +0.004 A 
ATOM     29  C   UNL     1      -1.885  -2.684   0.339  0.00  0.00    +0.000 A 
ATOM     30  C   UNL     1      -2.615  -1.854   1.170  0.00  0.00    +0.000 A 
ATOM     31  C   UNL     1      -1.971  -0.888   1.919  0.00  0.00    +0.006 A 
ATOM     32  C   UNL     1      -0.597  -0.754   1.842  0.00  0.00    -0.015 A 
ENDBRANCH  25  32
BRANCH  25  33
ATOM     33  C   UNL     1      -0.903   1.292   3.175  0.00  0.00    +0.239 C 
ATOM     34  O   UNL     1      -1.233   1.276   4.342  0.00  0.00    -0.273 OA
ATOM     35  N   UNL     1      -1.439   2.200   2.335  0.00  0.00    -0.309 N 
ATOM     36  H   UNL     1      -1.227   2.171   1.389  0.00  0.00    +0.149 HD
BRANCH  35  37
ATOM     37  C   UNL     1      -2.342   3.232   2.851  0.00  0.00    +0.026 C 
ATOM     38  C   UNL     1      -1.606   4.079   3.892  0.00  0.00    +0.031 C 
ATOM     39  C   UNL     1      -2.805   4.127   1.700  0.00  0.00    +0.031 C 
ATOM     40  C   UNL     1      -3.557   2.567   3.501  0.00  0.00    +0.031 C 
ENDBRANCH  35  37
ENDBRANCH  25  33
ENDBRANCH   1  25
TORSDOF 9
