REMARK  Name = ZINC46760933
REMARK  8 active torsions:
REMARK  status: ('A' for Active; 'I' for Inactive)
REMARK    1  A    between atoms: N_9  and  C_24
REMARK    2  A    between atoms: C_10  and  S_12
REMARK    3  A    between atoms: S_12  and  C_13
REMARK    4  A    between atoms: C_13  and  C_14
REMARK    5  A    between atoms: C_24  and  C_25
REMARK    6  A    between atoms: C_25  and  C_26
REMARK    7  A    between atoms: C_29  and  S_32
REMARK    8  A    between atoms: S_32  and  N_35
REMARK                            x       y       z     vdW  Elec       q    Type
REMARK                         _______ _______ _______ _____ _____    ______ ____
ROOT
ATOM      1  C   UNL     1      -0.017   1.363   0.009  0.00  0.00    +0.001 A 
ATOM      2  C   UNL     1       1.168   2.089   0.002  0.00  0.00    +0.002 A 
ATOM      3  C   UNL     1       2.379   1.458  -0.013  0.00  0.00    +0.028 A 
ATOM      4  C   UNL     1       2.432   0.061  -0.021  0.00  0.00    +0.079 A 
ATOM      5  C   UNL     1       1.224  -0.674  -0.013  0.00  0.00    +0.065 A 
ATOM      6  C   UNL     1       0.002  -0.004   0.002  0.00  0.00    +0.015 A 
ATOM      7  C   UNL     1       1.305  -2.141  -0.021  0.00  0.00    +0.262 A 
ATOM      8  O   UNL     1       0.301  -2.829  -0.015  0.00  0.00    -0.267 OA
ATOM      9  N   UNL     1       2.538  -2.699  -0.036  0.00  0.00    -0.287 N 
ATOM     10  C   UNL     1       3.654  -1.911  -0.043  0.00  0.00    +0.173 A 
ATOM     11  N   UNL     1       3.605  -0.602  -0.036  0.00  0.00    -0.223 NA
ENDROOT
BRANCH  10  12
ATOM     12  S   UNL     1       5.234  -2.693  -0.062  0.00  0.00    -0.080 S 
BRANCH  12  13
ATOM     13  C   UNL     1       6.407  -1.310  -0.066  0.00  0.00    +0.151 C 
BRANCH  13  14
ATOM     14  C   UNL     1       7.816  -1.846  -0.082  0.00  0.00    +0.118 A 
ATOM     15  N   UNL     1       8.552  -2.134   1.025  0.00  0.00    -0.341 N 
ATOM     16  H   UNL     1       8.269  -2.032   1.947  0.00  0.00    +0.167 HD
ATOM     17  C   UNL     1       9.778  -2.598   0.592  0.00  0.00    +0.066 A 
ATOM     18  C   UNL     1      10.927  -3.040   1.236  0.00  0.00    +0.028 A 
ATOM     19  C   UNL     1      12.012  -3.449   0.491  0.00  0.00    +0.002 A 
ATOM     20  C   UNL     1      11.964  -3.421  -0.896  0.00  0.00    +0.002 A 
ATOM     21  C   UNL     1      10.843  -2.990  -1.546  0.00  0.00    +0.030 A 
ATOM     22  C   UNL     1       9.730  -2.571  -0.812  0.00  0.00    +0.089 A 
ATOM     23  N   UNL     1       8.502  -2.107  -1.156  0.00  0.00    -0.232 NA
ENDBRANCH  13  14
ENDBRANCH  12  13
ENDBRANCH  10  12
BRANCH   9  24
ATOM     24  C   UNL     1       2.677  -4.157  -0.044  0.00  0.00    +0.132 C 
BRANCH  24  25
ATOM     25  C   UNL     1       2.711  -4.658  -1.489  0.00  0.00    +0.057 C 
BRANCH  25  26
ATOM     26  C   UNL     1       2.854  -6.159  -1.498  0.00  0.00    -0.046 A 
ATOM     27  C   UNL     1       4.111  -6.733  -1.507  0.00  0.00    +0.005 A 
ATOM     28  C   UNL     1       4.242  -8.109  -1.515  0.00  0.00    +0.029 A 
ATOM     29  C   UNL     1       3.116  -8.911  -1.512  0.00  0.00    +0.105 A 
ATOM     30  C   UNL     1       1.859  -8.336  -1.502  0.00  0.00    +0.029 A 
ATOM     31  C   UNL     1       1.728  -6.960  -1.490  0.00  0.00    +0.005 A 
BRANCH  29  32
ATOM     32  S   UNL     1       3.283 -10.665  -1.524  0.00  0.00    +0.056 S 
ATOM     33  O   UNL     1       2.078 -11.184  -2.070  0.00  0.00    -0.153 OA
ATOM     34  O   UNL     1       4.558 -10.948  -2.083  0.00  0.00    -0.153 OA
BRANCH  32  35
ATOM     35  N   UNL     1       3.338 -11.161   0.055  0.00  0.00    -0.204 NA
ATOM     36  H   UNL     1       3.280 -10.509   0.771  0.00  0.00    +0.144 HD
ATOM     37  H   UNL     1       3.429 -12.104   0.265  0.00  0.00    +0.144 HD
ENDBRANCH  32  35
ENDBRANCH  29  32
ENDBRANCH  25  26
ENDBRANCH  24  25
ENDBRANCH   9  24
TORSDOF 8
