REMARK  Name = ZINC67535926
REMARK  9 active torsions:
REMARK  status: ('A' for Active; 'I' for Inactive)
REMARK    1  A    between atoms: C_1  and  C_2
REMARK    2  A    between atoms: C_3  and  C_9
REMARK    3  A    between atoms: C_4  and  C_8
REMARK    4  A    between atoms: N_5  and  C_7
REMARK    5  A    between atoms: C_9  and  C_11
REMARK    6  A    between atoms: C_9  and  N_12
REMARK    7  A    between atoms: N_15  and  N_16
REMARK    8  A    between atoms: C_17  and  C_19
REMARK    9  A    between atoms: C_26  and  C_29
REMARK                            x       y       z     vdW  Elec       q    Type
REMARK                         _______ _______ _______ _____ _____    ______ ____
ROOT
ATOM      1  N   UNL     1       0.955   0.751  -2.726  0.00  0.00    -0.292 N 
ATOM      2  C   UNL     1       1.494   1.003  -3.936  0.00  0.00    +0.316 C 
ATOM      3  O   UNL     1       1.182   0.322  -4.893  0.00  0.00    -0.251 OA
ATOM      4  N   UNL     1       2.377   2.010  -4.083  0.00  0.00    -0.218 N 
ATOM      5  H   UNL     1       1.203   1.295  -1.962  0.00  0.00    +0.151 HD
ATOM      6  H   UNL     1       2.765   2.191  -4.954  0.00  0.00    +0.174 HD
ENDROOT
BRANCH   4   7
ATOM      7  N   UNL     1       2.736   2.795  -2.980  0.00  0.00    -0.229 N 
ATOM      8  C   UNL     1       3.619   3.802  -3.128  0.00  0.00    +0.267 C 
ATOM      9  O   UNL     1       4.106   4.029  -4.220  0.00  0.00    -0.268 OA
ATOM     10  H   UNL     1       2.348   2.614  -2.109  0.00  0.00    +0.173 HD
BRANCH   8  11
ATOM     11  C   UNL     1       3.994   4.623  -1.973  0.00  0.00    +0.076 A 
ATOM     12  C   UNL     1       4.867   5.694  -1.911  0.00  0.00    +0.024 A 
ATOM     13  C   UNL     1       5.035   6.293  -0.672  0.00  0.00    -0.036 A 
ATOM     14  C   UNL     1       4.322   5.768   0.365  0.00  0.00    -0.006 A 
ATOM     15  S   UNL     1       3.438   4.508  -0.283  0.00  0.00    -0.088 S 
ATOM     16  C   UNL     1       4.331   6.238   1.790  0.00  0.00    +0.043 C 
ATOM     17  C   UNL     1       4.971   7.632   1.837  0.00  0.00    +0.009 C 
ATOM     18  C   UNL     1       6.276   7.602   1.037  0.00  0.00    -0.009 C 
ATOM     19  C   UNL     1       5.967   7.483  -0.456  0.00  0.00    +0.039 C 
ATOM     20  C   UNL     1       7.058   8.893   1.292  0.00  0.00    +0.008 C 
ENDBRANCH   8  11
ENDBRANCH   4   7
BRANCH   1  21
ATOM     21  C   UNL     1      -0.006  -0.343  -2.566  0.00  0.00    +0.105 C 
ATOM     22  C   UNL     1      -1.408   0.152  -2.925  0.00  0.00    +0.033 C 
BRANCH  21  25
ATOM     23  C   UNL     1      -0.018   1.503   0.010  0.00  0.00    +0.068 C 
ATOM     24  C   UNL     1       0.002  -0.004   0.002  0.00  0.00    +0.065 A 
ATOM     25  C   UNL     1       0.008  -0.818  -1.135  0.00  0.00    +0.016 A 
ATOM     26  C   UNL     1       0.028  -2.107  -0.725  0.00  0.00    +0.041 A 
ATOM     27  N   UNL     1       0.034  -2.109   0.625  0.00  0.00    -0.271 N 
ATOM     28  N   UNL     1       0.023  -0.777   1.058  0.00  0.00    -0.176 NA
ATOM     29  C   UNL     1       0.055  -3.295   1.485  0.00  0.00    +0.172 C 
ATOM     30  C   UNL     1       0.040  -3.323  -1.615  0.00  0.00    +0.065 C 
ENDBRANCH  21  25
ENDBRANCH   1  21
TORSDOF 4
