REMARK  Name = ZINC67042961
REMARK  5 active torsions:
REMARK  status: ('A' for Active; 'I' for Inactive)
REMARK    1  A    between atoms: C_6  and  C_7
REMARK    2  A    between atoms: C_7  and  C_10
REMARK    3  A    between atoms: C_10  and  N_11
REMARK    4  A    between atoms: N_14  and  C_15
REMARK    5  A    between atoms: C_21  and  C_23
REMARK                            x       y       z     vdW  Elec       q    Type
REMARK                         _______ _______ _______ _____ _____    ______ ____
ROOT
ATOM      1  N   UNL     1      -2.256   1.406  -0.534  0.00  0.00    -0.299 N 
ATOM      2  C   UNL     1      -3.206   2.256  -0.972  0.00  0.00    +0.300 C 
ATOM      3  O   UNL     1      -4.221   1.824  -1.482  0.00  0.00    -0.253 OA
ATOM      4  N   UNL     1      -3.029   3.587  -0.846  0.00  0.00    -0.296 N 
ATOM      5  H   UNL     1      -1.446   1.751  -0.128  0.00  0.00    +0.150 HD
ATOM      6  H   UNL     1      -2.219   3.932  -0.439  0.00  0.00    +0.151 HD
ENDROOT
BRANCH   4   7
ATOM      7  C   UNL     1      -4.061   4.511  -1.322  0.00  0.00    +0.077 C 
ATOM      8  C   UNL     1      -3.860   4.773  -2.816  0.00  0.00    +0.041 C 
ATOM      9  C   UNL     1      -4.961   5.713  -3.318  0.00  0.00    +0.109 C 
ATOM     10  N   UNL     1      -4.963   6.925  -2.488  0.00  0.00    -0.301 N 
ATOM     11  C   UNL     1      -5.060   6.782  -1.029  0.00  0.00    +0.109 C 
ATOM     12  C   UNL     1      -3.958   5.830  -0.552  0.00  0.00    +0.041 C 
ATOM     13  C   UNL     1      -4.878   8.145  -3.054  0.00  0.00    +0.219 C 
ATOM     14  O   UNL     1      -4.798   8.250  -4.259  0.00  0.00    -0.275 OA
BRANCH  13  15
ATOM     15  C   UNL     1      -4.881   9.379  -2.189  0.00  0.00    +0.075 C 
ATOM     16  C   UNL     1      -6.106  10.292  -2.266  0.00  0.00    +0.013 C 
ATOM     17  C   UNL     1      -4.781  10.734  -2.891  0.00  0.00    +0.013 C 
ENDBRANCH  13  15
ENDBRANCH   4   7
BRANCH   1  18
ATOM     18  C   UNL     1      -2.448  -0.040  -0.672  0.00  0.00    +0.117 C 
BRANCH  18  19
ATOM     19  C   UNL     1      -1.263  -0.774  -0.042  0.00  0.00    +0.011 C 
ATOM     20  C   UNL     1      -1.263  -0.941   1.479  0.00  0.00    +0.014 C 
ATOM     21  C   UNL     1      -1.530  -2.147   0.577  0.00  0.00    +0.014 C 
BRANCH  19  27
ATOM     22  C   UNL     1       0.966   0.353  -0.205  0.00  0.00    +0.005 A 
ATOM     23  C   UNL     1       2.186   0.547  -0.825  0.00  0.00    +0.020 A 
ATOM     24  C   UNL     1       2.507  -0.176  -1.960  0.00  0.00    +0.041 A 
ATOM     25  C   UNL     1       1.607  -1.092  -2.474  0.00  0.00    +0.020 A 
ATOM     26  C   UNL     1       0.387  -1.285  -1.853  0.00  0.00    +0.005 A 
ATOM     27  C   UNL     1       0.067  -0.563  -0.719  0.00  0.00    -0.040 A 
ATOM     28 CL   UNL     1       4.039   0.067  -2.740  0.00  0.00    -0.084 Cl
ENDBRANCH  19  27
ENDBRANCH  18  19
ENDBRANCH   1  18
TORSDOF 5
