REMARK  Name = ZINC32732926
REMARK  17 active torsions:
REMARK  status: ('A' for Active; 'I' for Inactive)
REMARK    1  A    between atoms: C_1  and  C_2
REMARK    2  A    between atoms: C_2  and  C_3
REMARK    3  A    between atoms: C_6  and  C_9
REMARK    4  A    between atoms: C_9  and  C_11
REMARK    5  A    between atoms: C_9  and  N_32
REMARK    6  A    between atoms: C_11  and  N_12
REMARK    7  A    between atoms: C_13  and  C_15
REMARK    8  A    between atoms: C_15  and  C_17
REMARK    9  A    between atoms: C_15  and  N_20
REMARK   10  A    between atoms: C_17  and  C_18
REMARK   11  A    between atoms: C_17  and  C_19
REMARK   12  A    between atoms: N_20  and  S_21
REMARK   13  A    between atoms: S_21  and  C_24
REMARK   14  A    between atoms: C_27  and  O_30
REMARK   15  A    between atoms: O_30  and  C_31
REMARK   16  A    between atoms: N_32  and  C_33
REMARK   17  A    between atoms: N_32  and  C_34
REMARK                            x       y       z     vdW  Elec       q    Type
REMARK                         _______ _______ _______ _____ _____    ______ ____
ROOT
ATOM      1  N   UNL     1      -0.122   1.417   3.654  0.00  0.00    -0.315 N 
ATOM      2  C   UNL     1      -1.061   1.737   2.743  0.00  0.00    +0.232 C 
ATOM      3  O   UNL     1      -2.230   1.780   3.066  0.00  0.00    -0.274 OA
ATOM      4  H   UNL     1       0.944   1.464   3.385  0.00  0.00    +0.149 HD
ENDROOT
BRANCH   1   5
ATOM      5  C   UNL     1      -0.519   1.005   5.003  0.00  0.00    +0.093 C 
BRANCH   5   6
ATOM      6  C   UNL     1       0.717   0.553   5.783  0.00  0.00    -0.021 C 
BRANCH   6  10
ATOM      7  C   UNL     1      -0.420  -0.503   9.763  0.00  0.00    -0.048 A 
ATOM      8  C   UNL     1      -0.197   0.822   9.436  0.00  0.00    +0.004 A 
ATOM      9  C   UNL     1       0.171   1.163   8.148  0.00  0.00    +0.002 A 
ATOM     10  C   UNL     1       0.316   0.180   7.187  0.00  0.00    -0.059 A 
ATOM     11  C   UNL     1       0.087  -1.143   7.513  0.00  0.00    +0.002 A 
ATOM     12  C   UNL     1      -0.276  -1.486   8.802  0.00  0.00    +0.004 A 
BRANCH   7  14
ATOM     13  C   UNL     1      -2.348  -0.855  11.283  0.00  0.00    +0.009 C 
ATOM     14  C   UNL     1      -0.822  -0.875  11.167  0.00  0.00    +0.032 C 
ENDBRANCH   7  14
ENDBRANCH   6  10
BRANCH   6  15
ATOM     15  N   UNL     1       1.315  -0.613   5.119  0.00  0.00    +0.382 N 
ATOM     16  C   UNL     1       0.281  -1.459   4.508  0.00  0.00    -0.096 C 
ATOM     17  C   UNL     1       2.312  -0.198   4.123  0.00  0.00    -0.096 C 
ATOM     18  H   UNL     1       1.831  -1.210   5.885  0.00  0.00    -0.082 HD
ENDBRANCH   6  15
ENDBRANCH   5   6
ENDBRANCH   1   5
BRANCH   2  19
ATOM     19  C   UNL     1      -0.661   2.043   1.323  0.00  0.00    +0.165 C 
BRANCH  19  20
ATOM     20  C   UNL     1      -0.054   3.446   1.254  0.00  0.00    +0.010 C 
ATOM     21  C   UNL     1       0.462   3.710  -0.161  0.00  0.00    +0.009 C 
ATOM     22  C   UNL     1      -1.122   4.482   1.609  0.00  0.00    +0.009 C 
ENDBRANCH  19  20
BRANCH  19  23
ATOM     23  N   UNL     1      -1.841   1.979   0.458  0.00  0.00    -0.178 NA
ATOM     24  H   UNL     1      -2.733   2.575   0.700  0.00  0.00    +0.149 HD
BRANCH  23  25
ATOM     25  S   UNL     1      -1.933   0.835  -0.736  0.00  0.00    +0.059 S 
ATOM     26  O   UNL     1      -3.200   0.997  -1.358  0.00  0.00    -0.153 OA
ATOM     27  O   UNL     1      -0.713   0.907  -1.462  0.00  0.00    -0.153 OA
BRANCH  25  28
ATOM     28  C   UNL     1      -1.957  -0.741   0.054  0.00  0.00    +0.105 A 
ATOM     29  C   UNL     1      -0.770  -1.403   0.308  0.00  0.00    +0.032 A 
ATOM     30  C   UNL     1      -0.786  -2.636   0.932  0.00  0.00    +0.047 A 
ATOM     31  C   UNL     1      -1.995  -3.213   1.293  0.00  0.00    +0.120 A 
ATOM     32  C   UNL     1      -3.184  -2.549   1.032  0.00  0.00    +0.047 A 
ATOM     33  C   UNL     1      -3.163  -1.314   0.413  0.00  0.00    +0.032 A 
BRANCH  31  34
ATOM     34  O   UNL     1      -2.013  -4.428   1.902  0.00  0.00    -0.495 OA
ATOM     35  C   UNL     1      -0.751  -5.054   2.140  0.00  0.00    +0.277 C 
ENDBRANCH  31  34
ENDBRANCH  25  28
ENDBRANCH  23  25
ENDBRANCH  19  23
ENDBRANCH   2  19
TORSDOF 11
