REMARK  Name = ZINC35394913
REMARK  15 active torsions:
REMARK  status: ('A' for Active; 'I' for Inactive)
REMARK    1  A    between atoms: C_1  and  C_2
REMARK    2  A    between atoms: C_2  and  C_3
REMARK    3  A    between atoms: C_3  and  C_5
REMARK    4  A    between atoms: C_3  and  N_6
REMARK    5  A    between atoms: N_6  and  C_7
REMARK    6  A    between atoms: C_7  and  C_8
REMARK    7  A    between atoms: N_10  and  C_11
REMARK    8  A    between atoms: N_10  and  C_23
REMARK    9  A    between atoms: C_11  and  C_12
REMARK   10  A    between atoms: C_12  and  C_13
REMARK   11  A    between atoms: C_23  and  C_24
REMARK   12  A    between atoms: C_27  and  N_30
REMARK   13  A    between atoms: N_30  and  C_31
REMARK   14  A    between atoms: N_30  and  C_32
REMARK   15  A    between atoms: C_33  and  C_35
REMARK                            x       y       z     vdW  Elec       q    Type
REMARK                         _______ _______ _______ _____ _____    ______ ____
ROOT
ATOM      1  C   UNL     1      -2.403  -0.633  -3.291  0.00  0.00    +0.233 C 
ATOM      2  O   UNL     1      -1.588   0.183  -2.916  0.00  0.00    -0.274 OA
ATOM      3  N   UNL     1      -3.201  -0.354  -4.341  0.00  0.00    -0.296 N 
ENDROOT
BRANCH   1   4
ATOM      4  C   UNL     1      -2.524  -1.958  -2.583  0.00  0.00    +0.204 C 
BRANCH   4   5
ATOM      5  N   UNL     1      -1.725  -1.931  -1.356  0.00  0.00    -0.286 N 
ATOM      6  C   UNL     1      -0.480  -2.448  -1.351  0.00  0.00    +0.247 C 
ATOM      7  O   UNL     1       0.041  -2.788  -2.396  0.00  0.00    -0.270 OA
BRANCH   6   8
ATOM      8  C   UNL     1       0.251  -2.601  -0.077  0.00  0.00    +0.037 A 
ATOM      9  C   UNL     1       0.332  -1.532   0.818  0.00  0.00    +0.016 A 
ATOM     10  C   UNL     1       1.016  -1.680   2.005  0.00  0.00    +0.039 A 
ATOM     11  C   UNL     1       1.623  -2.888   2.312  0.00  0.00    +0.123 A 
ATOM     12  C   UNL     1       1.546  -3.953   1.428  0.00  0.00    +0.039 A 
ATOM     13  C   UNL     1       0.859  -3.817   0.240  0.00  0.00    +0.016 A 
ATOM     14  F   UNL     1       2.293  -3.028   3.478  0.00  0.00    -0.205 F 
ENDBRANCH   6   8
BRANCH   5  15
ATOM     15  C   UNL     1      -2.278  -1.342  -0.134  0.00  0.00    +0.074 C 
ATOM     16  C   UNL     1      -1.984   0.160  -0.113  0.00  0.00    +0.028 C 
BRANCH  15  18
ATOM     17  C   UNL     1      -4.090  -3.057  -0.266  0.00  0.00    +0.005 C 
ATOM     18  C   UNL     1      -3.791  -1.565  -0.100  0.00  0.00    +0.019 C 
ENDBRANCH  15  18
ENDBRANCH   5  15
ENDBRANCH   4   5
ENDBRANCH   1   4
BRANCH   3  19
ATOM     19  C   UNL     1      -3.002   0.879  -5.105  0.00  0.00    +0.113 C 
BRANCH  19  20
ATOM     20  C   UNL     1      -2.019   0.617  -6.249  0.00  0.00    +0.056 C 
BRANCH  20  21
ATOM     21  C   UNL     1      -1.814   1.886  -7.035  0.00  0.00    -0.021 A 
ATOM     22  C   UNL     1      -2.469   2.250  -8.149  0.00  0.00    +0.087 A 
ATOM     23  N   UNL     1      -2.014   3.466  -8.582  0.00  0.00    -0.360 N 
ATOM     24  H   UNL     1      -2.337   3.934  -9.368  0.00  0.00    +0.165 HD
ATOM     25  C   UNL     1      -1.030   3.925  -7.736  0.00  0.00    +0.047 A 
ATOM     26  C   UNL     1      -0.866   2.959  -6.726  0.00  0.00    +0.003 A 
ATOM     27  C   UNL     1       0.073   3.163  -5.713  0.00  0.00    +0.010 A 
ATOM     28  C   UNL     1       0.826   4.303  -5.705  0.00  0.00    +0.001 A 
ATOM     29  C   UNL     1       0.665   5.261  -6.697  0.00  0.00    +0.002 A 
ATOM     30  C   UNL     1      -0.249   5.076  -7.711  0.00  0.00    +0.026 A 
ENDBRANCH  20  21
ENDBRANCH  19  20
ENDBRANCH   3  19
BRANCH   3  31
ATOM     31  C   UNL     1      -4.268  -1.285  -4.717  0.00  0.00    +0.143 C 
BRANCH  31  32
ATOM     32  C   UNL     1      -3.754  -2.242  -5.762  0.00  0.00    -0.030 A 
ATOM     33  C   UNL     1      -3.679  -1.845  -7.084  0.00  0.00    +0.007 A 
ATOM     34  C   UNL     1      -3.208  -2.719  -8.044  0.00  0.00    +0.023 A 
ATOM     35  C   UNL     1      -2.811  -3.999  -7.679  0.00  0.00    +0.029 A 
ATOM     36  C   UNL     1      -2.888  -4.395  -6.350  0.00  0.00    +0.023 A 
ATOM     37  C   UNL     1      -3.354  -3.514  -5.395  0.00  0.00    +0.007 A 
BRANCH  35  38
ATOM     38  N   UNL     1      -2.335  -4.887  -8.648  0.00  0.00    -0.336 N 
ATOM     39  C   UNL     1      -2.255  -4.468 -10.049  0.00  0.00    +0.129 C 
ATOM     40  C   UNL     1      -1.917  -6.237  -8.262  0.00  0.00    +0.129 C 
ENDBRANCH  35  38
ENDBRANCH  31  32
ENDBRANCH   3  31
TORSDOF 11
