REMARK  Name = ZINC01237015
REMARK  14 active torsions:
REMARK  status: ('A' for Active; 'I' for Inactive)
REMARK    1  A    between atoms: C_1  and  C_2
REMARK    2  A    between atoms: C_2  and  C_3
REMARK    3  A    between atoms: C_2  and  C_4
REMARK    4  A    between atoms: C_2  and  C_5
REMARK    5  A    between atoms: C_6  and  C_27
REMARK    6  A    between atoms: C_7  and  C_15
REMARK    7  A    between atoms: C_9  and  C_13
REMARK    8  A    between atoms: C_10  and  N_12
REMARK    9  A    between atoms: C_18  and  O_25
REMARK   10  A    between atoms: C_19  and  O_23
REMARK   11  A    between atoms: C_20  and  O_21
REMARK   12  A    between atoms: O_21  and  C_22
REMARK   13  A    between atoms: O_23  and  C_24
REMARK   14  A    between atoms: O_25  and  C_26
REMARK                            x       y       z     vdW  Elec       q    Type
REMARK                         _______ _______ _______ _____ _____    ______ ____
ROOT
ATOM      1  C   UNL     1      -2.506  -1.113   0.100  0.00  0.00    +0.127 C 
ATOM      2  C   UNL     1      -1.275  -0.590   0.111  0.00  0.00    +0.080 C 
ATOM      3  C   UNL     1      -0.765   0.226  -1.045  0.00  0.00    +0.112 C 
ATOM      4  C   UNL     1      -1.634   0.001  -2.253  0.00  0.00    +0.099 C 
ATOM      5  C   UNL     1      -2.859  -0.561  -2.133  0.00  0.00    +0.198 C 
ATOM      6  O   UNL     1      -3.344  -0.938  -0.936  0.00  0.00    -0.444 OA
ENDROOT
BRANCH   3   7
ATOM      7  C   UNL     1      -0.789   1.687  -0.676  0.00  0.00    +0.012 A 
ATOM      8  C   UNL     1      -1.986   2.296  -0.348  0.00  0.00    +0.012 A 
ATOM      9  C   UNL     1      -2.012   3.635  -0.005  0.00  0.00    +0.050 A 
ATOM     10  C   UNL     1      -0.839   4.374   0.002  0.00  0.00    +0.165 A 
ATOM     11  C   UNL     1       0.365   3.767  -0.332  0.00  0.00    +0.204 A 
ATOM     12  C   UNL     1       0.388   2.419  -0.672  0.00  0.00    +0.169 A 
BRANCH  12  13
ATOM     13  O   UNL     1       1.564   1.820  -1.000  0.00  0.00    -0.491 OA
ATOM     14  C   UNL     1       2.385   1.368   0.079  0.00  0.00    +0.277 C 
ENDBRANCH  12  13
BRANCH  11  15
ATOM     15  O   UNL     1       1.518   4.489  -0.326  0.00  0.00    -0.488 OA
ATOM     16  C   UNL     1       1.853   5.185  -1.528  0.00  0.00    +0.277 C 
ENDBRANCH  11  15
BRANCH  10  17
ATOM     17  O   UNL     1      -0.867   5.692   0.336  0.00  0.00    -0.491 OA
ATOM     18  C   UNL     1      -2.140   6.251   0.668  0.00  0.00    +0.277 C 
ENDBRANCH  10  17
ENDBRANCH   3   7
BRANCH   1  20
ATOM     19  C   UNL     1      -2.920  -1.053   2.545  0.00  0.00    +0.019 C 
ATOM     20  C   UNL     1      -2.967  -1.921   1.285  0.00  0.00    +0.021 C 
ATOM     21  C   UNL     1      -4.401  -2.400   1.049  0.00  0.00    +0.019 C 
ATOM     22  C   UNL     1      -2.049  -3.131   1.465  0.00  0.00    +0.019 C 
ENDBRANCH   1  20
BRANCH   5  23
ATOM     23  N   UNL     1      -3.625  -0.750  -3.257  0.00  0.00    -0.328 N 
ATOM     24  H   UNL     1      -4.505  -1.151  -3.183  0.00  0.00    +0.145 HD
ATOM     25  H   UNL     1      -3.285  -0.482  -4.126  0.00  0.00    +0.145 HD
ENDBRANCH   5  23
BRANCH   4  26
ATOM     26  C   UNL     1      -1.159   0.387  -3.547  0.00  0.00    +0.101 C 
ATOM     27  N   UNL     1      -0.783   0.693  -4.575  0.00  0.00    -0.191 NA
ENDBRANCH   4  26
BRANCH   2  28
ATOM     28  C   UNL     1      -0.428  -0.810   1.244  0.00  0.00    +0.099 C 
ATOM     29  N   UNL     1       0.245  -0.986   2.143  0.00  0.00    -0.191 NA
ENDBRANCH   2  28
TORSDOF 8
