REMARK  Name = ZINC40984929
REMARK  10 active torsions:
REMARK  status: ('A' for Active; 'I' for Inactive)
REMARK    1  A    between atoms: C_1  and  C_2
REMARK    2  A    between atoms: C_2  and  O_3
REMARK    3  A    between atoms: O_3  and  C_4
REMARK    4  A    between atoms: C_7  and  C_10
REMARK    5  A    between atoms: C_12  and  C_16
REMARK    6  A    between atoms: C_13  and  C_15
REMARK    7  A    between atoms: C_16  and  N_17
REMARK    8  A    between atoms: C_20  and  C_23
REMARK    9  A    between atoms: N_25  and  C_26
REMARK   10  A    between atoms: C_26  and  C_27
REMARK                            x       y       z     vdW  Elec       q    Type
REMARK                         _______ _______ _______ _____ _____    ______ ____
ROOT
ATOM      1  N   UNL     1      -4.282  -9.463  -1.413  0.00  0.00    +0.383 N 
ATOM      2  C   UNL     1      -4.915  -8.310  -2.066  0.00  0.00    -0.078 C 
ATOM      3  C   UNL     1      -5.195  -8.640  -3.533  0.00  0.00    -0.006 C 
ATOM      4  C   UNL     1      -6.132  -9.849  -3.609  0.00  0.00    +0.071 C 
ATOM      5  C   UNL     1      -5.495 -11.024  -2.861  0.00  0.00    -0.006 C 
ATOM      6  C   UNL     1      -5.203 -10.605  -1.419  0.00  0.00    -0.078 C 
ATOM      7  H   UNL     1      -3.440  -9.708  -1.912  0.00  0.00    -0.081 HD
ENDROOT
BRANCH   4   8
ATOM      8  C   UNL     1      -6.350 -10.228  -5.051  0.00  0.00    +0.216 C 
ATOM      9  O   UNL     1      -5.810  -9.595  -5.933  0.00  0.00    -0.276 OA
ATOM     10  N   UNL     1      -7.145 -11.271  -5.361  0.00  0.00    -0.311 N 
ATOM     11  H   UNL     1      -7.577 -11.778  -4.655  0.00  0.00    +0.149 HD
BRANCH  10  12
ATOM     12  C   UNL     1      -7.357 -11.640  -6.763  0.00  0.00    +0.139 C 
BRANCH  12  13
ATOM     13  C   UNL     1      -8.280 -12.830  -6.835  0.00  0.00    -0.030 A 
ATOM     14  C   UNL     1      -7.758 -14.110  -6.812  0.00  0.00    +0.006 A 
ATOM     15  C   UNL     1      -8.604 -15.202  -6.879  0.00  0.00    +0.015 A 
ATOM     16  C   UNL     1      -9.971 -15.013  -6.968  0.00  0.00    +0.018 A 
ATOM     17  C   UNL     1     -10.492 -13.732  -6.990  0.00  0.00    +0.015 A 
ATOM     18  C   UNL     1      -9.646 -12.641  -6.919  0.00  0.00    +0.006 A 
ATOM     19 BR   UNL     1     -11.128 -16.506  -7.059  0.00  0.00    -0.050 Br
ENDBRANCH  12  13
ENDBRANCH  10  12
ENDBRANCH   4   8
BRANCH   1  20
ATOM     20  C   UNL     1      -3.944  -9.114  -0.027  0.00  0.00    -0.019 C 
BRANCH  20  23
ATOM     21  C   UNL     1      -1.998  -6.066  -0.013  0.00  0.00    +0.228 A 
ATOM     22  N   UNL     1      -3.146  -6.702  -0.016  0.00  0.00    -0.216 NA
ATOM     23  C   UNL     1      -2.905  -8.023  -0.022  0.00  0.00    +0.066 A 
ATOM     24  C   UNL     1      -1.571  -8.198  -0.024  0.00  0.00    +0.124 A 
ATOM     25  O   UNL     1      -1.006  -6.974  -0.023  0.00  0.00    -0.440 OA
ATOM     26  C   UNL     1      -0.844  -9.518  -0.029  0.00  0.00    +0.088 C 
BRANCH  21  30
ATOM     27  C   UNL     1      -1.498  -1.848   0.006  0.00  0.00    +0.121 A 
ATOM     28  C   UNL     1      -0.384  -2.677  -0.003  0.00  0.00    +0.046 A 
ATOM     29  C   UNL     1      -0.542  -4.046  -0.009  0.00  0.00    +0.017 A 
ATOM     30  C   UNL     1      -1.824  -4.599  -0.006  0.00  0.00    +0.037 A 
ATOM     31  C   UNL     1      -2.942  -3.762   0.004  0.00  0.00    +0.017 A 
ATOM     32  C   UNL     1      -2.775  -2.394   0.016  0.00  0.00    +0.046 A 
BRANCH  27  33
ATOM     33  O   UNL     1      -1.339  -0.499   0.012  0.00  0.00    -0.492 OA
BRANCH  33  35
ATOM     34  C   UNL     1      -0.019   1.526   0.010  0.00  0.00    +0.048 C 
ATOM     35  C   UNL     1       0.002  -0.004   0.002  0.00  0.00    +0.225 C 
ENDBRANCH  33  35
ENDBRANCH  27  33
ENDBRANCH  21  30
ENDBRANCH  20  23
ENDBRANCH   1  20
TORSDOF 8
