REMARK  Name = ZINC20791026
REMARK  7 active torsions:
REMARK  status: ('A' for Active; 'I' for Inactive)
REMARK    1  A    between atoms: C_1  and  C_2
REMARK    2  A    between atoms: C_3  and  C_20
REMARK    3  A    between atoms: C_4  and  C_10
REMARK    4  A    between atoms: C_14  and  N_16
REMARK    5  A    between atoms: N_22  and  C_23
REMARK    6  A    between atoms: C_28  and  O_29
REMARK    7  A    between atoms: O_29  and  C_30
REMARK                            x       y       z     vdW  Elec       q    Type
REMARK                         _______ _______ _______ _____ _____    ______ ____
ROOT
ATOM      1  C   UNL     1       3.395  -4.435  -3.169  0.00  0.00    +0.061 C 
ATOM      2  C   UNL     1       2.913  -4.152  -1.770  0.00  0.00    +0.017 C 
ATOM      3  C   UNL     1       2.551  -2.895  -1.434  0.00  0.00    +0.056 C 
ATOM      4  C   UNL     1       2.072  -2.654  -0.017  0.00  0.00    +0.139 C 
ATOM      5  N   UNL     1       2.040  -3.818   0.884  0.00  0.00    -0.315 N 
ATOM      6  C   UNL     1       2.433  -5.013   0.401  0.00  0.00    +0.135 C 
ATOM      7  S   UNL     1       2.401  -6.376   1.437  0.00  0.00    -0.019 S 
ATOM      8  N   UNL     1       2.849  -5.170  -0.862  0.00  0.00    -0.300 N 
ATOM      9  H   UNL     1       1.701  -3.700   1.923  0.00  0.00    +0.149 HD
ATOM     10  H   UNL     1       3.148  -6.187  -1.155  0.00  0.00    +0.154 HD
ENDROOT
BRANCH   4  11
ATOM     11  C   UNL     1       0.680  -2.083  -0.088  0.00  0.00    -0.020 A 
ATOM     12  C   UNL     1      -0.399  -2.918  -0.312  0.00  0.00    +0.007 A 
ATOM     13  C   UNL     1      -1.677  -2.395  -0.377  0.00  0.00    +0.022 A 
ATOM     14  C   UNL     1      -1.876  -1.035  -0.219  0.00  0.00    +0.071 A 
ATOM     15  C   UNL     1      -0.796  -0.200   0.004  0.00  0.00    +0.145 A 
ATOM     16  C   UNL     1       0.481  -0.723   0.064  0.00  0.00    +0.040 A 
ATOM     17 CL   UNL     1      -3.481  -0.378  -0.302  0.00  0.00    -0.081 Cl
BRANCH  15  18
ATOM     18  N   UNL     1      -1.009   1.255   0.173  0.00  0.00    +0.058 N 
ATOM     19  O   UNL     1      -0.072   1.978   0.463  0.00  0.00    -0.126 OA
ATOM     20  O   UNL     1      -2.119   1.731   0.016  0.00  0.00    -0.126 OA
ENDBRANCH  15  18
ENDBRANCH   4  11
BRANCH   3  21
ATOM     21  C   UNL     1       2.619  -1.838  -2.374  0.00  0.00    +0.248 C 
ATOM     22  O   UNL     1       3.526  -1.029  -2.317  0.00  0.00    -0.270 OA
ATOM     23  N   UNL     1       1.677  -1.728  -3.333  0.00  0.00    -0.279 N 
ATOM     24  H   UNL     1       0.881  -2.483  -3.411  0.00  0.00    +0.155 HD
BRANCH  23  25
ATOM     25  C   UNL     1       1.713  -0.652  -4.229  0.00  0.00    +0.076 A 
ATOM     26  C   UNL     1       2.913  -0.012  -4.500  0.00  0.00    +0.027 A 
ATOM     27  C   UNL     1       2.947   1.046  -5.389  0.00  0.00    +0.002 A 
ATOM     28  C   UNL     1       1.784   1.475  -6.002  0.00  0.00    +0.004 A 
ATOM     29  C   UNL     1       0.583   0.846  -5.732  0.00  0.00    +0.047 A 
ATOM     30  C   UNL     1       0.542  -0.219  -4.846  0.00  0.00    +0.141 A 
BRANCH  30  31
ATOM     31  O   UNL     1      -0.639  -0.839  -4.580  0.00  0.00    -0.493 OA
ATOM     32  C   UNL     1      -1.778  -0.414  -5.331  0.00  0.00    +0.277 C 
ENDBRANCH  30  31
ENDBRANCH  23  25
ENDBRANCH   3  21
TORSDOF 5
