REMARK  Name = ZINC52095076
REMARK  3 active torsions:
REMARK  status: ('A' for Active; 'I' for Inactive)
REMARK    1  A    between atoms: C_3  and  N_22
REMARK    2  A    between atoms: C_5  and  C_6
REMARK    3  A    between atoms: C_6  and  C_8
REMARK                            x       y       z     vdW  Elec       q    Type
REMARK                         _______ _______ _______ _____ _____    ______ ____
ROOT
ATOM      1  C   UNL     1      -1.242  -1.690   1.293  0.00  0.00    -0.006 A 
ATOM      2  C   UNL     1      -1.904  -1.183   2.394  0.00  0.00    +0.034 A 
ATOM      3  C   UNL     1      -1.935  -1.909   3.575  0.00  0.00    +0.067 A 
ATOM      4  C   UNL     1      -1.296  -3.149   3.647  0.00  0.00    +0.068 A 
ATOM      5  C   UNL     1      -0.634  -3.650   2.537  0.00  0.00    +0.043 A 
ATOM      6  C   UNL     1      -0.613  -2.922   1.362  0.00  0.00    +0.025 A 
ATOM      7 BR   UNL     1       0.282  -3.609  -0.155  0.00  0.00    -0.050 Br
ATOM      8  N   UNL     1      -1.496  -3.631   4.938  0.00  0.00    -0.306 N 
ATOM      9  H   UNL     1      -1.168  -4.474   5.287  0.00  0.00    +0.170 HD
ATOM     10  C   UNL     1      -2.223  -2.725   5.621  0.00  0.00    +0.325 A 
ATOM     11  O   UNL     1      -2.573  -2.839   6.781  0.00  0.00    -0.247 OA
ATOM     12  N   UNL     1      -2.503  -1.676   4.825  0.00  0.00    -0.306 N 
ATOM     13  H   UNL     1      -3.013  -0.891   5.080  0.00  0.00    +0.170 HD
ENDROOT
BRANCH   1  14
ATOM     14  C   UNL     1      -1.208  -0.902   0.009  0.00  0.00    +0.177 C 
ATOM     15 CL   UNL     1      -1.387   0.854   0.377  0.00  0.00    -0.108 Cl
BRANCH  14  20
ATOM     16  C   UNL     1      -2.209  -1.958  -2.074  0.00  0.00    +0.049 A 
ATOM     17  C   UNL     1      -3.516  -2.191  -2.559  0.00  0.00    +0.076 A 
ATOM     18  C   UNL     1      -4.367  -1.708  -1.637  0.00  0.00    +0.280 A 
ATOM     19  O   UNL     1      -3.649  -1.197  -0.623  0.00  0.00    -0.437 OA
ATOM     20  C   UNL     1      -2.339  -1.346  -0.883  0.00  0.00    +0.130 A 
BRANCH  18  21
ATOM     21  N   UNL     1      -5.844  -1.735  -1.723  0.00  0.00    +0.093 N 
ATOM     22  O   UNL     1      -6.385  -2.223  -2.688  0.00  0.00    -0.123 OA
ATOM     23  O   UNL     1      -6.511  -1.268  -0.829  0.00  0.00    -0.123 OA
ENDBRANCH  18  21
ENDBRANCH  14  20
ENDBRANCH   1  14
TORSDOF 3
