REMARK  Name = ZINC44858759
REMARK  7 active torsions:
REMARK  status: ('A' for Active; 'I' for Inactive)
REMARK    1  A    between atoms: C_1  and  C_2
REMARK    2  A    between atoms: C_2  and  C_3
REMARK    3  A    between atoms: C_3  and  C_5
REMARK    4  A    between atoms: C_3  and  C_8
REMARK    5  A    between atoms: C_5  and  N_7
REMARK    6  A    between atoms: C_12  and  C_19
REMARK    7  A    between atoms: C_16  and  C_18
REMARK                            x       y       z     vdW  Elec       q    Type
REMARK                         _______ _______ _______ _____ _____    ______ ____
ROOT
ATOM      1  C   UNL     1      -1.451  -2.043   0.502  0.00  0.00    +0.225 C 
ATOM      2  O   UNL     1      -0.389  -2.627   0.553  0.00  0.00    -0.275 OA
ATOM      3  N   UNL     1      -2.597  -2.740   0.370  0.00  0.00    -0.297 N 
ATOM      4  C   UNL     1      -3.898  -2.060   0.428  0.00  0.00    +0.120 C 
ATOM      5  C   UNL     1      -4.768  -2.748   1.484  0.00  0.00    +0.092 C 
ATOM      6  C   UNL     1      -4.854  -4.244   1.172  0.00  0.00    +0.016 C 
ATOM      7  C   UNL     1      -3.454  -4.859   1.224  0.00  0.00    +0.023 C 
ATOM      8  C   UNL     1      -2.569  -4.194   0.159  0.00  0.00    +0.073 C 
ATOM      9  C   UNL     1      -1.132  -4.704   0.292  0.00  0.00    +0.028 C 
ENDROOT
BRANCH   5  10
ATOM     10  C   UNL     1      -4.154  -2.552   2.847  0.00  0.00    +0.215 C 
ATOM     11  O   UNL     1      -3.123  -1.925   2.963  0.00  0.00    -0.276 OA
ATOM     12  N   UNL     1      -4.751  -3.075   3.936  0.00  0.00    -0.329 N 
ATOM     13  H   UNL     1      -5.576  -3.577   3.843  0.00  0.00    +0.145 HD
ATOM     14  H   UNL     1      -4.356  -2.949   4.813  0.00  0.00    +0.145 HD
ENDBRANCH   5  10
BRANCH   1  15
ATOM     15  C   UNL     1      -1.489  -0.539   0.588  0.00  0.00    +0.126 C 
BRANCH  15  17
ATOM     16  C   UNL     1      -0.112   1.514   0.944  0.00  0.00    +0.005 C 
ATOM     17  C   UNL     1      -0.065  -0.000   0.733  0.00  0.00    +0.016 C 
ENDBRANCH  15  17
BRANCH  15  18
ATOM     18  C   UNL     1      -2.112   0.019  -0.666  0.00  0.00    +0.058 C 
ATOM     19  S   UNL     1      -3.443   0.901  -0.573  0.00  0.00    -0.040 S 
BRANCH  18  20
ATOM     20  N   UNL     1      -1.548  -0.225  -1.865  0.00  0.00    -0.355 N 
ATOM     21  H   UNL     1      -0.741  -0.760  -1.922  0.00  0.00    +0.143 HD
ATOM     22  H   UNL     1      -1.949   0.135  -2.672  0.00  0.00    +0.143 HD
ENDBRANCH  18  20
ENDBRANCH  15  18
ENDBRANCH   1  15
TORSDOF 5
