REMARK  Name = ZINC40150377
REMARK  7 active torsions:
REMARK  status: ('A' for Active; 'I' for Inactive)
REMARK    1  A    between atoms: C_1  and  C_2
REMARK    2  A    between atoms: C_2  and  C_3
REMARK    3  A    between atoms: C_9  and  C_12
REMARK    4  A    between atoms: C_17  and  C_29
REMARK    5  A    between atoms: C_18  and  C_20
REMARK    6  A    between atoms: N_25  and  C_26
REMARK    7  A    between atoms: C_26  and  C_27
REMARK                            x       y       z     vdW  Elec       q    Type
REMARK                         _______ _______ _______ _____ _____    ______ ____
ROOT
ATOM      1  C   UNL     1       1.359  -3.899  -4.552  0.00  0.00    +0.223 C 
ATOM      2  O   UNL     1       1.524  -5.099  -4.600  0.00  0.00    -0.275 OA
ATOM      3  N   UNL     1       1.836  -3.113  -5.537  0.00  0.00    -0.264 N 
ATOM      4  C   UNL     1       2.518  -3.677  -6.606  0.00  0.00    +0.165 A 
ATOM      5  N   UNL     1       2.784  -4.948  -6.826  0.00  0.00    -0.229 NA
ATOM      6  C   UNL     1       3.445  -5.334  -7.895  0.00  0.00    +0.058 A 
ATOM      7  C   UNL     1       3.841  -4.347  -8.764  0.00  0.00    +0.081 A 
ATOM      8  S   UNL     1       3.196  -2.902  -7.937  0.00  0.00    -0.049 S 
ATOM      9  C   UNL     1       3.754  -6.786  -8.153  0.00  0.00    +0.067 C 
ATOM     10  H   UNL     1       1.704  -2.153  -5.498  0.00  0.00    +0.157 HD
ENDROOT
BRANCH   1  17
ATOM     11  C   UNL     1       0.707  -0.490  -1.238  0.00  0.00    +0.215 C 
ATOM     12  O   UNL     1       1.150   0.308  -2.036  0.00  0.00    -0.276 OA
ATOM     13  N   UNL     1       0.847  -1.812  -1.460  0.00  0.00    -0.301 N 
ATOM     14  C   UNL     1       0.310  -2.792  -0.505  0.00  0.00    +0.108 C 
ATOM     15  C   UNL     1      -0.594  -3.771  -1.259  0.00  0.00    +0.020 C 
ATOM     16  C   UNL     1       0.187  -4.389  -2.421  0.00  0.00    +0.016 C 
ATOM     17  C   UNL     1       0.619  -3.286  -3.391  0.00  0.00    +0.093 C 
ATOM     18  C   UNL     1       1.532  -2.301  -2.664  0.00  0.00    +0.120 C 
BRANCH  11  20
ATOM     19  C   UNL     1      -0.019   1.526   0.010  0.00  0.00    +0.013 C 
ATOM     20  C   UNL     1       0.002  -0.004   0.002  0.00  0.00    +0.092 C 
ENDBRANCH  11  20
ENDBRANCH   1  17
BRANCH   7  21
ATOM     21  C   UNL     1       4.585  -4.452 -10.029  0.00  0.00    +0.174 A 
ATOM     22  N   UNL     1       5.024  -5.558 -10.589  0.00  0.00    -0.128 NA
ATOM     23  N   UNL     1       5.633  -5.283 -11.687  0.00  0.00    -0.121 NA
ATOM     24  C   UNL     1       5.621  -3.987 -11.898  0.00  0.00    +0.203 A 
ATOM     25  S   UNL     1       6.332  -3.146 -13.273  0.00  0.00    -0.009 SA
ATOM     26  N   UNL     1       4.949  -3.411 -10.854  0.00  0.00    -0.297 N 
BRANCH  26  27
ATOM     27  C   UNL     1       4.676  -1.986 -10.655  0.00  0.00    +0.152 C 
BRANCH  27  28
ATOM     28  C   UNL     1       5.806  -1.362  -9.877  0.00  0.00    -0.013 C 
ATOM     29  C   UNL     1       6.435  -0.319 -10.358  0.00  0.00    +0.005 C 
ENDBRANCH  27  28
ENDBRANCH  26  27
ENDBRANCH   7  21
TORSDOF 5
