REMARK  Name = ZINC32697505
REMARK  7 active torsions:
REMARK  status: ('A' for Active; 'I' for Inactive)
REMARK    1  A    between atoms: C_1  and  C_2
REMARK    2  A    between atoms: C_2  and  O_3
REMARK    3  A    between atoms: O_3  and  C_4
REMARK    4  A    between atoms: C_7  and  C_10
REMARK    5  A    between atoms: C_16  and  C_18
REMARK    6  A    between atoms: C_18  and  S_19
REMARK    7  A    between atoms: S_19  and  C_20
REMARK                            x       y       z     vdW  Elec       q    Type
REMARK                         _______ _______ _______ _____ _____    ______ ____
ROOT
ATOM      1  C   UNL     1      -1.328   1.996   5.852  0.00  0.00    +0.080 A 
ATOM      2  C   UNL     1      -2.425   2.749   5.539  0.00  0.00    +0.076 A 
ATOM      3  S   UNL     1      -2.356   2.709   3.753  0.00  0.00    -0.060 S 
ATOM      4  C   UNL     1      -0.892   1.694   3.609  0.00  0.00    +0.165 A 
ATOM      5  N   UNL     1      -0.589   1.488   4.877  0.00  0.00    -0.225 NA
ATOM      6  N   UNL     1      -0.242   1.246   2.466  0.00  0.00    -0.264 N 
ATOM      7  C   UNL     1      -0.718   1.572   1.248  0.00  0.00    +0.229 C 
ATOM      8  O   UNL     1      -1.714   2.256   1.150  0.00  0.00    -0.275 OA
ATOM      9  H   UNL     1       0.662   0.625   2.555  0.00  0.00    +0.157 HD
ENDROOT
BRANCH   1  13
ATOM     10  C   UNL     1      -0.295   1.294   9.918  0.00  0.00    +0.121 A 
ATOM     11  C   UNL     1       0.484   0.757   8.903  0.00  0.00    +0.046 A 
ATOM     12  C   UNL     1       0.152   0.982   7.583  0.00  0.00    +0.013 A 
ATOM     13  C   UNL     1      -0.968   1.751   7.270  0.00  0.00    +0.001 A 
ATOM     14  C   UNL     1      -1.745   2.294   8.292  0.00  0.00    +0.013 A 
ATOM     15  C   UNL     1      -1.410   2.060   9.609  0.00  0.00    +0.046 A 
BRANCH  10  16
ATOM     16  O   UNL     1       0.036   1.070  11.217  0.00  0.00    -0.492 OA
BRANCH  16  18
ATOM     17  C   UNL     1      -0.283   1.295  13.602  0.00  0.00    +0.048 C 
ATOM     18  C   UNL     1      -0.809   1.653  12.211  0.00  0.00    +0.225 C 
ENDBRANCH  16  18
ENDBRANCH  10  16
ENDBRANCH   1  13
BRANCH   7  19
ATOM     19  C   UNL     1      -0.013   1.086   0.008  0.00  0.00    +0.173 C 
BRANCH  19  20
ATOM     20  S   UNL     1      -0.888   1.685  -1.458  0.00  0.00    -0.078 S 
BRANCH  20  21
ATOM     21  C   UNL     1       0.122   0.990  -2.724  0.00  0.00    +0.170 A 
ATOM     22  N   UNL     1      -0.198   1.202  -4.033  0.00  0.00    -0.301 N 
ATOM     23  H   UNL     1      -1.084   1.800  -4.293  0.00  0.00    +0.171 HD
ATOM     24  C   UNL     1       0.552   0.690  -5.027  0.00  0.00    +0.261 A 
ATOM     25  O   UNL     1       0.255   0.892  -6.192  0.00  0.00    -0.267 OA
ATOM     26  C   UNL     1       1.700  -0.097  -4.697  0.00  0.00    +0.075 A 
ATOM     27  C   UNL     1       2.646  -0.747  -5.606  0.00  0.00    -0.023 A 
ATOM     28  C   UNL     1       3.657  -1.439  -5.045  0.00  0.00    -0.004 A 
ATOM     29  S   UNL     1       3.415  -1.272  -3.297  0.00  0.00    -0.073 S 
ATOM     30  C   UNL     1       1.952  -0.268  -3.325  0.00  0.00    +0.117 A 
ATOM     31  N   UNL     1       1.174   0.268  -2.392  0.00  0.00    -0.216 NA
ATOM     32  C   UNL     1       4.747  -2.187  -5.750  0.00  0.00    +0.043 C 
ATOM     33  C   UNL     1       4.341  -2.363  -7.221  0.00  0.00    +0.005 C 
ATOM     34  C   UNL     1       3.854  -1.015  -7.761  0.00  0.00    +0.005 C 
ATOM     35  C   UNL     1       2.511  -0.655  -7.124  0.00  0.00    +0.037 C 
ENDBRANCH  20  21
ENDBRANCH  19  20
ENDBRANCH   7  19
TORSDOF 6
