REMARK  Name = ZINC09051564
REMARK  6 active torsions:
REMARK  status: ('A' for Active; 'I' for Inactive)
REMARK    1  A    between atoms: C_3  and  C_6
REMARK    2  A    between atoms: C_6  and  N_7
REMARK    3  A    between atoms: C_10  and  C_15
REMARK    4  A    between atoms: C_15  and  C_16
REMARK    5  A    between atoms: C_16  and  C_17
REMARK    6  A    between atoms: N_19  and  C_20
REMARK                            x       y       z     vdW  Elec       q    Type
REMARK                         _______ _______ _______ _____ _____    ______ ____
ROOT
ATOM      1  N   UNL     1       4.101   0.607   1.347  0.00  0.00    -0.217 N 
ATOM      2  C   UNL     1       4.381   1.712   2.065  0.00  0.00    +0.244 C 
ATOM      3  O   UNL     1       4.269   2.865   1.708  0.00  0.00    -0.273 OA
ATOM      4  C   UNL     1       4.863   1.213   3.413  0.00  0.00    +0.161 C 
ATOM      5  N   UNL     1       4.792  -0.253   3.285  0.00  0.00    -0.288 N 
ATOM      6  C   UNL     1       4.332  -0.509   2.048  0.00  0.00    +0.310 C 
ATOM      7  O   UNL     1       4.150  -1.630   1.613  0.00  0.00    -0.252 OA
ATOM      8  H   UNL     1       5.029  -0.906   3.963  0.00  0.00    +0.151 HD
ENDROOT
BRANCH   1   9
ATOM      9  C   UNL     1       3.599   0.625  -0.029  0.00  0.00    +0.192 C 
BRANCH   9  12
ATOM     10  C   UNL     1      -0.016   1.341   0.009  0.00  0.00    +0.041 A 
ATOM     11  C   UNL     1       1.331   1.769  -0.001  0.00  0.00    +0.046 A 
ATOM     12  C   UNL     1       2.092   0.660  -0.014  0.00  0.00    +0.123 A 
ATOM     13  O   UNL     1       1.282  -0.411  -0.012  0.00  0.00    -0.466 OA
ATOM     14  C   UNL     1       0.002  -0.004   0.002  0.00  0.00    +0.195 A 
ENDBRANCH   9  12
ENDBRANCH   1   9
BRANCH   4  15
ATOM     15  C   UNL     1       6.302   1.665   3.671  0.00  0.00    +0.041 C 
BRANCH  15  16
ATOM     16  C   UNL     1       6.720   1.256   5.085  0.00  0.00    +0.098 C 
BRANCH  16  17
ATOM     17  C   UNL     1       8.137   1.701   5.338  0.00  0.00    +0.213 C 
ATOM     18  O   UNL     1       8.752   2.288   4.474  0.00  0.00    -0.276 OA
ATOM     19  N   UNL     1       8.720   1.448   6.527  0.00  0.00    -0.312 N 
ATOM     20  H   UNL     1       8.228   0.978   7.218  0.00  0.00    +0.149 HD
BRANCH  19  21
ATOM     21  C   UNL     1      10.098   1.881   6.773  0.00  0.00    +0.073 C 
ATOM     22  C   UNL     1      10.098   3.335   7.249  0.00  0.00    +0.022 C 
ATOM     23  C   UNL     1      11.453   3.665   7.879  0.00  0.00    +0.002 C 
ATOM     24  C   UNL     1      12.495   3.857   6.776  0.00  0.00    +0.000 C 
ATOM     25  C   UNL     1      12.906   2.492   6.219  0.00  0.00    +0.000 C 
ATOM     26  C   UNL     1      13.123   1.514   7.375  0.00  0.00    +0.000 C 
ATOM     27  C   UNL     1      12.050   0.424   7.330  0.00  0.00    +0.002 C 
ATOM     28  C   UNL     1      10.727   0.992   7.848  0.00  0.00    +0.022 C 
ENDBRANCH  19  21
ENDBRANCH  16  17
ENDBRANCH  15  16
ENDBRANCH   4  15
TORSDOF 6
