REMARK  Name = ZINC39678380
REMARK  5 active torsions:
REMARK  status: ('A' for Active; 'I' for Inactive)
REMARK    1  A    between atoms: C_9  and  C_11
REMARK    2  A    between atoms: C_15  and  C_24
REMARK    3  A    between atoms: N_26  and  C_27
REMARK    4  A    between atoms: C_27  and  C_28
REMARK    5  A    between atoms: C_33  and  N_34
REMARK                            x       y       z     vdW  Elec       q    Type
REMARK                         _______ _______ _______ _____ _____    ______ ____
ROOT
ATOM      1  C   UNL     1       5.402  -2.862  -0.169  0.00  0.00    +0.265 C 
ATOM      2  O   UNL     1       5.562  -4.038   0.089  0.00  0.00    -0.268 OA
ATOM      3  N   UNL     1       6.457  -2.023  -0.170  0.00  0.00    -0.295 N 
ATOM      4  C   UNL     1       6.447  -0.551  -0.343  0.00  0.00    +0.121 C 
ATOM      5  C   UNL     1       7.510  -0.034   0.652  0.00  0.00    +0.100 C 
ATOM      6  C   UNL     1       8.455  -1.227   0.872  0.00  0.00    -0.004 C 
ATOM      7  C   UNL     1       7.889  -2.363   0.008  0.00  0.00    +0.115 C 
ATOM      8  C   UNL     1       8.453  -1.639   2.341  0.00  0.00    -0.010 C 
ATOM      9  C   UNL     1       9.442  -2.790   2.545  0.00  0.00    -0.082 C 
ATOM     10  N   UNL     1      10.786  -2.361   2.139  0.00  0.00    +0.379 N 
ATOM     11  C   UNL     1      10.801  -2.055   0.703  0.00  0.00    -0.082 C 
ATOM     12  C   UNL     1       9.869  -0.873   0.421  0.00  0.00    -0.010 C 
ATOM     13  H   UNL     1      11.046  -1.536   2.660  0.00  0.00    -0.086 HD
ATOM     14  H   UNL     1      11.446  -3.099   2.331  0.00  0.00    -0.086 HD
ENDROOT
BRANCH   1  23
ATOM     15  C   UNL     1       0.195   0.426  -1.771  0.00  0.00    +0.001 A 
ATOM     16  C   UNL     1       1.330   1.228  -1.882  0.00  0.00    +0.002 A 
ATOM     17  C   UNL     1       2.566   0.741  -1.591  0.00  0.00    +0.028 A 
ATOM     18  C   UNL     1       2.708  -0.595  -1.169  0.00  0.00    +0.072 A 
ATOM     19  C   UNL     1       1.550  -1.409  -1.056  0.00  0.00    +0.000 A 
ATOM     20  C   UNL     1       0.291  -0.870  -1.366  0.00  0.00    +0.010 A 
ATOM     21  C   UNL     1       1.690  -2.744  -0.635  0.00  0.00    +0.012 A 
ATOM     22  C   UNL     1       2.943  -3.204  -0.350  0.00  0.00    +0.033 A 
ATOM     23  C   UNL     1       4.047  -2.349  -0.482  0.00  0.00    +0.126 A 
ATOM     24  N   UNL     1       3.906  -1.099  -0.877  0.00  0.00    -0.242 NA
ENDBRANCH   1  23
BRANCH   5  25
ATOM     25  C   UNL     1       8.261   1.130   0.059  0.00  0.00    +0.218 C 
ATOM     26  O   UNL     1       8.594   1.106  -1.107  0.00  0.00    -0.275 OA
ATOM     27  N   UNL     1       8.563   2.198   0.824  0.00  0.00    -0.311 N 
ATOM     28  H   UNL     1       8.296   2.217   1.756  0.00  0.00    +0.149 HD
BRANCH  27  29
ATOM     29  C   UNL     1       9.293   3.330   0.247  0.00  0.00    +0.141 C 
BRANCH  29  30
ATOM     30  C   UNL     1       9.501   4.384   1.304  0.00  0.00    -0.009 A 
ATOM     31  C   UNL     1       8.673   5.488   1.352  0.00  0.00    +0.007 A 
ATOM     32  C   UNL     1       8.864   6.456   2.321  0.00  0.00    +0.000 A 
ATOM     33  C   UNL     1       9.884   6.322   3.245  0.00  0.00    +0.002 A 
ATOM     34  C   UNL     1      10.716   5.220   3.203  0.00  0.00    +0.023 A 
ATOM     35  C   UNL     1      10.524   4.243   2.234  0.00  0.00    +0.034 A 
BRANCH  35  36
ATOM     36  N   UNL     1      11.360   3.125   2.192  0.00  0.00    -0.330 N 
ATOM     37  C   UNL     1      12.598   3.147   1.401  0.00  0.00    +0.105 C 
ATOM     38  C   UNL     1      13.768   2.748   2.307  0.00  0.00    +0.019 C 
ATOM     39  C   UNL     1      13.463   1.399   2.962  0.00  0.00    +0.003 C 
ATOM     40  C   UNL     1      12.205   1.521   3.825  0.00  0.00    +0.019 C 
ATOM     41  C   UNL     1      11.021   1.908   2.941  0.00  0.00    +0.105 C 
ENDBRANCH  35  36
ENDBRANCH  29  30
ENDBRANCH  27  29
ENDBRANCH   5  25
TORSDOF 5
