REMARK  Name = ZINC56372564
REMARK  4 active torsions:
REMARK  status: ('A' for Active; 'I' for Inactive)
REMARK    1  A    between atoms: C_1  and  C_2
REMARK    2  A    between atoms: C_17  and  C_19
REMARK    3  A    between atoms: C_19  and  N_20
REMARK    4  A    between atoms: C_21  and  C_23
REMARK                            x       y       z     vdW  Elec       q    Type
REMARK                         _______ _______ _______ _____ _____    ______ ____
ROOT
ATOM      1  C   UNL     1      -0.046   1.619   0.079  0.00  0.00    +0.033 C 
ATOM      2  C   UNL     1       0.168   0.113  -0.086  0.00  0.00    +0.104 C 
ATOM      3  C   UNL     1       0.879  -0.149  -1.389  0.00  0.00    -0.020 A 
ATOM      4  C   UNL     1       0.376   0.454  -2.534  0.00  0.00    +0.055 A 
ATOM      5  C   UNL     1       0.974   0.240  -3.764  0.00  0.00    +0.162 A 
ATOM      6  C   UNL     1       2.087  -0.587  -3.850  0.00  0.00    +0.162 A 
ATOM      7  C   UNL     1       2.588  -1.181  -2.706  0.00  0.00    +0.054 A 
ATOM      8  C   UNL     1       1.992  -0.957  -1.471  0.00  0.00    -0.031 A 
ATOM      9  C   UNL     1       2.616  -1.604  -0.265  0.00  0.00    +0.012 C 
ATOM     10  C   UNL     1       3.104  -3.017  -0.629  0.00  0.00    +0.013 C 
ATOM     11  C   UNL     1       4.631  -3.024  -0.415  0.00  0.00    +0.001 C 
ATOM     12  C   UNL     1       4.878  -1.884   0.603  0.00  0.00    +0.001 C 
ATOM     13  C   UNL     1       3.864  -0.801   0.156  0.00  0.00    +0.013 C 
ATOM     14  C   UNL     1       1.641  -1.679   0.903  0.00  0.00    +0.120 C 
ATOM     15  N   UNL     1       0.962  -0.388   1.033  0.00  0.00    -0.293 N 
ATOM     16  C   UNL     1       1.066   0.326   2.172  0.00  0.00    +0.233 C 
ATOM     17  O   UNL     1       0.420   1.343   2.311  0.00  0.00    -0.274 OA
ATOM     18  O   UNL     1       2.692  -0.816  -5.048  0.00  0.00    -0.485 OA
ATOM     19  C   UNL     1       1.938  -0.496  -6.222  0.00  0.00    +0.270 C 
ATOM     20  C   UNL     1       1.310   0.891  -6.026  0.00  0.00    +0.270 C 
ATOM     21  O   UNL     1       0.462   0.839  -4.873  0.00  0.00    -0.485 OA
ENDROOT
BRANCH  16  22
ATOM     22  C   UNL     1       1.985  -0.140   3.272  0.00  0.00    +0.200 C 
BRANCH  22  23
ATOM     23  N   UNL     1       2.015   0.863   4.340  0.00  0.00    -0.306 N 
ATOM     24  C   UNL     1       2.776   0.659   5.434  0.00  0.00    +0.217 C 
ATOM     25  O   UNL     1       3.435  -0.354   5.534  0.00  0.00    -0.276 OA
ATOM     26  H   UNL     1       1.488   1.673   4.260  0.00  0.00    +0.149 HD
BRANCH  24  27
ATOM     27  C   UNL     1       2.806   1.690   6.533  0.00  0.00    +0.075 C 
ATOM     28  C   UNL     1       4.108   2.467   6.736  0.00  0.00    +0.013 C 
ATOM     29  C   UNL     1       3.689   1.400   7.749  0.00  0.00    +0.013 C 
ENDBRANCH  24  27
ENDBRANCH  22  23
ENDBRANCH  16  22
TORSDOF 3
