REMARK  Name = ZINC13581910
REMARK  7 active torsions:
REMARK  status: ('A' for Active; 'I' for Inactive)
REMARK    1  A    between atoms: C_4  and  C_7
REMARK    2  A    between atoms: N_9  and  C_10
REMARK    3  A    between atoms: C_10  and  C_24
REMARK    4  A    between atoms: C_11  and  C_12
REMARK    5  A    between atoms: C_15  and  C_17
REMARK    6  A    between atoms: N_26  and  C_27
REMARK    7  A    between atoms: C_27  and  C_28
REMARK                            x       y       z     vdW  Elec       q    Type
REMARK                         _______ _______ _______ _____ _____    ______ ____
ROOT
ATOM      1  C   UNL     1      -2.542   4.618  -0.036  0.00  0.00    +0.100 C 
ATOM      2  C   UNL     1      -1.364   5.278  -0.206  0.00  0.00    +0.074 C 
ENDROOT
BRANCH   2   3
ATOM      3  C   UNL     1      -0.139   4.594  -0.028  0.00  0.00    +0.131 A 
ATOM      4  C   UNL     1       1.121   5.160  -0.081  0.00  0.00    +0.050 A 
ATOM      5  C   UNL     1       2.036   4.127   0.148  0.00  0.00    +0.050 A 
ATOM      6  C   UNL     1       1.313   2.982   0.330  0.00  0.00    +0.136 A 
ATOM      7  O   UNL     1       0.005   3.275   0.216  0.00  0.00    -0.455 OA
BRANCH   6   8
ATOM      8  C   UNL     1       1.875   1.645   0.600  0.00  0.00    +0.017 A 
ATOM      9  C   UNL     1       3.258   1.449   0.586  0.00  0.00    +0.012 A 
ATOM     10  C   UNL     1       3.777   0.197   0.844  0.00  0.00    +0.016 A 
ATOM     11  C   UNL     1       2.929  -0.866   1.107  0.00  0.00    +0.018 A 
ATOM     12  C   UNL     1       1.557  -0.680   1.117  0.00  0.00    +0.016 A 
ATOM     13  C   UNL     1       1.026   0.568   0.865  0.00  0.00    +0.012 A 
ATOM     14 BR   UNL     1       3.649  -2.580   1.451  0.00  0.00    -0.050 Br
ENDBRANCH   6   8
ENDBRANCH   2   3
BRANCH   1  17
ATOM     15  C   UNL     1      -3.174   3.010   1.600  0.00  0.00    +0.248 C 
ATOM     16  O   UNL     1      -3.821   3.865   2.174  0.00  0.00    -0.270 OA
ATOM     17  N   UNL     1      -2.545   3.304   0.445  0.00  0.00    -0.277 N 
ATOM     18  H   UNL     1      -2.095   2.604  -0.054  0.00  0.00    +0.155 HD
BRANCH  15  22
ATOM     19  C   UNL     1      -2.892  -0.898   3.238  0.00  0.00    +0.000 A 
ATOM     20  C   UNL     1      -3.519   0.105   3.955  0.00  0.00    +0.001 A 
ATOM     21  C   UNL     1      -3.614   1.377   3.429  0.00  0.00    +0.013 A 
ATOM     22  C   UNL     1      -3.076   1.650   2.170  0.00  0.00    +0.037 A 
ATOM     23  C   UNL     1      -2.450   0.632   1.450  0.00  0.00    +0.013 A 
ATOM     24  C   UNL     1      -2.357  -0.634   1.990  0.00  0.00    +0.001 A 
ENDBRANCH  15  22
ENDBRANCH   1  17
BRANCH   1  25
ATOM     25  C   UNL     1      -3.807   5.283  -0.357  0.00  0.00    +0.259 C 
ATOM     26  O   UNL     1      -3.812   6.454  -0.690  0.00  0.00    -0.269 OA
ATOM     27  N   UNL     1      -4.966   4.599  -0.284  0.00  0.00    -0.303 N 
ATOM     28  H   UNL     1      -4.972   3.690   0.054  0.00  0.00    +0.149 HD
BRANCH  27  29
ATOM     29  C   UNL     1      -6.217   5.229  -0.714  0.00  0.00    +0.179 C 
BRANCH  29  30
ATOM     30  C   UNL     1      -7.356   4.259  -0.531  0.00  0.00    +0.122 A 
ATOM     31  C   UNL     1      -8.109   4.130   0.576  0.00  0.00    +0.046 A 
ATOM     32  C   UNL     1      -9.053   3.111   0.312  0.00  0.00    +0.041 A 
ATOM     33  C   UNL     1      -8.821   2.679  -0.940  0.00  0.00    +0.195 A 
ATOM     34  O   UNL     1      -7.795   3.382  -1.448  0.00  0.00    -0.466 OA
ENDBRANCH  29  30
ENDBRANCH  27  29
ENDBRANCH   1  25
TORSDOF 7
