REMARK  Name = ZINC38551099
REMARK  7 active torsions:
REMARK  status: ('A' for Active; 'I' for Inactive)
REMARK    1  A    between atoms: C_1  and  C_2
REMARK    2  A    between atoms: C_5  and  C_8
REMARK    3  A    between atoms: C_8  and  C_10
REMARK    4  A    between atoms: C_8  and  N_27
REMARK    5  A    between atoms: C_14  and  N_15
REMARK    6  A    between atoms: C_16  and  C_18
REMARK    7  A    between atoms: C_32  and  C_34
REMARK                            x       y       z     vdW  Elec       q    Type
REMARK                         _______ _______ _______ _____ _____    ______ ____
ROOT
ATOM      1  C   UNL     1       0.105  -4.337   0.014  0.00  0.00    +0.135 C 
ENDROOT
BRANCH   1   2
ATOM      2  N   UNL     1       1.064  -4.732   1.049  0.00  0.00    -0.320 N 
ATOM      3  C   UNL     1       1.715  -5.957   0.962  0.00  0.00    +0.097 A 
ATOM      4  C   UNL     1       1.522  -6.762  -0.156  0.00  0.00    +0.041 A 
ATOM      5  C   UNL     1       2.176  -7.979  -0.229  0.00  0.00    +0.005 A 
ATOM      6  C   UNL     1       3.005  -8.350   0.822  0.00  0.00    +0.021 A 
ATOM      7  C   UNL     1       3.151  -7.501   1.901  0.00  0.00    +0.014 A 
ATOM      8  N   UNL     1       2.518  -6.343   1.941  0.00  0.00    -0.347 N 
ATOM      9  C   UNL     1       4.048  -7.898   3.044  0.00  0.00    +0.063 C 
ATOM     10  H   UNL     1       1.244  -4.138   1.795  0.00  0.00    +0.148 HD
ATOM     11  H   UNL     1       2.641  -5.764   2.709  0.00  0.00    +0.167 HD
ENDBRANCH   1   2
BRANCH   1  12
ATOM     12  C   UNL     1      -1.194  -5.071   0.226  0.00  0.00    +0.009 A 
ATOM     13  C   UNL     1      -1.880  -5.607  -0.864  0.00  0.00    -0.030 A 
ATOM     14  C   UNL     1      -3.045  -6.255  -0.592  0.00  0.00    -0.005 A 
ATOM     15  S   UNL     1      -3.201  -6.130   1.169  0.00  0.00    -0.078 S 
ATOM     16  C   UNL     1      -1.697  -5.217   1.481  0.00  0.00    +0.078 A 
ATOM     17  C   UNL     1      -3.969  -6.914  -1.564  0.00  0.00    +0.043 C 
ATOM     18  C   UNL     1      -3.601  -6.440  -2.978  0.00  0.00    +0.005 C 
ATOM     19  C   UNL     1      -2.084  -6.550  -3.154  0.00  0.00    +0.005 C 
ATOM     20  C   UNL     1      -1.380  -5.493  -2.301  0.00  0.00    +0.036 C 
BRANCH  16  21
ATOM     21  N   UNL     1      -1.175  -4.769   2.696  0.00  0.00    -0.273 N 
ATOM     22  C   UNL     1      -1.867  -4.958   3.837  0.00  0.00    +0.284 C 
ATOM     23  O   UNL     1      -2.902  -5.599   3.822  0.00  0.00    -0.266 OA
ATOM     24  H   UNL     1      -0.315  -4.320   2.719  0.00  0.00    +0.156 HD
BRANCH  22  25
ATOM     25  C   UNL     1      -1.372  -4.393   5.096  0.00  0.00    +0.189 A 
ATOM     26  C   UNL     1      -1.918  -4.588   6.333  0.00  0.00    +0.054 A 
ATOM     27  C   UNL     1      -1.128  -3.866   7.241  0.00  0.00    +0.042 A 
ATOM     28  C   UNL     1      -0.148  -3.268   6.529  0.00  0.00    +0.196 A 
ATOM     29  O   UNL     1      -0.295  -3.592   5.237  0.00  0.00    -0.458 OA
ENDBRANCH  22  25
ENDBRANCH  16  21
ENDBRANCH   1  12
BRANCH   1  34
ATOM     30  C   UNL     1      -0.831   1.357   0.324  0.00  0.00    +0.044 C 
ATOM     31  C   UNL     1      -0.587  -0.128   0.243  0.00  0.00    -0.050 A 
ATOM     32  C   UNL     1      -0.586  -0.762  -0.985  0.00  0.00    +0.004 A 
ATOM     33  C   UNL     1      -0.362  -2.124  -1.060  0.00  0.00    +0.006 A 
ATOM     34  C   UNL     1      -0.139  -2.852   0.095  0.00  0.00    -0.023 A 
ATOM     35  C   UNL     1      -0.139  -2.217   1.323  0.00  0.00    +0.006 A 
ATOM     36  C   UNL     1      -0.358  -0.855   1.396  0.00  0.00    +0.004 A 
ENDBRANCH   1  34
TORSDOF 5
