REMARK  Name = ZINC12919182
REMARK  9 active torsions:
REMARK  status: ('A' for Active; 'I' for Inactive)
REMARK    1  A    between atoms: C_1  and  C_2
REMARK    2  A    between atoms: C_2  and  C_4
REMARK    3  A    between atoms: C_2  and  S_20
REMARK    4  A    between atoms: N_6  and  C_7
REMARK    5  A    between atoms: C_7  and  C_8
REMARK    6  A    between atoms: N_10  and  C_11
REMARK    7  A    between atoms: S_20  and  C_21
REMARK    8  A    between atoms: C_23  and  C_32
REMARK    9  A    between atoms: C_24  and  C_26
REMARK                            x       y       z     vdW  Elec       q    Type
REMARK                         _______ _______ _______ _____ _____    ______ ____
ROOT
ATOM      1  C   UNL     1       1.067  -0.832  -1.452  0.00  0.00    +0.029 C 
ATOM      2  C   UNL     1       0.779  -1.043   0.035  0.00  0.00    +0.138 C 
ENDROOT
BRANCH   2   3
ATOM      3  C   UNL     1      -0.529  -0.386   0.392  0.00  0.00    +0.227 C 
ATOM      4  O   UNL     1      -1.537  -1.054   0.487  0.00  0.00    -0.275 OA
ATOM      5  N   UNL     1      -0.580   0.944   0.605  0.00  0.00    -0.306 N 
ATOM      6  H   UNL     1       0.226   1.478   0.529  0.00  0.00    +0.149 HD
BRANCH   5   7
ATOM      7  C   UNL     1      -1.853   1.584   0.945  0.00  0.00    +0.200 C 
BRANCH   7   8
ATOM      8  C   UNL     1      -1.638   3.064   1.131  0.00  0.00    +0.234 C 
ATOM      9  O   UNL     1      -0.530   3.537   0.992  0.00  0.00    -0.274 OA
ATOM     10  N   UNL     1      -2.676   3.861   1.451  0.00  0.00    -0.282 N 
ATOM     11  H   UNL     1      -3.545   3.473   1.639  0.00  0.00    +0.155 HD
BRANCH  10  12
ATOM     12  C   UNL     1      -2.501   5.250   1.511  0.00  0.00    +0.072 A 
ATOM     13  C   UNL     1      -1.421   5.842   0.871  0.00  0.00    +0.029 A 
ATOM     14  C   UNL     1      -1.251   7.212   0.927  0.00  0.00    +0.043 A 
ATOM     15  C   UNL     1      -2.151   7.995   1.629  0.00  0.00    +0.161 A 
ATOM     16  C   UNL     1      -3.228   7.408   2.274  0.00  0.00    +0.195 A 
ATOM     17  C   UNL     1      -3.405   6.035   2.216  0.00  0.00    +0.182 A 
ATOM     18  F   UNL     1      -4.454   5.461   2.844  0.00  0.00    -0.200 F 
ATOM     19  F   UNL     1      -4.105   8.173   2.960  0.00  0.00    -0.199 F 
ATOM     20  F   UNL     1      -1.980   9.334   1.686  0.00  0.00    -0.202 F 
ENDBRANCH  10  12
ENDBRANCH   7   8
ENDBRANCH   5   7
ENDBRANCH   2   3
BRANCH   2  21
ATOM     21  S   UNL     1       0.679  -2.816   0.385  0.00  0.00    -0.055 S 
BRANCH  21  22
ATOM     22  C   UNL     1       2.338  -3.292   0.033  0.00  0.00    +0.259 A 
ATOM     23  N   UNL     1       3.288  -2.484  -0.371  0.00  0.00    -0.203 NA
ATOM     24  C   UNL     1       4.424  -3.196  -0.536  0.00  0.00    +0.118 A 
ATOM     25  C   UNL     1       4.133  -4.506  -0.220  0.00  0.00    +0.164 A 
ATOM     26  O   UNL     1       2.826  -4.539   0.132  0.00  0.00    -0.430 OA
BRANCH  25  27
ATOM     27  C   UNL     1       5.064  -5.649  -0.258  0.00  0.00    +0.020 A 
ATOM     28  C   UNL     1       5.137  -6.531   0.824  0.00  0.00    +0.011 A 
ATOM     29  C   UNL     1       6.006  -7.600   0.780  0.00  0.00    +0.001 A 
ATOM     30  C   UNL     1       6.813  -7.795  -0.328  0.00  0.00    +0.000 A 
ATOM     31  C   UNL     1       6.750  -6.923  -1.400  0.00  0.00    +0.001 A 
ATOM     32  C   UNL     1       5.881  -5.852  -1.373  0.00  0.00    +0.011 A 
ENDBRANCH  25  27
BRANCH  24  33
ATOM     33  C   UNL     1       5.736  -2.669  -0.980  0.00  0.00    +0.004 A 
ATOM     34  C   UNL     1       6.915  -3.170  -0.427  0.00  0.00    +0.010 A 
ATOM     35  C   UNL     1       8.133  -2.678  -0.847  0.00  0.00    +0.001 A 
ATOM     36  C   UNL     1       8.187  -1.684  -1.808  0.00  0.00    +0.000 A 
ATOM     37  C   UNL     1       7.021  -1.180  -2.356  0.00  0.00    +0.001 A 
ATOM     38  C   UNL     1       5.797  -1.667  -1.947  0.00  0.00    +0.010 A 
ENDBRANCH  24  33
ENDBRANCH  21  22
ENDBRANCH   2  21
TORSDOF 8
