REMARK  Name = ZINC39667621
REMARK  9 active torsions:
REMARK  status: ('A' for Active; 'I' for Inactive)
REMARK    1  A    between atoms: C_1  and  C_2
REMARK    2  A    between atoms: C_2  and  N_3
REMARK    3  A    between atoms: C_4  and  C_10
REMARK    4  A    between atoms: C_6  and  C_8
REMARK    5  A    between atoms: C_14  and  C_23
REMARK    6  A    between atoms: N_25  and  C_26
REMARK    7  A    between atoms: C_26  and  C_27
REMARK    8  A    between atoms: C_31  and  C_34
REMARK    9  A    between atoms: C_32  and  C_33
REMARK                            x       y       z     vdW  Elec       q    Type
REMARK                         _______ _______ _______ _____ _____    ______ ____
ROOT
ATOM      1  C   UNL     1      -1.324  -0.696  -2.502  0.00  0.00    +0.266 C 
ATOM      2  O   UNL     1      -1.883  -1.126  -3.492  0.00  0.00    -0.268 OA
ATOM      3  N   UNL     1      -2.050  -0.292  -1.440  0.00  0.00    -0.295 N 
ATOM      4  C   UNL     1      -1.552   0.165  -0.121  0.00  0.00    +0.121 C 
ATOM      5  C   UNL     1      -2.483   1.338   0.262  0.00  0.00    +0.100 C 
ATOM      6  C   UNL     1      -3.776   1.088  -0.532  0.00  0.00    -0.004 C 
ATOM      7  C   UNL     1      -3.525  -0.200  -1.330  0.00  0.00    +0.115 C 
ATOM      8  C   UNL     1      -4.044   2.248  -1.485  0.00  0.00    -0.010 C 
ATOM      9  C   UNL     1      -5.364   2.003  -2.221  0.00  0.00    -0.082 C 
ATOM     10  N   UNL     1      -6.455   1.883  -1.246  0.00  0.00    +0.379 N 
ATOM     11  C   UNL     1      -6.236   0.709  -0.393  0.00  0.00    -0.082 C 
ATOM     12  C   UNL     1      -4.953   0.899   0.421  0.00  0.00    -0.010 C 
ATOM     13  H   UNL     1      -6.486   2.713  -0.674  0.00  0.00    -0.086 HD
ATOM     14  H   UNL     1      -7.332   1.783  -1.735  0.00  0.00    -0.086 HD
ENDROOT
BRANCH   1  16
ATOM     15  N   UNL     1       1.007  -1.572  -2.006  0.00  0.00    -0.258 N 
ATOM     16  C   UNL     1       0.144  -0.615  -2.463  0.00  0.00    +0.138 A 
ATOM     17  C   UNL     1       0.930   0.446  -2.881  0.00  0.00    +0.071 A 
ATOM     18  C   UNL     1       2.248   0.046  -2.643  0.00  0.00    +0.075 A 
ATOM     19  N   UNL     1       2.216  -1.153  -2.121  0.00  0.00    -0.175 NA
ATOM     20  C   UNL     1       3.486   0.856  -2.930  0.00  0.00    +0.069 C 
ATOM     21 BR   UNL     1       0.345   2.086  -3.619  0.00  0.00    -0.046 Br
BRANCH  15  23
ATOM     22  C   UNL     1       0.326  -2.736   0.034  0.00  0.00    +0.029 C 
ATOM     23  C   UNL     1       0.613  -2.874  -1.463  0.00  0.00    +0.141 C 
ENDBRANCH  15  23
ENDBRANCH   1  16
BRANCH   5  24
ATOM     24  C   UNL     1      -1.864   2.652  -0.141  0.00  0.00    +0.218 C 
ATOM     25  O   UNL     1      -1.185   2.721  -1.143  0.00  0.00    -0.275 OA
ATOM     26  N   UNL     1      -2.064   3.751   0.614  0.00  0.00    -0.311 N 
ATOM     27  H   UNL     1      -2.546   3.681   1.453  0.00  0.00    +0.149 HD
BRANCH  26  28
ATOM     28  C   UNL     1      -1.555   5.049   0.167  0.00  0.00    +0.139 C 
BRANCH  28  29
ATOM     29  C   UNL     1      -1.802   6.081   1.237  0.00  0.00    -0.027 A 
ATOM     30  C   UNL     1      -2.844   6.980   1.103  0.00  0.00    +0.005 A 
ATOM     31  C   UNL     1      -3.071   7.927   2.084  0.00  0.00    +0.001 A 
ATOM     32  C   UNL     1      -2.256   7.974   3.200  0.00  0.00    +0.003 A 
ATOM     33  C   UNL     1      -1.215   7.075   3.335  0.00  0.00    -0.047 A 
ATOM     34  C   UNL     1      -0.991   6.125   2.355  0.00  0.00    -0.043 A 
ATOM     35  C   UNL     1       0.141   5.141   2.504  0.00  0.00    +0.044 C 
ATOM     36  C   UNL     1      -0.327   7.127   4.551  0.00  0.00    +0.044 C 
ENDBRANCH  28  29
ENDBRANCH  26  28
ENDBRANCH   5  24
TORSDOF 5
