REMARK  Name = ZINC14461183
REMARK  7 active torsions:
REMARK  status: ('A' for Active; 'I' for Inactive)
REMARK    1  A    between atoms: C_4  and  O_7
REMARK    2  A    between atoms: O_7  and  C_8
REMARK    3  A    between atoms: C_8  and  C_9
REMARK    4  A    between atoms: C_9  and  O_10
REMARK    5  A    between atoms: O_10  and  C_11
REMARK    6  A    between atoms: C_18  and  C_27
REMARK    7  A    between atoms: C_32  and  O_33
REMARK                            x       y       z     vdW  Elec       q    Type
REMARK                         _______ _______ _______ _____ _____    ______ ____
ROOT
ATOM      1  C   UNL     1       3.525   6.282  -0.313  0.00  0.00    +0.142 A 
ATOM      2  C   UNL     1       4.677   6.343   0.447  0.00  0.00    +0.047 A 
ATOM      3  C   UNL     1       4.642   6.018   1.790  0.00  0.00    +0.004 A 
ATOM      4  C   UNL     1       3.451   5.623   2.368  0.00  0.00    +0.006 A 
ATOM      5  C   UNL     1       2.296   5.549   1.615  0.00  0.00    -0.016 A 
ATOM      6  C   UNL     1       2.310   5.891   0.262  0.00  0.00    +0.074 A 
ATOM      7  N   UNL     1       1.183   5.870  -0.561  0.00  0.00    -0.334 N 
ATOM      8  C   UNL     1      -0.060   5.351   0.032  0.00  0.00    +0.109 C 
ATOM      9  C   UNL     1      -0.119   5.859   1.458  0.00  0.00    +0.029 C 
ATOM     10  C   UNL     1       1.018   5.087   2.197  0.00  0.00    +0.049 C 
ATOM     11  C   UNL     1       0.674   5.272   3.628  0.00  0.00    -0.023 C 
ATOM     12  C   UNL     1      -0.641   5.423   3.731  0.00  0.00    -0.030 C 
ATOM     13  C   UNL     1      -1.280   5.386   2.340  0.00  0.00    +0.033 C 
ATOM     14  H   UNL     1       1.383   5.413  -1.438  0.00  0.00    +0.147 HD
ENDROOT
BRANCH   8  15
ATOM     15  C   UNL     1      -0.043   3.844   0.023  0.00  0.00    +0.015 A 
ATOM     16  C   UNL     1       1.161   3.167   0.008  0.00  0.00    +0.024 A 
ATOM     17  C   UNL     1       1.176   1.783   0.000  0.00  0.00    +0.018 A 
ATOM     18  C   UNL     1      -0.013   1.076   0.008  0.00  0.00    +0.019 A 
ATOM     19  C   UNL     1      -1.218   1.750   0.017  0.00  0.00    +0.047 A 
ATOM     20  C   UNL     1      -1.236   3.137   0.030  0.00  0.00    +0.122 A 
ATOM     21 BR   UNL     1       2.826   0.858  -0.020  0.00  0.00    -0.050 Br
BRANCH  20  22
ATOM     22  O   UNL     1      -2.422   3.802   0.045  0.00  0.00    -0.506 OA
ATOM     23  H   UNL     1      -2.773   3.999  -0.834  0.00  0.00    +0.292 HD
ENDBRANCH  20  22
ENDBRANCH   8  15
BRANCH   1  24
ATOM     24  O   UNL     1       3.572   6.605  -1.633  0.00  0.00    -0.487 OA
BRANCH  24  25
ATOM     25  C   UNL     1       4.841   6.996  -2.161  0.00  0.00    +0.270 C 
BRANCH  25  26
ATOM     26  C   UNL     1       4.697   7.319  -3.649  0.00  0.00    +0.270 C 
BRANCH  26  27
ATOM     27  O   UNL     1       3.852   8.461  -3.809  0.00  0.00    -0.489 OA
BRANCH  27  31
ATOM     28  C   UNL     1       3.145   9.741  -7.667  0.00  0.00    +0.000 A 
ATOM     29  C   UNL     1       2.574  10.412  -6.602  0.00  0.00    +0.004 A 
ATOM     30  C   UNL     1       2.808   9.985  -5.309  0.00  0.00    +0.045 A 
ATOM     31  C   UNL     1       3.619   8.882  -5.080  0.00  0.00    +0.121 A 
ATOM     32  C   UNL     1       4.197   8.215  -6.151  0.00  0.00    +0.045 A 
ATOM     33  C   UNL     1       3.953   8.642  -7.442  0.00  0.00    +0.004 A 
ENDBRANCH  27  31
ENDBRANCH  26  27
ENDBRANCH  25  26
ENDBRANCH  24  25
ENDBRANCH   1  24
TORSDOF 7
