REMARK  Name = ZINC17903439
REMARK  9 active torsions:
REMARK  status: ('A' for Active; 'I' for Inactive)
REMARK    1  A    between atoms: C_1  and  C_2
REMARK    2  A    between atoms: C_3  and  C_18
REMARK    3  A    between atoms: C_7  and  N_8
REMARK    4  A    between atoms: C_9  and  C_11
REMARK    5  A    between atoms: C_12  and  C_13
REMARK    6  A    between atoms: N_20  and  C_21
REMARK    7  A    between atoms: C_26  and  C_27
REMARK    8  A    between atoms: C_27  and  O_29
REMARK    9  A    between atoms: O_29  and  C_30
REMARK                            x       y       z     vdW  Elec       q    Type
REMARK                         _______ _______ _______ _____ _____    ______ ____
ROOT
ATOM      1  C   UNL     1       0.291   1.453   0.162  0.00  0.00    +0.046 C 
ATOM      2  C   UNL     1       0.287  -0.053   0.128  0.00  0.00    -0.017 A 
ATOM      3  C   UNL     1       0.188  -0.726  -1.090  0.00  0.00    +0.042 A 
ATOM      4  C   UNL     1       0.184  -2.122  -1.113  0.00  0.00    +0.013 A 
ATOM      5  C   UNL     1       0.278  -2.832   0.066  0.00  0.00    +0.003 A 
ATOM      6  C   UNL     1       0.376  -2.165   1.273  0.00  0.00    +0.023 A 
ATOM      7  C   UNL     1       0.386  -0.776   1.307  0.00  0.00    +0.037 A 
ENDROOT
BRANCH   7   8
ATOM      8  N   UNL     1       0.492  -0.106   2.530  0.00  0.00    -0.282 N 
ATOM      9  C   UNL     1       0.118  -0.722   3.670  0.00  0.00    +0.241 C 
ATOM     10  O   UNL     1      -0.397  -1.825   3.625  0.00  0.00    -0.270 OA
ATOM     11  H   UNL     1       0.834   0.801   2.559  0.00  0.00    +0.155 HD
BRANCH   9  12
ATOM     12  C   UNL     1       0.324  -0.087   4.917  0.00  0.00    +0.071 C 
ATOM     13  C   UNL     1      -0.052  -0.707   6.064  0.00  0.00    +0.051 C 
BRANCH  13  14
ATOM     14  C   UNL     1       0.154  -0.071   7.312  0.00  0.00    +0.128 A 
ATOM     15  C   UNL     1      -0.172  -0.586   8.550  0.00  0.00    +0.049 A 
ATOM     16  C   UNL     1       0.208   0.378   9.496  0.00  0.00    +0.042 A 
ATOM     17  C   UNL     1       0.739   1.418   8.816  0.00  0.00    +0.195 A 
ATOM     18  O   UNL     1       0.711   1.143   7.504  0.00  0.00    -0.464 OA
ENDBRANCH  13  14
ENDBRANCH   9  12
ENDBRANCH   7   8
BRANCH   3  19
ATOM     19  C   UNL     1       0.087   0.037  -2.352  0.00  0.00    +0.249 C 
ATOM     20  O   UNL     1       0.217   1.246  -2.344  0.00  0.00    -0.270 OA
ATOM     21  N   UNL     1      -0.150  -0.607  -3.512  0.00  0.00    -0.281 N 
ATOM     22  H   UNL     1      -0.331  -1.560  -3.509  0.00  0.00    +0.155 HD
BRANCH  21  23
ATOM     23  C   UNL     1      -0.134   0.094  -4.714  0.00  0.00    +0.048 A 
ATOM     24  C   UNL     1       0.735   1.164  -4.886  0.00  0.00    +0.024 A 
ATOM     25  C   UNL     1       0.749   1.858  -6.079  0.00  0.00    +0.002 A 
ATOM     26  C   UNL     1      -0.100   1.496  -7.112  0.00  0.00    +0.001 A 
ATOM     27  C   UNL     1      -0.969   0.438  -6.960  0.00  0.00    +0.017 A 
ATOM     28  C   UNL     1      -0.992  -0.279  -5.760  0.00  0.00    +0.080 A 
BRANCH  28  29
ATOM     29  C   UNL     1      -1.915  -1.415  -5.593  0.00  0.00    +0.341 C 
ATOM     30  O   UNL     1      -2.009  -1.968  -4.514  0.00  0.00    -0.245 OA
BRANCH  29  31
ATOM     31  O   UNL     1      -2.654  -1.843  -6.635  0.00  0.00    -0.464 OA
ATOM     32  C   UNL     1      -3.527  -2.949  -6.401  0.00  0.00    +0.280 C 
ENDBRANCH  29  31
ENDBRANCH  28  29
ENDBRANCH  21  23
ENDBRANCH   3  19
TORSDOF 7
