REMARK  Name = ZINC39658364
REMARK  7 active torsions:
REMARK  status: ('A' for Active; 'I' for Inactive)
REMARK    1  A    between atoms: C_4  and  C_7
REMARK    2  A    between atoms: C_7  and  S_8
REMARK    3  A    between atoms: S_8  and  C_9
REMARK    4  A    between atoms: C_9  and  C_10
REMARK    5  A    between atoms: C_10  and  N_11
REMARK    6  A    between atoms: C_12  and  C_14
REMARK    7  A    between atoms: C_25  and  C_27
REMARK                            x       y       z     vdW  Elec       q    Type
REMARK                         _______ _______ _______ _____ _____    ______ ____
ROOT
ATOM      1  C   UNL     1      10.175  -4.343   3.315  0.00  0.00    +0.100 C 
ATOM      2  C   UNL     1      10.964  -3.235   2.581  0.00  0.00    +0.121 C 
ATOM      3  N   UNL     1      11.705  -2.531   3.654  0.00  0.00    -0.296 N 
ATOM      4  C   UNL     1      12.147  -3.611   4.568  0.00  0.00    +0.115 C 
ATOM      5  C   UNL     1      10.956  -4.589   4.616  0.00  0.00    -0.004 C 
ATOM      6  C   UNL     1      11.457  -6.029   4.667  0.00  0.00    -0.010 C 
ATOM      7  C   UNL     1      12.180  -6.267   5.995  0.00  0.00    -0.082 C 
ATOM      8  N   UNL     1      11.259  -6.009   7.109  0.00  0.00    +0.379 N 
ATOM      9  C   UNL     1      10.856  -4.597   7.107  0.00  0.00    -0.082 C 
ATOM     10  C   UNL     1      10.076  -4.289   5.826  0.00  0.00    -0.010 C 
ATOM     11  C   UNL     1      11.928  -1.207   3.773  0.00  0.00    +0.247 C 
ATOM     12  O   UNL     1      11.393  -0.430   3.006  0.00  0.00    -0.270 OA
ATOM     13  H   UNL     1      10.442  -6.591   7.010  0.00  0.00    -0.086 HD
ATOM     14  H   UNL     1      11.719  -6.224   7.981  0.00  0.00    -0.086 HD
ENDROOT
BRANCH  11  15
ATOM     15  C   UNL     1      12.822  -0.700   4.834  0.00  0.00    +0.037 A 
ATOM     16  C   UNL     1      13.776  -1.556   5.411  0.00  0.00    +0.013 A 
ATOM     17  C   UNL     1      14.608  -1.114   6.388  0.00  0.00    +0.009 A 
ATOM     18  C   UNL     1      14.523   0.217   6.836  0.00  0.00    -0.018 A 
ATOM     19  C   UNL     1      15.374   0.698   7.845  0.00  0.00    +0.008 A 
ATOM     20  C   UNL     1      15.268   1.991   8.258  0.00  0.00    +0.001 A 
ATOM     21  C   UNL     1      14.326   2.849   7.695  0.00  0.00    +0.001 A 
ATOM     22  C   UNL     1      13.485   2.420   6.715  0.00  0.00    +0.008 A 
ATOM     23  C   UNL     1      13.565   1.091   6.262  0.00  0.00    -0.017 A 
ATOM     24  C   UNL     1      12.717   0.618   5.250  0.00  0.00    +0.021 A 
ENDBRANCH  11  15
BRANCH   1  26
ATOM     25  N   UNL     1       7.788  -4.772   3.801  0.00  0.00    -0.314 N 
ATOM     26  C   UNL     1       8.776  -3.873   3.623  0.00  0.00    +0.218 C 
ATOM     27  O   UNL     1       8.541  -2.687   3.712  0.00  0.00    -0.275 OA
ATOM     28  H   UNL     1       7.976  -5.721   3.730  0.00  0.00    +0.149 HD
BRANCH  25  29
ATOM     29  C   UNL     1       6.428  -4.315   4.101  0.00  0.00    +0.115 C 
BRANCH  29  30
ATOM     30  C   UNL     1       5.506  -5.527   4.254  0.00  0.00    +0.088 C 
BRANCH  30  31
ATOM     31  S   UNL     1       3.823  -4.962   4.626  0.00  0.00    -0.155 S 
BRANCH  31  32
ATOM     32  C   UNL     1       2.868  -6.497   4.775  0.00  0.00    +0.104 C 
BRANCH  32  36
ATOM     33  C   UNL     1      -1.205  -5.561   5.660  0.00  0.00    +0.000 A 
ATOM     34  C   UNL     1      -0.792  -5.673   4.346  0.00  0.00    +0.000 A 
ATOM     35  C   UNL     1       0.526  -5.975   4.059  0.00  0.00    +0.004 A 
ATOM     36  C   UNL     1       1.431  -6.166   5.087  0.00  0.00    -0.038 A 
ATOM     37  C   UNL     1       1.017  -6.053   6.402  0.00  0.00    +0.004 A 
ATOM     38  C   UNL     1      -0.301  -5.752   6.688  0.00  0.00    +0.000 A 
ENDBRANCH  32  36
ENDBRANCH  31  32
ENDBRANCH  30  31
ENDBRANCH  29  30
ENDBRANCH  25  29
ENDBRANCH   1  26
TORSDOF 7
