REMARK  Name = ZINC59477808
REMARK  7 active torsions:
REMARK  status: ('A' for Active; 'I' for Inactive)
REMARK    1  A    between atoms: C_1  and  O_2
REMARK    2  A    between atoms: O_2  and  C_3
REMARK    3  A    between atoms: C_5  and  N_31
REMARK    4  A    between atoms: C_8  and  C_9
REMARK    5  A    between atoms: C_10  and  C_11
REMARK    6  A    between atoms: N_13  and  C_14
REMARK    7  A    between atoms: C_21  and  C_23
REMARK                            x       y       z     vdW  Elec       q    Type
REMARK                         _______ _______ _______ _____ _____    ______ ____
ROOT
ATOM      1  C   UNL     1       1.151  -4.967  -0.038  0.00  0.00    +0.241 C 
ATOM      2  O   UNL     1       2.232  -4.406  -0.055  0.00  0.00    -0.270 OA
ATOM      3  N   UNL     1       1.091  -6.313  -0.042  0.00  0.00    -0.282 N 
ATOM      4  H   UNL     1       0.234  -6.760   0.038  0.00  0.00    +0.155 HD
ENDROOT
BRANCH   3   5
ATOM      5  C   UNL     1       2.264  -7.067  -0.163  0.00  0.00    +0.036 A 
ATOM      6  C   UNL     1       3.442  -6.615   0.428  0.00  0.00    +0.027 A 
ATOM      7  C   UNL     1       4.605  -7.348   0.316  0.00  0.00    +0.050 A 
ATOM      8  C   UNL     1       4.606  -8.543  -0.388  0.00  0.00    +0.156 A 
ATOM      9  C   UNL     1       3.423  -9.005  -0.986  0.00  0.00    +0.112 A 
ATOM     10  C   UNL     1       2.248  -8.259  -0.864  0.00  0.00    +0.055 A 
ATOM     11  N   UNL     1       3.727 -10.180  -1.595  0.00  0.00    -0.209 NA
ATOM     12  C   UNL     1       4.995 -10.440  -1.399  0.00  0.00    +0.228 A 
ATOM     13  O   UNL     1       5.559  -9.461  -0.667  0.00  0.00    -0.435 OA
BRANCH  12  14
ATOM     14  C   UNL     1       5.703 -11.634  -1.906  0.00  0.00    +0.038 A 
ATOM     15  C   UNL     1       5.017 -12.586  -2.663  0.00  0.00    +0.015 A 
ATOM     16  C   UNL     1       5.683 -13.698  -3.134  0.00  0.00    +0.022 A 
ATOM     17  C   UNL     1       7.029 -13.872  -2.859  0.00  0.00    +0.059 A 
ATOM     18  C   UNL     1       7.715 -12.930  -2.109  0.00  0.00    +0.060 A 
ATOM     19  C   UNL     1       7.060 -11.810  -1.636  0.00  0.00    +0.034 A 
ATOM     20 CL   UNL     1       9.402 -13.156  -1.768  0.00  0.00    -0.082 Cl
ATOM     21 CL   UNL     1       7.859 -15.275  -3.455  0.00  0.00    -0.082 Cl
ENDBRANCH  12  14
ENDBRANCH   3   5
BRANCH   1  23
ATOM     22  C   UNL     1      -0.019  -2.831  -0.009  0.00  0.00    +0.016 C 
ATOM     23  C   UNL     1      -0.080  -4.180  -0.013  0.00  0.00    +0.068 C 
BRANCH  22  29
ATOM     24  C   UNL     1      -1.199  -0.637   0.021  0.00  0.00    +0.129 A 
ATOM     25  C   UNL     1      -2.374   0.099   0.038  0.00  0.00    +0.079 A 
ATOM     26  C   UNL     1      -3.595  -0.546   0.058  0.00  0.00    +0.130 A 
ATOM     27  C   UNL     1      -3.658  -1.931   0.059  0.00  0.00    +0.033 A 
ATOM     28  C   UNL     1      -2.502  -2.679   0.042  0.00  0.00    +0.014 A 
ATOM     29  C   UNL     1      -1.257  -2.039   0.016  0.00  0.00    +0.017 A 
BRANCH  26  30
ATOM     30  N   UNL     1      -4.845   0.246   0.077  0.00  0.00    +0.057 N 
ATOM     31  O   UNL     1      -4.795   1.454   0.076  0.00  0.00    -0.126 OA
ATOM     32  O   UNL     1      -5.916  -0.314   0.094  0.00  0.00    -0.126 OA
ENDBRANCH  26  30
BRANCH  24  34
ATOM     33  C   UNL     1      -0.018   1.425   0.008  0.00  0.00    +0.277 C 
ATOM     34  O   UNL     1       0.001  -0.004   0.002  0.00  0.00    -0.494 OA
ENDBRANCH  24  34
ENDBRANCH  22  29
ENDBRANCH   1  23
TORSDOF 6
