REMARK  Name = ZINC35163835
REMARK  9 active torsions:
REMARK  status: ('A' for Active; 'I' for Inactive)
REMARK    1  A    between atoms: C_3  and  N_26
REMARK    2  A    between atoms: C_6  and  C_7
REMARK    3  A    between atoms: C_11  and  N_16
REMARK    4  A    between atoms: C_17  and  C_19
REMARK    5  A    between atoms: C_19  and  S_20
REMARK    6  A    between atoms: S_20  and  C_21
REMARK    7  A    between atoms: C_27  and  C_29
REMARK    8  A    between atoms: C_29  and  S_30
REMARK    9  A    between atoms: S_30  and  C_31
REMARK                            x       y       z     vdW  Elec       q    Type
REMARK                         _______ _______ _______ _____ _____    ______ ____
ROOT
ATOM      1  C   UNL     1      -1.211  -0.796   0.175  0.00  0.00    +0.228 A 
ATOM      2  N   UNL     1      -1.331  -2.085   0.370  0.00  0.00    -0.209 NA
ATOM      3  C   UNL     1      -2.640  -2.425   0.249  0.00  0.00    +0.112 A 
ATOM      4  C   UNL     1      -3.335  -3.632   0.352  0.00  0.00    +0.055 A 
ATOM      5  C   UNL     1      -4.706  -3.651   0.171  0.00  0.00    +0.036 A 
ATOM      6  C   UNL     1      -5.392  -2.473  -0.114  0.00  0.00    +0.027 A 
ATOM      7  C   UNL     1      -4.714  -1.277  -0.218  0.00  0.00    +0.050 A 
ATOM      8  C   UNL     1      -3.339  -1.242  -0.038  0.00  0.00    +0.156 A 
ATOM      9  O   UNL     1      -2.418  -0.252  -0.070  0.00  0.00    -0.435 OA
ENDROOT
BRANCH   1  15
ATOM     10  C   UNL     1       0.070   1.333   0.007  0.00  0.00    +0.015 A 
ATOM     11  C   UNL     1       1.258   2.029   0.054  0.00  0.00    +0.024 A 
ATOM     12  C   UNL     1       2.447   1.359   0.318  0.00  0.00    +0.033 A 
ATOM     13  C   UNL     1       2.442  -0.015   0.535  0.00  0.00    +0.024 A 
ATOM     14  C   UNL     1       1.258  -0.717   0.489  0.00  0.00    +0.015 A 
ATOM     15  C   UNL     1       0.061  -0.047   0.225  0.00  0.00    +0.037 A 
BRANCH  12  16
ATOM     16  N   UNL     1       3.650   2.067   0.365  0.00  0.00    -0.285 N 
ATOM     17  C   UNL     1       3.678   3.314   0.876  0.00  0.00    +0.227 C 
ATOM     18  O   UNL     1       2.646   3.853   1.217  0.00  0.00    -0.275 OA
ATOM     19  H   UNL     1       4.465   1.662   0.031  0.00  0.00    +0.155 HD
BRANCH  17  20
ATOM     20  C   UNL     1       4.991   4.039   1.024  0.00  0.00    +0.172 C 
BRANCH  20  21
ATOM     21  S   UNL     1       4.699   5.682   1.735  0.00  0.00    -0.093 S 
BRANCH  21  22
ATOM     22  C   UNL     1       6.307   6.392   1.843  0.00  0.00    +0.139 A 
ATOM     23  C   UNL     1       6.630   7.662   2.335  0.00  0.00    +0.170 A 
ATOM     24  N   UNL     1       7.927   7.817   2.248  0.00  0.00    -0.162 NA
ATOM     25  N   UNL     1       8.459   6.760   1.744  0.00  0.00    -0.196 N 
ATOM     26  N   UNL     1       7.444   5.829   1.481  0.00  0.00    -0.149 NA
ATOM     27  H   UNL     1       9.405   6.627   1.577  0.00  0.00    +0.213 HD
ENDBRANCH  21  22
ENDBRANCH  20  21
ENDBRANCH  17  20
ENDBRANCH  12  16
ENDBRANCH   1  15
BRANCH   5  28
ATOM     28  N   UNL     1      -5.407  -4.859   0.273  0.00  0.00    -0.285 N 
ATOM     29  C   UNL     1      -4.994  -5.807   1.138  0.00  0.00    +0.227 C 
ATOM     30  O   UNL     1      -4.073  -5.578   1.894  0.00  0.00    -0.275 OA
ATOM     31  H   UNL     1      -6.189  -5.014  -0.278  0.00  0.00    +0.155 HD
BRANCH  29  32
ATOM     32  C   UNL     1      -5.675  -7.150   1.166  0.00  0.00    +0.172 C 
BRANCH  32  33
ATOM     33  S   UNL     1      -4.897  -8.197   2.427  0.00  0.00    -0.093 S 
BRANCH  33  34
ATOM     34  C   UNL     1      -5.793  -9.711   2.337  0.00  0.00    +0.139 A 
ATOM     35  C   UNL     1      -5.592 -10.823   3.092  0.00  0.00    +0.141 A 
ATOM     36  N   UNL     1      -6.514 -11.734   2.672  0.00  0.00    -0.264 N 
ATOM     37  N   UNL     1      -7.212 -11.195   1.733  0.00  0.00    -0.067 NA
ATOM     38  N   UNL     1      -6.814  -9.992   1.513  0.00  0.00    -0.123 NA
ATOM     39  H   UNL     1      -6.626 -12.633   3.019  0.00  0.00    +0.190 HD
ENDBRANCH  33  34
ENDBRANCH  32  33
ENDBRANCH  29  32
ENDBRANCH   5  28
TORSDOF 9
