REMARK  Name = ZINC05742709
REMARK  6 active torsions:
REMARK  status: ('A' for Active; 'I' for Inactive)
REMARK    1  A    between atoms: C_1  and  O_2
REMARK    2  A    between atoms: O_2  and  C_3
REMARK    3  A    between atoms: C_3  and  C_5
REMARK    4  A    between atoms: C_9  and  N_10
REMARK    5  A    between atoms: N_13  and  N_14
REMARK    6  A    between atoms: C_15  and  C_16
REMARK                            x       y       z     vdW  Elec       q    Type
REMARK                         _______ _______ _______ _____ _____    ______ ____
ROOT
ATOM      1  N   UNL     1      -0.006   4.016   0.024  0.00  0.00    -0.262 N 
ATOM      2  C   UNL     1       1.170   3.358   0.009  0.00  0.00    +0.324 C 
ATOM      3  O   UNL     1       2.214   3.980   0.002  0.00  0.00    -0.251 OA
ATOM      4  N   UNL     1       1.188   2.010   0.002  0.00  0.00    -0.191 N 
ATOM      5  H   UNL     1      -0.840   3.519   0.029  0.00  0.00    +0.157 HD
ATOM      6  H   UNL     1       2.035   1.537  -0.009  0.00  0.00    +0.179 HD
ENDROOT
BRANCH   1  11
ATOM      7  C   UNL     1      -1.125   6.250   0.041  0.00  0.00    +0.091 A 
ATOM      8  C   UNL     1      -0.869   7.680   0.051  0.00  0.00    -0.021 A 
ATOM      9  C   UNL     1       0.435   8.031   0.040  0.00  0.00    -0.004 A 
ATOM     10  S   UNL     1       1.317   6.496   0.024  0.00  0.00    -0.077 S 
ATOM     11  C   UNL     1      -0.025   5.401   0.031  0.00  0.00    +0.088 A 
ATOM     12  C   UNL     1       0.997   9.419   0.040  0.00  0.00    +0.043 C 
ATOM     13  C   UNL     1      -0.130  10.398  -0.322  0.00  0.00    +0.005 C 
ATOM     14  C   UNL     1      -1.362  10.067   0.525  0.00  0.00    +0.005 C 
ATOM     15  C   UNL     1      -1.966   8.738   0.067  0.00  0.00    +0.037 C 
BRANCH   7  16
ATOM     16  C   UNL     1      -2.491   5.723   0.044  0.00  0.00    +0.342 C 
ATOM     17  O   UNL     1      -3.054   5.498   1.099  0.00  0.00    -0.245 OA
BRANCH  16  19
ATOM     18  C   UNL     1      -4.477   4.963  -1.044  0.00  0.00    +0.280 C 
ATOM     19  O   UNL     1      -3.125   5.486  -1.123  0.00  0.00    -0.464 OA
ENDBRANCH  16  19
ENDBRANCH   7  16
ENDBRANCH   1  11
BRANCH   4  20
ATOM     20  N   UNL     1      -0.015   1.293   0.009  0.00  0.00    -0.186 NA
ATOM     21  C   UNL     1       0.002  -0.004   0.002  0.00  0.00    +0.138 C 
BRANCH  21  22
ATOM     22  C   UNL     1      -1.265  -0.759   0.010  0.00  0.00    -0.003 A 
ATOM     23  C   UNL     1      -2.499  -0.095   0.031  0.00  0.00    +0.029 A 
ATOM     24  C   UNL     1      -3.659  -0.841   0.032  0.00  0.00    +0.111 A 
ATOM     25  N   UNL     1      -3.616  -2.159   0.025  0.00  0.00    -0.263 NA
ATOM     26  C   UNL     1      -2.477  -2.825   0.011  0.00  0.00    +0.111 A 
ATOM     27  C   UNL     1      -1.269  -2.160   0.003  0.00  0.00    +0.029 A 
ENDBRANCH  21  22
ENDBRANCH   4  20
TORSDOF 5
