REMARK  Name = ZINC12644280
REMARK  8 active torsions:
REMARK  status: ('A' for Active; 'I' for Inactive)
REMARK    1  A    between atoms: C_1  and  C_2
REMARK    2  A    between atoms: C_6  and  N_9
REMARK    3  A    between atoms: C_7  and  C_8
REMARK    4  A    between atoms: N_12  and  C_15
REMARK    5  A    between atoms: C_15  and  C_17
REMARK    6  A    between atoms: C_15  and  C_18
REMARK    7  A    between atoms: N_24  and  C_25
REMARK    8  A    between atoms: N_24  and  C_26
REMARK                            x       y       z     vdW  Elec       q    Type
REMARK                         _______ _______ _______ _____ _____    ______ ____
ROOT
ATOM      1  N   UNL     1       0.051  -2.796   2.390  0.00  0.00    -0.327 N 
ATOM      2  C   UNL     1      -1.203  -3.201   3.044  0.00  0.00    +0.120 C 
ATOM      3  C   UNL     1      -1.157  -2.746   4.507  0.00  0.00    +0.104 C 
ATOM      4  N   UNL     1       0.066  -3.259   5.138  0.00  0.00    -0.290 NA
ATOM      5  C   UNL     1       1.268  -2.704   4.501  0.00  0.00    +0.104 C 
ATOM      6  C   UNL     1       1.322  -3.162   3.035  0.00  0.00    +0.120 C 
ENDROOT
BRANCH   1  12
ATOM      7  C   UNL     1      -0.018   1.503   0.010  0.00  0.00    +0.044 C 
ATOM      8  C   UNL     1       0.002  -0.004   0.002  0.00  0.00    -0.046 A 
ATOM      9  C   UNL     1       0.006  -0.688  -1.200  0.00  0.00    +0.004 A 
ATOM     10  C   UNL     1       0.024  -2.071  -1.212  0.00  0.00    +0.002 A 
ATOM     11  C   UNL     1       0.039  -2.773  -0.023  0.00  0.00    +0.023 A 
ATOM     12  C   UNL     1       0.036  -2.089   1.186  0.00  0.00    +0.033 A 
ATOM     13  C   UNL     1       0.023  -0.700   1.194  0.00  0.00    -0.027 A 
ATOM     14  C   UNL     1       0.025   0.046   2.504  0.00  0.00    +0.046 C 
ENDBRANCH   1  12
BRANCH   4  15
ATOM     15  C   UNL     1       0.065  -2.992   6.583  0.00  0.00    +0.122 C 
ATOM     16  C   UNL     1      -1.143  -3.675   7.227  0.00  0.00    +0.032 C 
BRANCH  15  17
ATOM     17  C   UNL     1       1.332  -3.531   7.194  0.00  0.00    +0.153 A 
ATOM     18  N   UNL     1       1.765  -4.734   6.860  0.00  0.00    -0.198 NA
ATOM     19  C   UNL     1       2.884  -5.214   7.398  0.00  0.00    +0.217 A 
ATOM     20  N   UNL     1       3.566  -4.481   8.272  0.00  0.00    -0.181 NA
ATOM     21  C   UNL     1       3.128  -3.272   8.605  0.00  0.00    +0.222 A 
ATOM     22  N   UNL     1       2.010  -2.797   8.059  0.00  0.00    -0.198 NA
ATOM     23  N   UNL     1       3.833  -2.508   9.512  0.00  0.00    -0.306 N 
ATOM     24  C   UNL     1       5.065  -3.029  10.108  0.00  0.00    +0.132 C 
ATOM     25  C   UNL     1       3.348  -1.175   9.879  0.00  0.00    +0.132 C 
ATOM     26  N   UNL     1       3.335  -6.470   7.049  0.00  0.00    -0.327 N 
ATOM     27  H   UNL     1       2.837  -7.005   6.411  0.00  0.00    +0.145 HD
ATOM     28  H   UNL     1       4.151  -6.819   7.441  0.00  0.00    +0.145 HD
ENDBRANCH  15  17
ENDBRANCH   4  15
TORSDOF 3
