REMARK  Name = ZINC07260453
REMARK  7 active torsions:
REMARK  status: ('A' for Active; 'I' for Inactive)
REMARK    1  A    between atoms: C_1  and  C_2
REMARK    2  A    between atoms: C_5  and  C_13
REMARK    3  A    between atoms: C_6  and  C_7
REMARK    4  A    between atoms: C_6  and  C_8
REMARK    5  A    between atoms: N_11  and  O_12
REMARK    6  A    between atoms: C_13  and  O_15
REMARK    7  A    between atoms: O_15  and  C_16
REMARK                            x       y       z     vdW  Elec       q    Type
REMARK                         _______ _______ _______ _____ _____    ______ ____
ROOT
ATOM      1  C   UNL     1       0.063   1.523  -0.056  0.00  0.00    +0.018 C 
ATOM      2  C   UNL     1       0.056  -0.007  -0.043  0.00  0.00    +0.016 C 
ATOM      3  C   UNL     1       0.757  -0.701  -1.250  0.00  0.00    +0.014 C 
ATOM      4  C   UNL     1       1.061  -2.133  -0.753  0.00  0.00    +0.020 C 
ATOM      5  C   UNL     1       0.505  -2.166   0.704  0.00  0.00    +0.079 C 
ATOM      6  C   UNL     1       0.798  -0.692   1.159  0.00  0.00    -0.008 C 
ATOM      7  C   UNL     1       0.143  -0.363   2.502  0.00  0.00    +0.013 C 
ATOM      8  C   UNL     1       2.295  -0.378   1.164  0.00  0.00    +0.013 C 
ATOM      9  C   UNL     1      -1.043  -2.099   0.527  0.00  0.00    +0.073 C 
ATOM     10  C   UNL     1      -1.326  -0.668   0.057  0.00  0.00    +0.065 C 
ATOM     11  N   UNL     1      -2.460  -0.141  -0.214  0.00  0.00    -0.096 NA
ENDROOT
BRANCH  11  12
ATOM     12  O   UNL     1      -3.647  -0.899  -0.066  0.00  0.00    -0.409 OA
ATOM     13  H   UNL     1      -4.453  -0.416  -0.294  0.00  0.00    +0.328 HD
ENDBRANCH  11  12
BRANCH   5  14
ATOM     14  C   UNL     1       1.039  -3.260   1.593  0.00  0.00    +0.319 C 
ATOM     15  O   UNL     1       1.642  -2.979   2.601  0.00  0.00    -0.250 OA
BRANCH  14  16
ATOM     16  O   UNL     1       0.845  -4.547   1.263  0.00  0.00    -0.425 OA
BRANCH  16  17
ATOM     17  C   UNL     1       1.431  -5.499   2.037  0.00  0.00    +0.132 A 
ATOM     18  C   UNL     1       0.870  -5.821   3.277  0.00  0.00    +0.047 A 
ATOM     19  C   UNL     1       1.433  -6.769   4.074  0.00  0.00    +0.012 A 
ATOM     20  C   UNL     1       2.594  -7.437   3.648  0.00  0.00    -0.018 A 
ATOM     21  C   UNL     1       3.201  -8.422   4.446  0.00  0.00    +0.008 A 
ATOM     22  C   UNL     1       4.325  -9.049   4.003  0.00  0.00    +0.001 A 
ATOM     23  C   UNL     1       4.886  -8.729   2.768  0.00  0.00    +0.001 A 
ATOM     24  C   UNL     1       4.326  -7.781   1.968  0.00  0.00    +0.008 A 
ATOM     25  C   UNL     1       3.164  -7.112   2.392  0.00  0.00    -0.014 A 
ATOM     26  C   UNL     1       2.555  -6.132   1.591  0.00  0.00    +0.055 A 
ENDBRANCH  16  17
ENDBRANCH  14  16
ENDBRANCH   5  14
TORSDOF 4
