REMARK  Name = ZINC06348424
REMARK  5 active torsions:
REMARK  status: ('A' for Active; 'I' for Inactive)
REMARK    1  A    between atoms: C_1  and  C_2
REMARK    2  A    between atoms: C_3  and  C_20
REMARK    3  A    between atoms: C_4  and  C_10
REMARK    4  A    between atoms: C_14  and  N_16
REMARK    5  A    between atoms: N_22  and  C_23
REMARK                            x       y       z     vdW  Elec       q    Type
REMARK                         _______ _______ _______ _____ _____    ______ ____
ROOT
ATOM      1  C   UNL     1      -2.231   1.463  -0.779  0.00  0.00    +0.061 C 
ATOM      2  C   UNL     1      -1.782   1.482   0.660  0.00  0.00    +0.019 C 
ATOM      3  C   UNL     1      -0.861   2.385   1.056  0.00  0.00    +0.056 C 
ATOM      4  C   UNL     1      -0.441   2.372   2.512  0.00  0.00    +0.142 C 
ATOM      5  N   UNL     1      -1.069   1.361   3.379  0.00  0.00    -0.288 N 
ATOM      6  C   UNL     1      -1.971   0.521   2.834  0.00  0.00    +0.304 C 
ATOM      7  O   UNL     1      -2.495  -0.318   3.542  0.00  0.00    -0.252 OA
ATOM      8  N   UNL     1      -2.310   0.580   1.540  0.00  0.00    -0.273 N 
ATOM      9  H   UNL     1      -0.838   1.300   4.319  0.00  0.00    +0.151 HD
ATOM     10  H   UNL     1      -2.966  -0.053   1.209  0.00  0.00    +0.156 HD
ENDROOT
BRANCH   4  11
ATOM     11  C   UNL     1      -0.733   3.730   3.096  0.00  0.00    -0.020 A 
ATOM     12  C   UNL     1      -2.017   4.048   3.498  0.00  0.00    +0.007 A 
ATOM     13  C   UNL     1      -2.285   5.293   4.035  0.00  0.00    +0.022 A 
ATOM     14  C   UNL     1      -1.268   6.222   4.168  0.00  0.00    +0.071 A 
ATOM     15  C   UNL     1       0.017   5.903   3.766  0.00  0.00    +0.145 A 
ATOM     16  C   UNL     1       0.285   4.655   3.235  0.00  0.00    +0.040 A 
ATOM     17 CL   UNL     1      -1.604   7.787   4.841  0.00  0.00    -0.081 Cl
BRANCH  15  18
ATOM     18  N   UNL     1       1.105   6.896   3.909  0.00  0.00    +0.058 N 
ATOM     19  O   UNL     1       2.236   6.615   3.554  0.00  0.00    -0.126 OA
ATOM     20  O   UNL     1       0.870   7.994   4.382  0.00  0.00    -0.126 OA
ENDBRANCH  15  18
ENDBRANCH   4  11
BRANCH   3  21
ATOM     21  C   UNL     1      -0.309   3.317   0.143  0.00  0.00    +0.248 C 
ATOM     22  O   UNL     1       0.898   3.385  -0.003  0.00  0.00    -0.270 OA
ATOM     23  N   UNL     1      -1.120   4.128  -0.565  0.00  0.00    -0.282 N 
ATOM     24  H   UNL     1      -2.073   4.138  -0.385  0.00  0.00    +0.155 HD
BRANCH  23  25
ATOM     25  C   UNL     1      -0.587   4.955  -1.560  0.00  0.00    +0.034 A 
ATOM     26  C   UNL     1       0.675   5.513  -1.398  0.00  0.00    +0.026 A 
ATOM     27  C   UNL     1       1.201   6.326  -2.383  0.00  0.00    +0.040 A 
ATOM     28  C   UNL     1       0.468   6.592  -3.527  0.00  0.00    +0.124 A 
ATOM     29  C   UNL     1      -0.792   6.041  -3.688  0.00  0.00    +0.040 A 
ATOM     30  C   UNL     1      -1.320   5.224  -2.708  0.00  0.00    +0.026 A 
ATOM     31  F   UNL     1       0.983   7.391  -4.487  0.00  0.00    -0.205 F 
ENDBRANCH  23  25
ENDBRANCH   3  21
TORSDOF 4
