REMARK  Name = ZINC33810253
REMARK  10 active torsions:
REMARK  status: ('A' for Active; 'I' for Inactive)
REMARK    1  A    between atoms: C_1  and  C_2
REMARK    2  A    between atoms: C_2  and  O_3
REMARK    3  A    between atoms: O_3  and  C_4
REMARK    4  A    between atoms: C_7  and  C_12
REMARK    5  A    between atoms: C_9  and  O_10
REMARK    6  A    between atoms: O_10  and  C_11
REMARK    7  A    between atoms: C_17  and  S_21
REMARK    8  A    between atoms: S_21  and  C_22
REMARK    9  A    between atoms: C_22  and  C_23
REMARK   10  A    between atoms: C_26  and  C_29
REMARK                            x       y       z     vdW  Elec       q    Type
REMARK                         _______ _______ _______ _____ _____    ______ ____
ROOT
ATOM      1  C   UNL     1      -2.754   2.264   2.501  0.00  0.00    +0.093 C 
ATOM      2  C   UNL     1      -1.904   2.066   3.721  0.00  0.00    +0.069 A 
ATOM      3  C   UNL     1      -0.566   1.847   3.614  0.00  0.00    +0.135 A 
ATOM      4  N   UNL     1       0.179   1.677   4.751  0.00  0.00    -0.208 NA
ATOM      5  C   UNL     1      -0.419   1.726   5.974  0.00  0.00    +0.171 A 
ATOM      6  N   UNL     1      -1.715   1.935   6.090  0.00  0.00    -0.302 N 
ATOM      7  C   UNL     1      -2.487   2.106   5.006  0.00  0.00    +0.258 A 
ATOM      8  O   UNL     1      -3.688   2.296   5.131  0.00  0.00    -0.267 OA
ATOM      9  N   UNL     1       0.030   1.796   2.375  0.00  0.00    -0.302 N 
ATOM     10  C   UNL     1      -0.718   1.572   1.250  0.00  0.00    +0.017 C 
ATOM     11  C   UNL     1      -2.051   1.778   1.259  0.00  0.00    +0.024 C 
ATOM     12  C   UNL     1      -2.827   1.546   0.109  0.00  0.00    +0.162 C 
ATOM     13  O   UNL     1      -4.028   1.723   0.155  0.00  0.00    -0.292 OA
ATOM     14  C   UNL     1      -2.197   1.085  -1.177  0.00  0.00    +0.080 C 
ATOM     15  C   UNL     1      -0.752   1.592  -1.233  0.00  0.00    +0.014 C 
ATOM     16  C   UNL     1      -0.013   1.086   0.008  0.00  0.00    +0.051 C 
ATOM     17  H   UNL     1       1.117   1.937   2.282  0.00  0.00    +0.153 HD
ATOM     18  H   UNL     1      -2.178   1.970   7.087  0.00  0.00    +0.171 HD
ENDROOT
BRANCH   1  22
ATOM     19  C   UNL     1      -3.631   6.427   2.070  0.00  0.00    +0.162 A 
ATOM     20  C   UNL     1      -2.320   5.984   2.022  0.00  0.00    +0.050 A 
ATOM     21  C   UNL     1      -2.039   4.638   2.167  0.00  0.00    +0.008 A 
ATOM     22  C   UNL     1      -3.065   3.731   2.349  0.00  0.00    -0.032 A 
ATOM     23  C   UNL     1      -4.377   4.166   2.398  0.00  0.00    +0.054 A 
ATOM     24  C   UNL     1      -4.665   5.514   2.259  0.00  0.00    +0.162 A 
BRANCH  24  25
ATOM     25  O   UNL     1      -5.954   5.944   2.307  0.00  0.00    -0.491 OA
ATOM     26  C   UNL     1      -6.962   4.951   2.504  0.00  0.00    +0.277 C 
ENDBRANCH  24  25
BRANCH  19  27
ATOM     27  O   UNL     1      -3.909   7.752   1.933  0.00  0.00    -0.489 OA
BRANCH  27  29
ATOM     28  C   UNL     1      -3.304  10.069   1.610  0.00  0.00    +0.048 C 
ATOM     29  C   UNL     1      -2.799   8.631   1.742  0.00  0.00    +0.226 C 
ENDBRANCH  27  29
ENDBRANCH  19  27
ENDBRANCH   1  22
BRANCH   5  30
ATOM     30  S   UNL     1       0.556   1.506   7.424  0.00  0.00    -0.083 S 
BRANCH  30  31
ATOM     31  C   UNL     1      -0.726   1.666   8.692  0.00  0.00    +0.112 C 
BRANCH  31  32
ATOM     32  C   UNL     1      -0.105   1.509  10.056  0.00  0.00    -0.037 A 
ATOM     33  C   UNL     1      -0.020   0.257  10.637  0.00  0.00    +0.005 A 
ATOM     34  C   UNL     1       0.553   0.112  11.886  0.00  0.00    +0.003 A 
ATOM     35  C   UNL     1       1.032   1.220  12.560  0.00  0.00    -0.050 A 
ATOM     36  C   UNL     1       0.943   2.473  11.982  0.00  0.00    +0.003 A 
ATOM     37  C   UNL     1       0.373   2.617  10.730  0.00  0.00    +0.005 A 
ATOM     38  C   UNL     1       1.653   1.063  13.924  0.00  0.00    +0.044 C 
ENDBRANCH  31  32
ENDBRANCH  30  31
ENDBRANCH   5  30
TORSDOF 7
