REMARK  Name = ZINC35745508
REMARK  13 active torsions:
REMARK  status: ('A' for Active; 'I' for Inactive)
REMARK    1  A    between atoms: C_1  and  C_2
REMARK    2  A    between atoms: C_3  and  C_35
REMARK    3  A    between atoms: C_11  and  C_13
REMARK    4  A    between atoms: C_13  and  N_14
REMARK    5  A    between atoms: N_14  and  C_15
REMARK    6  A    between atoms: N_14  and  C_22
REMARK    7  A    between atoms: C_15  and  C_16
REMARK    8  A    between atoms: C_22  and  C_23
REMARK    9  A    between atoms: C_23  and  C_25
REMARK   10  A    between atoms: C_23  and  O_34
REMARK   11  A    between atoms: C_25  and  O_26
REMARK   12  A    between atoms: O_26  and  C_27
REMARK   13  A    between atoms: C_27  and  C_28
REMARK                            x       y       z     vdW  Elec       q    Type
REMARK                         _______ _______ _______ _____ _____    ______ ____
ROOT
ATOM      1  N   UNL     1       0.033  -4.721   3.942  0.00  0.00    +0.389 N 
ATOM      2  H   UNL     1       0.747  -5.137   3.364  0.00  0.00    -0.081 HD
ENDROOT
BRANCH   1   3
ATOM      3  C   UNL     1       0.426  -3.352   4.298  0.00  0.00    -0.003 C 
BRANCH   3  14
ATOM      4  C   UNL     1       1.991   0.830  -0.704  0.00  0.00    +0.045 C 
ATOM      5  C   UNL     1       1.663  -0.633  -0.550  0.00  0.00    -0.026 A 
ATOM      6  C   UNL     1       1.647  -1.442  -1.621  0.00  0.00    -0.008 A 
ATOM      7  S   UNL     1       1.218  -3.030  -0.933  0.00  0.00    -0.073 S 
ATOM      8  C   UNL     1       1.074  -2.560   0.772  0.00  0.00    +0.116 A 
ATOM      9  C   UNL     1       1.368  -1.185   0.759  0.00  0.00    +0.075 A 
ATOM     10  C   UNL     1       1.329  -0.531   2.034  0.00  0.00    +0.260 A 
ATOM     11  O   UNL     1       1.565   0.661   2.126  0.00  0.00    -0.267 OA
ATOM     12  N   UNL     1       1.027  -1.255   3.128  0.00  0.00    -0.312 N 
ATOM     13  H   UNL     1       0.999  -0.818   3.994  0.00  0.00    +0.170 HD
ATOM     14  C   UNL     1       0.760  -2.584   3.045  0.00  0.00    +0.094 A 
ATOM     15  N   UNL     1       0.779  -3.206   1.896  0.00  0.00    -0.229 NA
ATOM     16  C   UNL     1       1.924  -1.091  -3.060  0.00  0.00    +0.052 C 
ENDBRANCH   3  14
ENDBRANCH   1   3
BRANCH   1  17
ATOM     17  C   UNL     1      -1.238  -4.690   3.204  0.00  0.00    -0.042 C 
BRANCH  17  18
ATOM     18  C   UNL     1      -2.257  -3.909   3.993  0.00  0.00    -0.064 A 
ATOM     19  C   UNL     1      -2.995  -4.536   4.980  0.00  0.00    +0.002 A 
ATOM     20  C   UNL     1      -3.930  -3.820   5.703  0.00  0.00    +0.000 A 
ATOM     21  C   UNL     1      -4.127  -2.477   5.440  0.00  0.00    +0.000 A 
ATOM     22  C   UNL     1      -3.389  -1.850   4.454  0.00  0.00    +0.000 A 
ATOM     23  C   UNL     1      -2.451  -2.565   3.733  0.00  0.00    +0.002 A 
ENDBRANCH  17  18
ENDBRANCH   1  17
BRANCH   1  24
ATOM     24  C   UNL     1      -0.132  -5.517   5.166  0.00  0.00    -0.044 C 
BRANCH  24  25
ATOM     25  C   UNL     1       0.022  -7.003   4.833  0.00  0.00    +0.124 C 
BRANCH  25  26
ATOM     26  O   UNL     1      -0.982  -7.385   3.890  0.00  0.00    -0.391 OA
ATOM     27  H   UNL     1      -1.887  -7.248   4.202  0.00  0.00    +0.210 HD
ENDBRANCH  25  26
BRANCH  25  28
ATOM     28  C   UNL     1      -0.135  -7.830   6.110  0.00  0.00    +0.189 C 
BRANCH  28  29
ATOM     29  O   UNL     1       0.123  -9.206   5.820  0.00  0.00    -0.373 OA
BRANCH  29  30
ATOM     30  C   UNL     1       0.002 -10.070   6.952  0.00  0.00    +0.195 C 
BRANCH  30  31
ATOM     31  C   UNL     1       0.294 -11.489   6.534  0.00  0.00    -0.022 A 
ATOM     32  C   UNL     1      -0.731 -12.302   6.088  0.00  0.00    +0.006 A 
ATOM     33  C   UNL     1      -0.463 -13.603   5.704  0.00  0.00    +0.000 A 
ATOM     34  C   UNL     1       0.829 -14.090   5.767  0.00  0.00    +0.000 A 
ATOM     35  C   UNL     1       1.854 -13.276   6.212  0.00  0.00    +0.000 A 
ATOM     36  C   UNL     1       1.587 -11.974   6.591  0.00  0.00    +0.006 A 
ENDBRANCH  30  31
ENDBRANCH  29  30
ENDBRANCH  28  29
ENDBRANCH  25  28
ENDBRANCH  24  25
ENDBRANCH   1  24
TORSDOF 11
