REMARK  Name = ZINC16293481
REMARK  8 active torsions:
REMARK  status: ('A' for Active; 'I' for Inactive)
REMARK    1  A    between atoms: C_1  and  C_2
REMARK    2  A    between atoms: C_5  and  N_8
REMARK    3  A    between atoms: N_8  and  S_9
REMARK    4  A    between atoms: S_9  and  C_12
REMARK    5  A    between atoms: C_15  and  O_18
REMARK    6  A    between atoms: O_18  and  C_19
REMARK    7  A    between atoms: C_19  and  C_20
REMARK    8  A    between atoms: N_22  and  C_23
REMARK                            x       y       z     vdW  Elec       q    Type
REMARK                         _______ _______ _______ _____ _____    ______ ____
ROOT
ATOM      1  C   UNL     1       3.682   3.526  -0.839  0.00  0.00    +0.109 A 
ATOM      2  C   UNL     1       2.618   4.388  -1.030  0.00  0.00    +0.032 A 
ATOM      3  C   UNL     1       1.415   3.907  -1.508  0.00  0.00    +0.047 A 
ATOM      4  C   UNL     1       1.274   2.558  -1.797  0.00  0.00    +0.121 A 
ATOM      5  C   UNL     1       2.341   1.694  -1.600  0.00  0.00    +0.047 A 
ATOM      6  C   UNL     1       3.544   2.180  -1.126  0.00  0.00    +0.032 A 
ENDROOT
BRANCH   1   7
ATOM      7  S   UNL     1       5.215   4.143  -0.229  0.00  0.00    +0.072 S 
ATOM      8  O   UNL     1       6.230   3.293  -0.747  0.00  0.00    -0.150 OA
ATOM      9  O   UNL     1       5.208   5.545  -0.456  0.00  0.00    -0.150 OA
BRANCH   7  10
ATOM     10  N   UNL     1       5.211   3.929   1.413  0.00  0.00    -0.216 N 
ATOM     11  H   UNL     1       5.230   4.699   2.003  0.00  0.00    +0.174 HD
BRANCH  10  16
ATOM     12  C   UNL     1       5.084  -1.306   3.590  0.00  0.00    +0.044 C 
ATOM     13  C   UNL     1       5.118   0.085   3.012  0.00  0.00    -0.050 A 
ATOM     14  C   UNL     1       6.287   0.573   2.457  0.00  0.00    +0.005 A 
ATOM     15  C   UNL     1       6.321   1.848   1.925  0.00  0.00    +0.025 A 
ATOM     16  C   UNL     1       5.180   2.639   1.949  0.00  0.00    +0.048 A 
ATOM     17  C   UNL     1       4.009   2.148   2.512  0.00  0.00    +0.025 A 
ATOM     18  C   UNL     1       3.980   0.870   3.037  0.00  0.00    +0.005 A 
ENDBRANCH  10  16
ENDBRANCH   7  10
ENDBRANCH   1   7
BRANCH   4  19
ATOM     19  O   UNL     1       0.091   2.082  -2.268  0.00  0.00    -0.483 OA
BRANCH  19  20
ATOM     20  C   UNL     1       0.019   0.682  -2.544  0.00  0.00    +0.324 C 
BRANCH  20  21
ATOM     21  C   UNL     1      -1.358   0.341  -3.054  0.00  0.00    +0.255 C 
ATOM     22  O   UNL     1      -2.195   1.211  -3.169  0.00  0.00    -0.272 OA
ATOM     23  N   UNL     1      -1.659  -0.931  -3.381  0.00  0.00    -0.280 N 
ATOM     24  H   UNL     1      -0.971  -1.615  -3.355  0.00  0.00    +0.155 HD
BRANCH  23  25
ATOM     25  C   UNL     1      -2.966  -1.267  -3.758  0.00  0.00    +0.069 A 
ATOM     26  C   UNL     1      -3.749  -0.349  -4.444  0.00  0.00    +0.027 A 
ATOM     27  C   UNL     1      -5.037  -0.682  -4.815  0.00  0.00    +0.017 A 
ATOM     28  C   UNL     1      -5.548  -1.929  -4.504  0.00  0.00    +0.021 A 
ATOM     29  C   UNL     1      -4.772  -2.848  -3.821  0.00  0.00    +0.055 A 
ATOM     30  C   UNL     1      -3.479  -2.522  -3.451  0.00  0.00    +0.146 A 
ATOM     31  F   UNL     1      -2.718  -3.421  -2.789  0.00  0.00    -0.204 F 
ATOM     32 BR   UNL     1      -7.313  -2.380  -5.015  0.00  0.00    -0.050 Br
ENDBRANCH  23  25
ENDBRANCH  20  21
ENDBRANCH  19  20
ENDBRANCH   4  19
TORSDOF 7
