REMARK  Name = ZINC35038023
REMARK  13 active torsions:
REMARK  status: ('A' for Active; 'I' for Inactive)
REMARK    1  A    between atoms: C_1  and  C_2
REMARK    2  A    between atoms: C_2  and  C_4
REMARK    3  A    between atoms: C_2  and  N_22
REMARK    4  A    between atoms: N_14  and  C_15
REMARK    5  A    between atoms: N_22  and  C_23
REMARK    6  A    between atoms: C_23  and  C_24
REMARK    7  A    between atoms: C_24  and  N_25
REMARK    8  A    between atoms: N_25  and  C_26
REMARK    9  A    between atoms: N_25  and  C_27
REMARK   10  A    between atoms: N_30  and  C_31
REMARK   11  A    between atoms: C_31  and  C_32
REMARK   12  A    between atoms: C_31  and  C_33
REMARK   13  A    between atoms: C_31  and  C_34
REMARK                            x       y       z     vdW  Elec       q    Type
REMARK                         _______ _______ _______ _____ _____    ______ ____
ROOT
ATOM      1  C   UNL     1       0.726  -0.713   1.121  0.00  0.00    +0.138 A 
ATOM      2  N   UNL     1       1.209   0.308   1.760  0.00  0.00    -0.231 NA
ATOM      3  C   UNL     1       1.844   0.166   2.950  0.00  0.00    +0.078 A 
ATOM      4  C   UNL     1       2.364   1.264   3.639  0.00  0.00    +0.028 A 
ATOM      5  C   UNL     1       3.001   1.074   4.845  0.00  0.00    +0.002 A 
ATOM      6  C   UNL     1       3.135  -0.198   5.386  0.00  0.00    +0.001 A 
ATOM      7  C   UNL     1       2.631  -1.297   4.725  0.00  0.00    +0.015 A 
ATOM      8  C   UNL     1       1.982  -1.127   3.504  0.00  0.00    +0.065 A 
ATOM      9  C   UNL     1       1.424  -2.262   2.755  0.00  0.00    +0.266 A 
ATOM     10  O   UNL     1       1.508  -3.400   3.177  0.00  0.00    -0.267 OA
ATOM     11  N   UNL     1       0.807  -1.991   1.581  0.00  0.00    -0.263 N 
ENDROOT
BRANCH  11  12
ATOM     12  C   UNL     1       0.254  -3.036   0.830  0.00  0.00    +0.051 A 
ATOM     13  C   UNL     1      -1.125  -3.161   0.722  0.00  0.00    +0.027 A 
ATOM     14  C   UNL     1      -1.667  -4.192  -0.019  0.00  0.00    +0.017 A 
ATOM     15  C   UNL     1      -0.839  -5.101  -0.652  0.00  0.00    +0.018 A 
ATOM     16  C   UNL     1       0.535  -4.980  -0.546  0.00  0.00    +0.017 A 
ATOM     17  C   UNL     1       1.084  -3.946   0.188  0.00  0.00    +0.027 A 
ATOM     18 BR   UNL     1      -1.586  -6.513  -1.665  0.00  0.00    -0.050 Br
ENDBRANCH  11  12
BRANCH   1  20
ATOM     19  C   UNL     1      -0.324   1.012  -0.318  0.00  0.00    +0.036 C 
ATOM     20  C   UNL     1       0.033  -0.470  -0.196  0.00  0.00    +0.141 C 
BRANCH  20  21
ATOM     21  N   UNL     1       0.925  -0.850  -1.294  0.00  0.00    -0.278 N 
ATOM     22  C   UNL     1       0.501  -1.710  -2.241  0.00  0.00    +0.303 C 
ATOM     23  O   UNL     1      -0.623  -2.171  -2.183  0.00  0.00    -0.253 OA
ATOM     24  N   UNL     1       1.321  -2.059  -3.251  0.00  0.00    -0.294 N 
ATOM     25  H   UNL     1       2.218  -1.692  -3.297  0.00  0.00    +0.151 HD
BRANCH  24  26
ATOM     26  C   UNL     1       0.860  -2.994  -4.280  0.00  0.00    +0.028 C 
ATOM     27  C   UNL     1      -0.367  -2.412  -4.985  0.00  0.00    +0.031 C 
ATOM     28  C   UNL     1       1.976  -3.220  -5.302  0.00  0.00    +0.031 C 
ATOM     29  C   UNL     1       0.488  -4.328  -3.628  0.00  0.00    +0.031 C 
ENDBRANCH  24  26
BRANCH  21  30
ATOM     30  C   UNL     1       2.279  -0.294  -1.363  0.00  0.00    +0.091 C 
BRANCH  30  31
ATOM     31  C   UNL     1       3.266  -1.274  -0.725  0.00  0.00    -0.060 C 
BRANCH  31  32
ATOM     32  N   UNL     1       4.613  -0.688  -0.733  0.00  0.00    +0.377 N 
ATOM     33  C   UNL     1       4.634   0.502   0.129  0.00  0.00    -0.097 C 
ATOM     34  C   UNL     1       5.579  -1.673  -0.230  0.00  0.00    -0.097 C 
ATOM     35  H   UNL     1       4.860  -0.425  -1.675  0.00  0.00    -0.083 HD
ENDBRANCH  31  32
ENDBRANCH  30  31
ENDBRANCH  21  30
ENDBRANCH  20  21
ENDBRANCH   1  20
TORSDOF 7
