REMARK  Name = ZINC14071830
REMARK  7 active torsions:
REMARK  status: ('A' for Active; 'I' for Inactive)
REMARK    1  A    between atoms: C_1  and  C_2
REMARK    2  A    between atoms: N_5  and  C_8
REMARK    3  A    between atoms: C_8  and  C_10
REMARK    4  A    between atoms: C_8  and  C_30
REMARK    5  A    between atoms: C_10  and  N_11
REMARK    6  A    between atoms: C_12  and  C_14
REMARK    7  A    between atoms: C_23  and  C_26
REMARK                            x       y       z     vdW  Elec       q    Type
REMARK                         _______ _______ _______ _____ _____    ______ ____
ROOT
ATOM      1  N   UNL     1      -5.525   6.704   7.975  0.00  0.00    -0.316 N 
ATOM      2  C   UNL     1      -6.277   5.848   7.255  0.00  0.00    +0.216 C 
ATOM      3  O   UNL     1      -7.301   5.398   7.724  0.00  0.00    -0.276 OA
ATOM      4  H   UNL     1      -4.596   7.112   7.549  0.00  0.00    +0.149 HD
ENDROOT
BRANCH   2   5
ATOM      5  C   UNL     1      -5.846   5.450   5.867  0.00  0.00    +0.078 C 
ATOM      6  C   UNL     1      -6.868   4.477   5.273  0.00  0.00    +0.031 C 
ATOM      7  C   UNL     1      -6.394   4.029   3.888  0.00  0.00    +0.107 C 
ATOM      8  N   UNL     1      -5.082   3.378   4.005  0.00  0.00    -0.315 N 
ATOM      9  C   UNL     1      -4.074   4.308   4.529  0.00  0.00    +0.107 C 
ATOM     10  C   UNL     1      -4.479   4.764   5.933  0.00  0.00    +0.031 C 
ATOM     11  C   UNL     1      -4.681   2.843   2.787  0.00  0.00    +0.121 A 
ATOM     12  C   UNL     1      -3.460   2.183   2.692  0.00  0.00    +0.044 A 
ATOM     13  C   UNL     1      -3.074   1.655   1.474  0.00  0.00    +0.017 A 
ATOM     14  C   UNL     1      -3.925   1.806   0.386  0.00  0.00    +0.073 A 
ATOM     15  C   UNL     1      -5.119   2.477   0.550  0.00  0.00    +0.125 A 
ATOM     16  N   UNL     1      -5.465   2.966   1.726  0.00  0.00    -0.240 NA
BRANCH  14  17
ATOM     17  C   UNL     1      -3.544   1.247  -0.961  0.00  0.00    +0.419 C 
ATOM     18  F   UNL     1      -4.019  -0.065  -1.072  0.00  0.00    -0.166 F 
ATOM     19  F   UNL     1      -2.152   1.252  -1.091  0.00  0.00    -0.166 F 
ATOM     20  F   UNL     1      -4.110   2.034  -1.969  0.00  0.00    -0.166 F 
ENDBRANCH  14  17
ENDBRANCH   2   5
BRANCH   1  21
ATOM     21  C   UNL     1      -5.944   7.091   9.324  0.00  0.00    +0.094 C 
BRANCH  21  22
ATOM     22  C   UNL     1      -4.922   8.063   9.916  0.00  0.00    -0.013 C 
BRANCH  22  27
ATOM     23  C   UNL     1      -4.696  13.005   7.053  0.00  0.00    +0.007 C 
ATOM     24  C   UNL     1      -4.968  11.943   8.121  0.00  0.00    -0.018 C 
ATOM     25  C   UNL     1      -3.641  11.351   8.604  0.00  0.00    -0.015 C 
ATOM     26  C   UNL     1      -3.922  10.248   9.627  0.00  0.00    -0.078 C 
ATOM     27  N   UNL     1      -4.748   9.204   9.007  0.00  0.00    +0.386 N 
ATOM     28  C   UNL     1      -6.046   9.738   8.578  0.00  0.00    -0.078 C 
ATOM     29  C   UNL     1      -5.829  10.826   7.524  0.00  0.00    -0.015 C 
ATOM     30  H   UNL     1      -4.220   8.846   8.111  0.00  0.00    -0.081 HD
ENDBRANCH  22  27
BRANCH  22  31
ATOM     31  C   UNL     1      -5.414   8.556  11.253  0.00  0.00    -0.022 A 
ATOM     32  C   UNL     1      -4.961   8.254  12.494  0.00  0.00    +0.009 A 
ATOM     33  C   UNL     1      -5.570   8.835  13.590  0.00  0.00    +0.008 A 
ATOM     34  C   UNL     1      -6.610   9.682  13.392  0.00  0.00    +0.045 A 
ATOM     35  S   UNL     1      -6.751   9.684  11.612  0.00  0.00    -0.103 S 
ENDBRANCH  22  31
ENDBRANCH  21  22
ENDBRANCH   1  21
TORSDOF 6
