REMARK  Name = ZINC14415509
REMARK  15 active torsions:
REMARK  status: ('A' for Active; 'I' for Inactive)
REMARK    1  A    between atoms: C_1  and  C_2
REMARK    2  A    between atoms: C_2  and  C_3
REMARK    3  A    between atoms: C_3  and  C_4
REMARK    4  A    between atoms: C_4  and  C_5
REMARK    5  A    between atoms: C_5  and  C_6
REMARK    6  A    between atoms: C_10  and  O_35
REMARK    7  A    between atoms: C_11  and  C_12
REMARK    8  A    between atoms: C_14  and  C_18
REMARK    9  A    between atoms: N_20  and  C_34
REMARK   10  A    between atoms: C_21  and  C_25
REMARK   11  A    between atoms: C_25  and  C_27
REMARK   12  A    between atoms: C_25  and  O_33
REMARK   13  A    between atoms: C_27  and  C_28
REMARK   14  A    between atoms: C_27  and  C_29
REMARK   15  A    between atoms: C_27  and  C_30
REMARK                            x       y       z     vdW  Elec       q    Type
REMARK                         _______ _______ _______ _____ _____    ______ ____
ROOT
ATOM      1  C   UNL     1      -3.156  -1.690   3.053  0.00  0.00    +0.103 C 
ATOM      2  N   UNL     1      -4.066  -1.768   3.981  0.00  0.00    -0.270 NA
ATOM      3  C   UNL     1      -3.842  -1.216   5.305  0.00  0.00    +0.144 C 
ATOM      4  C   UNL     1      -2.328  -0.989   5.567  0.00  0.00    +0.105 C 
ATOM      5  S   UNL     1      -1.766  -0.870   3.816  0.00  0.00    -0.103 S 
ENDROOT
BRANCH   1  11
ATOM      6  C   UNL     1      -3.736  -1.349   0.654  0.00  0.00    -0.034 A 
ATOM      7  C   UNL     1      -3.818  -1.812  -0.642  0.00  0.00    +0.004 A 
ATOM      8  C   UNL     1      -3.426  -3.105  -0.948  0.00  0.00    +0.004 A 
ATOM      9  C   UNL     1      -2.949  -3.942   0.043  0.00  0.00    +0.046 A 
ATOM     10  C   UNL     1      -2.861  -3.491   1.351  0.00  0.00    +0.127 A 
ATOM     11  C   UNL     1      -3.251  -2.183   1.662  0.00  0.00    +0.051 A 
BRANCH  10  12
ATOM     12  O   UNL     1      -2.394  -4.313   2.324  0.00  0.00    -0.506 OA
ATOM     13  H   UNL     1      -1.437  -4.266   2.453  0.00  0.00    +0.292 HD
ENDBRANCH  10  12
BRANCH   6  14
ATOM     14  C   UNL     1      -4.163   0.059   0.981  0.00  0.00    +0.036 C 
BRANCH  14  15
ATOM     15  C   UNL     1      -2.943   0.981   0.955  0.00  0.00    +0.005 C 
BRANCH  15  16
ATOM     16  C   UNL     1      -3.377   2.410   1.286  0.00  0.00    +0.000 C 
BRANCH  16  18
ATOM     17  C   UNL     1      -2.591   4.762   1.592  0.00  0.00    +0.004 C 
ATOM     18  C   UNL     1      -2.157   3.333   1.261  0.00  0.00    -0.003 C 
ENDBRANCH  16  18
ENDBRANCH  15  16
ENDBRANCH  14  15
ENDBRANCH   6  14
ENDBRANCH   1  11
BRANCH   3  19
ATOM     19  C   UNL     1      -4.391  -2.186   6.353  0.00  0.00    +0.140 C 
ATOM     20  N   UNL     1      -5.836  -2.440   6.139  0.00  0.00    -0.286 NA
ATOM     21  C   UNL     1      -6.290  -3.810   6.344  0.00  0.00    +0.097 C 
ATOM     22  C   UNL     1      -5.169  -4.802   6.739  0.00  0.00    +0.092 C 
ATOM     23  S   UNL     1      -3.689  -3.879   6.125  0.00  0.00    -0.138 S 
ATOM     24  C   UNL     1      -6.657  -1.494   6.906  0.00  0.00    +0.106 C 
BRANCH  21  25
ATOM     25  C   UNL     1      -7.346  -3.811   7.450  0.00  0.00    +0.149 C 
BRANCH  25  26
ATOM     26  C   UNL     1      -7.785  -5.249   7.735  0.00  0.00    +0.094 C 
ATOM     27  C   UNL     1      -8.091  -5.960   6.415  0.00  0.00    +0.025 C 
ATOM     28  C   UNL     1      -6.662  -5.990   8.465  0.00  0.00    +0.025 C 
BRANCH  26  29
ATOM     29  C   UNL     1      -9.021  -5.236   8.597  0.00  0.00    +0.364 C 
ATOM     30  O   UNL     1      -9.836  -6.139   8.508  0.00  0.00    -0.246 OA
ATOM     31  O   UNL     1      -9.207  -4.323   9.383  0.00  0.00    -0.246 OA
ENDBRANCH  26  29
ENDBRANCH  25  26
BRANCH  25  32
ATOM     32  O   UNL     1      -8.476  -3.043   7.031  0.00  0.00    -0.389 OA
ATOM     33  H   UNL     1      -8.856  -3.330   6.190  0.00  0.00    +0.210 HD
ENDBRANCH  25  32
ENDBRANCH  21  25
ENDBRANCH   3  19
TORSDOF 11
