REMARK  Name = ZINC03840782
REMARK  10 active torsions:
REMARK  status: ('A' for Active; 'I' for Inactive)
REMARK    1  A    between atoms: C_1  and  C_2
REMARK    2  A    between atoms: C_10  and  C_12
REMARK    3  A    between atoms: C_21  and  C_41
REMARK    4  A    between atoms: C_24  and  O_40
REMARK    5  A    between atoms: C_26  and  C_30
REMARK    6  A    between atoms: C_30  and  C_32
REMARK    7  A    between atoms: C_30  and  C_33
REMARK    8  A    between atoms: N_35  and  C_36
REMARK    9  A    between atoms: N_35  and  C_37
REMARK   10  A    between atoms: C_37  and  C_38
REMARK                            x       y       z     vdW  Elec       q    Type
REMARK                         _______ _______ _______ _____ _____    ______ ____
ROOT
ATOM      1  C   UNL     1       5.082   2.389   3.127  0.00  0.00    +0.014 C 
ATOM      2  C   UNL     1       4.588   1.092   2.483  0.00  0.00    +0.042 C 
ATOM      3  C   UNL     1       3.495   0.482   3.348  0.00  0.00    +0.057 A 
ATOM      4  C   UNL     1       3.461  -0.860   3.556  0.00  0.00    +0.015 A 
ATOM      5  S   UNL     1       2.039  -1.056   4.596  0.00  0.00    -0.057 S 
ATOM      6  C   UNL     1       1.598   0.624   4.673  0.00  0.00    +0.165 A 
ATOM      7  N   UNL     1       2.532   1.188   3.936  0.00  0.00    -0.229 NA
ATOM      8  N   UNL     1       0.537   1.218   5.344  0.00  0.00    -0.261 N 
ATOM      9  C   UNL     1      -0.321   0.460   6.054  0.00  0.00    +0.255 C 
ATOM     10  O   UNL     1      -0.167  -0.746   6.107  0.00  0.00    -0.270 OA
ATOM     11  C   UNL     1       4.402  -1.886   3.031  0.00  0.00    +0.051 C 
ATOM     12  C   UNL     1       5.246  -1.263   1.902  0.00  0.00    -0.022 C 
ATOM     13  C   UNL     1       5.756   0.105   2.360  0.00  0.00    +0.033 C 
ATOM     14  C   UNL     1       6.732   0.677   1.326  0.00  0.00    +0.123 C 
ATOM     15  C   UNL     1       7.903  -0.281   1.114  0.00  0.00    +0.029 C 
ATOM     16  C   UNL     1       7.360  -1.615   0.593  0.00  0.00    +0.007 C 
ATOM     17  C   UNL     1       6.424  -2.208   1.644  0.00  0.00    +0.008 C 
ATOM     18  C   UNL     1       4.401  -1.122   0.634  0.00  0.00    +0.012 C 
ATOM     19  H   UNL     1       0.414   2.179   5.302  0.00  0.00    +0.157 HD
ENDROOT
BRANCH   9  20
ATOM     20  C   UNL     1      -1.451   1.090   6.761  0.00  0.00    +0.107 A 
ATOM     21  C   UNL     1      -2.679   1.265   6.112  0.00  0.00    +0.138 A 
ATOM     22  C   UNL     1      -3.734   1.851   6.785  0.00  0.00    +0.039 A 
ATOM     23  C   UNL     1      -3.576   2.276   8.092  0.00  0.00    +0.006 A 
ATOM     24  C   UNL     1      -2.365   2.113   8.739  0.00  0.00    +0.039 A 
ATOM     25  C   UNL     1      -1.301   1.523   8.084  0.00  0.00    +0.138 A 
ATOM     26  F   UNL     1      -0.118   1.364   8.718  0.00  0.00    -0.205 F 
ATOM     27  F   UNL     1      -2.833   0.856   4.834  0.00  0.00    -0.205 F 
ENDBRANCH   9  20
BRANCH  15  28
ATOM     28  C   UNL     1       8.629  -0.506   2.441  0.00  0.00    +0.078 C 
ATOM     29  C   UNL     1       9.294   0.798   2.887  0.00  0.00    +0.017 C 
BRANCH  28  30
ATOM     30  C   UNL     1       9.680  -1.571   2.265  0.00  0.00    +0.219 C 
ATOM     31  O   UNL     1      10.158  -1.776   1.169  0.00  0.00    -0.275 OA
ATOM     32  N   UNL     1      10.090  -2.296   3.325  0.00  0.00    -0.301 N 
ATOM     33  C   UNL     1       9.577  -1.991   4.663  0.00  0.00    +0.132 C 
BRANCH  32  34
ATOM     34  C   UNL     1      11.048  -3.388   3.139  0.00  0.00    +0.134 C 
BRANCH  34  35
ATOM     35  C   UNL     1      12.451  -2.855   3.280  0.00  0.00    -0.016 C 
ATOM     36  C   UNL     1      13.273  -3.397   4.145  0.00  0.00    +0.005 C 
ENDBRANCH  34  35
ENDBRANCH  32  34
ENDBRANCH  28  30
ENDBRANCH  15  28
BRANCH  14  37
ATOM     37  O   UNL     1       7.228   1.933   1.793  0.00  0.00    -0.391 OA
ATOM     38  H   UNL     1       7.844   2.364   1.184  0.00  0.00    +0.210 HD
ENDBRANCH  14  37
TORSDOF 6
