REMARK  Name = ZINC38905676
REMARK  6 active torsions:
REMARK  status: ('A' for Active; 'I' for Inactive)
REMARK    1  A    between atoms: C_6  and  C_7
REMARK    2  A    between atoms: C_9  and  C_12
REMARK    3  A    between atoms: C_12  and  N_13
REMARK    4  A    between atoms: C_17  and  C_20
REMARK    5  A    between atoms: N_22  and  C_23
REMARK    6  A    between atoms: C_26  and  N_29
REMARK                            x       y       z     vdW  Elec       q    Type
REMARK                         _______ _______ _______ _____ _____    ______ ____
ROOT
ATOM      1  N   UNL     1      -3.339  -4.316   1.410  0.00  0.00    +0.386 N 
ATOM      2  C   UNL     1      -4.349  -3.502   2.098  0.00  0.00    -0.078 C 
ATOM      3  C   UNL     1      -4.443  -3.930   3.563  0.00  0.00    -0.018 C 
ATOM      4  C   UNL     1      -4.842  -5.407   3.633  0.00  0.00    +0.009 C 
ATOM      5  C   UNL     1      -3.822  -6.239   2.850  0.00  0.00    +0.059 C 
ATOM      6  C   UNL     1      -3.751  -5.724   1.411  0.00  0.00    -0.065 C 
ATOM      7  H   UNL     1      -2.455  -4.224   1.888  0.00  0.00    -0.081 HD
ENDROOT
BRANCH   5   8
ATOM      8  C   UNL     1      -4.247  -7.684   2.848  0.00  0.00    +0.218 C 
ATOM      9  O   UNL     1      -4.467  -8.251   1.798  0.00  0.00    -0.275 OA
ATOM     10  N   UNL     1      -4.382  -8.348   4.013  0.00  0.00    -0.285 N 
ATOM     11  H   UNL     1      -4.144  -7.916   4.848  0.00  0.00    +0.155 HD
BRANCH  10  12
ATOM     12  C   UNL     1      -4.866  -9.663   4.018  0.00  0.00    +0.034 A 
ATOM     13  C   UNL     1      -5.675 -10.101   5.058  0.00  0.00    +0.025 A 
ATOM     14  C   UNL     1      -6.152 -11.396   5.063  0.00  0.00    +0.025 A 
ATOM     15  C   UNL     1      -5.823 -12.262   4.028  0.00  0.00    +0.036 A 
ATOM     16  C   UNL     1      -5.014 -11.823   2.988  0.00  0.00    +0.025 A 
ATOM     17  C   UNL     1      -4.541 -10.526   2.980  0.00  0.00    +0.025 A 
BRANCH  15  18
ATOM     18  N   UNL     1      -6.306 -13.576   4.033  0.00  0.00    -0.271 N 
ATOM     19  C   UNL     1      -5.922 -14.604   3.059  0.00  0.00    +0.114 C 
ATOM     20  C   UNL     1      -6.334 -15.950   3.695  0.00  0.00    +0.029 C 
ATOM     21  C   UNL     1      -7.475 -15.514   4.643  0.00  0.00    +0.098 C 
ATOM     22  C   UNL     1      -7.178 -14.060   4.935  0.00  0.00    +0.220 C 
ATOM     23  O   UNL     1      -7.658 -13.423   5.848  0.00  0.00    -0.275 OA
ENDBRANCH  15  18
ENDBRANCH  10  12
ENDBRANCH   5   8
BRANCH   1  24
ATOM     24  C   UNL     1      -3.196  -3.849   0.025  0.00  0.00    +0.022 C 
BRANCH  24  27
ATOM     25  C   UNL     1      -1.273  -0.771  -0.000  0.00  0.00    +0.202 A 
ATOM     26  N   UNL     1      -1.397  -2.110  -0.006  0.00  0.00    -0.193 NA
ATOM     27  C   UNL     1      -2.656  -2.442   0.022  0.00  0.00    +0.211 A 
ATOM     28  O   UNL     1      -3.390  -1.322   0.046  0.00  0.00    -0.340 OA
ATOM     29  N   UNL     1      -2.470  -0.240   0.037  0.00  0.00    -0.056 NA
BRANCH  25  35
ATOM     30  C   UNL     1      -0.001   1.374  -0.010  0.00  0.00    +0.013 A 
ATOM     31  C   UNL     1       1.192   2.068  -0.033  0.00  0.00    +0.016 A 
ATOM     32  C   UNL     1       2.394   1.382  -0.071  0.00  0.00    +0.018 A 
ATOM     33  C   UNL     1       2.406  -0.002  -0.087  0.00  0.00    +0.016 A 
ATOM     34  C   UNL     1       1.219  -0.705  -0.064  0.00  0.00    +0.013 A 
ATOM     35  C   UNL     1       0.006  -0.019  -0.025  0.00  0.00    +0.023 A 
ATOM     36 BR   UNL     1       4.024   2.340  -0.104  0.00  0.00    -0.050 Br
ENDBRANCH  25  35
ENDBRANCH  24  27
ENDBRANCH   1  24
TORSDOF 6
