REMARK  Name = ZINC36531312
REMARK  16 active torsions:
REMARK  status: ('A' for Active; 'I' for Inactive)
REMARK    1  A    between atoms: C_1  and  C_2
REMARK    2  A    between atoms: C_7  and  C_8
REMARK    3  A    between atoms: C_8  and  C_10
REMARK    4  A    between atoms: C_8  and  N_21
REMARK    5  A    between atoms: N_12  and  C_13
REMARK    6  A    between atoms: C_13  and  C_14
REMARK    7  A    between atoms: C_13  and  C_15
REMARK    8  A    between atoms: C_13  and  C_16
REMARK    9  A    between atoms: C_16  and  C_17
REMARK   10  A    between atoms: C_17  and  C_18
REMARK   11  A    between atoms: C_17  and  C_19
REMARK   12  A    between atoms: C_17  and  C_20
REMARK   13  A    between atoms: N_21  and  C_22
REMARK   14  A    between atoms: C_23  and  C_25
REMARK   15  A    between atoms: C_29  and  O_32
REMARK   16  A    between atoms: C_30  and  O_31
REMARK                            x       y       z     vdW  Elec       q    Type
REMARK                         _______ _______ _______ _____ _____    ______ ____
ROOT
ATOM      1  C   UNL     1      -0.848   0.605   2.714  0.00  0.00    +0.192 C 
ENDROOT
BRANCH   1   8
ATOM      2  C   UNL     1       1.726   1.899   2.491  0.00  0.00    +0.044 C 
ATOM      3  C   UNL     1       1.122   1.212   1.294  0.00  0.00    -0.045 A 
ATOM      4  C   UNL     1       1.801   1.195   0.090  0.00  0.00    +0.004 A 
ATOM      5  C   UNL     1       1.247   0.565  -1.008  0.00  0.00    +0.000 A 
ATOM      6  C   UNL     1       0.013  -0.050  -0.903  0.00  0.00    +0.000 A 
ATOM      7  C   UNL     1      -0.666  -0.034   0.301  0.00  0.00    +0.006 A 
ATOM      8  C   UNL     1      -0.110   0.593   1.400  0.00  0.00    -0.015 A 
ENDBRANCH   1   8
BRANCH   1   9
ATOM      9  C   UNL     1      -2.301   0.283   2.477  0.00  0.00    +0.239 C 
ATOM     10  O   UNL     1      -2.801  -0.687   3.006  0.00  0.00    -0.273 OA
ATOM     11  N   UNL     1      -3.045   1.073   1.677  0.00  0.00    -0.308 N 
ATOM     12  H   UNL     1      -2.629   1.806   1.198  0.00  0.00    +0.149 HD
BRANCH  11  13
ATOM     13  C   UNL     1      -4.481   0.823   1.532  0.00  0.00    +0.030 C 
ATOM     14  C   UNL     1      -4.697  -0.518   0.829  0.00  0.00    +0.031 C 
ATOM     15  C   UNL     1      -5.134   0.785   2.916  0.00  0.00    +0.031 C 
BRANCH  13  16
ATOM     16  C   UNL     1      -5.112   1.942   0.702  0.00  0.00    +0.031 C 
BRANCH  16  17
ATOM     17  C   UNL     1      -4.344   3.245   0.935  0.00  0.00    -0.036 C 
ATOM     18  C   UNL     1      -3.089   3.262   0.061  0.00  0.00    +0.010 C 
ATOM     19  C   UNL     1      -5.236   4.434   0.571  0.00  0.00    +0.010 C 
ATOM     20  C   UNL     1      -3.941   3.343   2.408  0.00  0.00    +0.010 C 
ENDBRANCH  16  17
ENDBRANCH  13  16
ENDBRANCH  11  13
ENDBRANCH   1   9
BRANCH   1  21
ATOM     21  N   UNL     1      -0.265  -0.396   3.611  0.00  0.00    -0.285 N 
ATOM     22  C   UNL     1      -0.233  -1.806   3.213  0.00  0.00    +0.133 C 
ATOM     23  C   UNL     1       0.241  -0.020   4.802  0.00  0.00    +0.251 C 
ATOM     24  O   UNL     1       0.290   1.158   5.098  0.00  0.00    -0.270 OA
BRANCH  23  25
ATOM     25  C   UNL     1       0.734  -1.039   5.748  0.00  0.00    +0.082 A 
ATOM     26  C   UNL     1       1.657  -2.001   5.327  0.00  0.00    +0.017 A 
ATOM     27  C   UNL     1       2.116  -2.950   6.213  0.00  0.00    +0.005 A 
ATOM     28  C   UNL     1       1.668  -2.959   7.524  0.00  0.00    +0.049 A 
ATOM     29  C   UNL     1       0.754  -2.014   7.956  0.00  0.00    +0.159 A 
ATOM     30  C   UNL     1       0.285  -1.044   7.074  0.00  0.00    +0.171 A 
BRANCH  30  31
ATOM     31  O   UNL     1      -0.606  -0.112   7.496  0.00  0.00    -0.503 OA
ATOM     32  H   UNL     1      -1.531  -0.376   7.391  0.00  0.00    +0.292 HD
ENDBRANCH  30  31
BRANCH  29  33
ATOM     33  O   UNL     1       0.318  -2.029   9.245  0.00  0.00    -0.503 OA
ATOM     34  H   UNL     1       0.856  -1.497   9.848  0.00  0.00    +0.292 HD
ENDBRANCH  29  33
ENDBRANCH  23  25
ENDBRANCH   1  21
TORSDOF 9
