REMARK  Name = ZINC39855522
REMARK  7 active torsions:
REMARK  status: ('A' for Active; 'I' for Inactive)
REMARK    1  A    between atoms: C_1  and  C_2
REMARK    2  A    between atoms: C_6  and  C_7
REMARK    3  A    between atoms: N_9  and  C_10
REMARK    4  A    between atoms: C_13  and  N_16
REMARK    5  A    between atoms: C_20  and  C_25
REMARK    6  A    between atoms: C_20  and  C_26
REMARK    7  A    between atoms: C_22  and  O_24
REMARK                            x       y       z     vdW  Elec       q    Type
REMARK                         _______ _______ _______ _____ _____    ______ ____
ROOT
ATOM      1  C   UNL     1      -0.795   0.950   0.488  0.00  0.00    +0.048 C 
ATOM      2  C   UNL     1      -0.667  -0.528   0.221  0.00  0.00    +0.006 A 
ATOM      3  C   UNL     1      -0.553  -1.145  -1.026  0.00  0.00    +0.025 A 
ATOM      4  C   UNL     1      -0.460  -2.480  -0.812  0.00  0.00    +0.112 A 
ATOM      5  O   UNL     1      -0.514  -2.705   0.503  0.00  0.00    -0.454 OA
ATOM      6  C   UNL     1      -0.632  -1.527   1.155  0.00  0.00    +0.193 A 
ATOM      7  C   UNL     1      -0.319  -3.501  -1.916  0.00  0.00    +0.081 C 
ATOM      8  C   UNL     1       0.114  -2.774  -3.194  0.00  0.00    -0.025 C 
ATOM      9  C   UNL     1      -0.807  -1.577  -3.441  0.00  0.00    +0.043 C 
ATOM     10  C   UNL     1      -0.534  -0.496  -2.387  0.00  0.00    +0.149 C 
ATOM     11  C   UNL     1       0.029  -3.736  -4.381  0.00  0.00    +0.011 C 
ATOM     12  C   UNL     1       1.555  -2.284  -3.039  0.00  0.00    +0.011 C 
ENDROOT
BRANCH   6  13
ATOM     13  C   UNL     1      -0.713  -1.351   2.608  0.00  0.00    +0.284 C 
ATOM     14  O   UNL     1      -0.822  -0.235   3.081  0.00  0.00    -0.266 OA
ATOM     15  N   UNL     1      -0.667  -2.426   3.420  0.00  0.00    -0.279 N 
ATOM     16  H   UNL     1      -0.487  -3.305   3.052  0.00  0.00    +0.155 HD
BRANCH  15  17
ATOM     17  C   UNL     1      -0.880  -2.273   4.794  0.00  0.00    +0.034 A 
ATOM     18  C   UNL     1      -0.250  -3.123   5.694  0.00  0.00    +0.025 A 
ATOM     19  C   UNL     1      -0.462  -2.969   7.050  0.00  0.00    +0.034 A 
ATOM     20  C   UNL     1      -1.301  -1.972   7.512  0.00  0.00    +0.126 A 
ATOM     21  C   UNL     1      -1.931  -1.125   6.618  0.00  0.00    +0.034 A 
ATOM     22  C   UNL     1      -1.718  -1.269   5.261  0.00  0.00    +0.025 A 
BRANCH  20  23
ATOM     23  N   UNL     1      -1.527  -1.810   8.966  0.00  0.00    +0.056 N 
ATOM     24  O   UNL     1      -0.978  -2.550   9.748  0.00  0.00    -0.126 OA
ATOM     25  O   UNL     1      -2.260  -0.939   9.371  0.00  0.00    -0.126 OA
ENDBRANCH  20  23
ENDBRANCH  15  17
ENDBRANCH   6  13
BRANCH  10  26
ATOM     26  O   UNL     1      -1.546   0.510  -2.455  0.00  0.00    -0.387 OA
ATOM     27  H   UNL     1      -1.367   1.285  -1.905  0.00  0.00    +0.210 HD
ENDBRANCH  10  26
TORSDOF 4
