REMARK  Name = ZINC12807476
REMARK  10 active torsions:
REMARK  status: ('A' for Active; 'I' for Inactive)
REMARK    1  A    between atoms: C_1  and  C_2
REMARK    2  A    between atoms: C_2  and  C_3
REMARK    3  A    between atoms: C_3  and  C_4
REMARK    4  A    between atoms: C_4  and  C_5
REMARK    5  A    between atoms: C_8  and  N_11
REMARK    6  A    between atoms: C_12  and  C_14
REMARK    7  A    between atoms: C_19  and  S_20
REMARK    8  A    between atoms: S_20  and  C_21
REMARK    9  A    between atoms: C_21  and  C_22
REMARK   10  A    between atoms: C_22  and  C_29
REMARK                            x       y       z     vdW  Elec       q    Type
REMARK                         _______ _______ _______ _____ _____    ______ ____
ROOT
ATOM      1  C   UNL     1       1.056   3.587   0.123  0.00  0.00    +0.050 A 
ATOM      2  C   UNL     1      -0.179   4.232   0.238  0.00  0.00    +0.014 A 
ATOM      3  C   UNL     1      -0.230   5.603   0.355  0.00  0.00    +0.001 A 
ATOM      4  C   UNL     1       0.937   6.351   0.349  0.00  0.00    +0.001 A 
ATOM      5  C   UNL     1       2.163   5.732   0.231  0.00  0.00    +0.015 A 
ATOM      6  C   UNL     1       2.237   4.348   0.117  0.00  0.00    +0.020 A 
ENDROOT
BRANCH   1   8
ATOM      7  N   UNL     1      -0.017   1.394   0.010  0.00  0.00    -0.281 N 
ATOM      8  C   UNL     1       1.119   2.120   0.003  0.00  0.00    +0.249 C 
ATOM      9  O   UNL     1       2.195   1.564  -0.101  0.00  0.00    -0.270 OA
ATOM     10  H   UNL     1      -0.878   1.841   0.021  0.00  0.00    +0.155 HD
BRANCH   7  14
ATOM     11  C   UNL     1       0.170  -2.767  -0.038  0.00  0.00    -0.047 A 
ATOM     12  C   UNL     1      -0.832  -2.129   0.671  0.00  0.00    +0.005 A 
ATOM     13  C   UNL     1      -0.897  -0.750   0.689  0.00  0.00    +0.023 A 
ATOM     14  C   UNL     1       0.046  -0.003  -0.006  0.00  0.00    +0.034 A 
ATOM     15  C   UNL     1       1.048  -0.646  -0.721  0.00  0.00    +0.023 A 
ATOM     16  C   UNL     1       1.110  -2.026  -0.730  0.00  0.00    +0.005 A 
BRANCH  11  17
ATOM     17  C   UNL     1       0.237  -4.272  -0.055  0.00  0.00    +0.035 C 
BRANCH  17  18
ATOM     18  C   UNL     1      -0.583  -4.806  -1.231  0.00  0.00    +0.004 C 
BRANCH  18  20
ATOM     19  C   UNL     1      -1.335  -6.868  -2.425  0.00  0.00    +0.004 C 
ATOM     20  C   UNL     1      -0.514  -6.334  -1.249  0.00  0.00    -0.003 C 
ENDBRANCH  18  20
ENDBRANCH  17  18
ENDBRANCH  11  17
ENDBRANCH   7  14
ENDBRANCH   1   8
BRANCH   6  21
ATOM     21  S   UNL     1       3.802   3.553  -0.035  0.00  0.00    -0.122 S 
BRANCH  21  22
ATOM     22  C   UNL     1       4.994   4.920   0.007  0.00  0.00    +0.109 C 
BRANCH  22  23
ATOM     23  C   UNL     1       6.413   4.363  -0.118  0.00  0.00    +0.119 C 
ATOM     24  C   UNL     1       7.434   5.480  -0.033  0.00  0.00    +0.244 C 
ATOM     25  O   UNL     1       7.551   6.424  -0.785  0.00  0.00    -0.273 OA
ATOM     26  N   UNL     1       8.185   5.206   1.052  0.00  0.00    -0.238 N 
ATOM     27  C   UNL     1       7.785   4.083   1.658  0.00  0.00    +0.307 C 
ATOM     28  O   UNL     1       8.309   3.631   2.658  0.00  0.00    -0.252 OA
ATOM     29  N   UNL     1       6.737   3.506   1.036  0.00  0.00    -0.285 N 
ATOM     30  C   UNL     1       6.572   3.586  -1.426  0.00  0.00    +0.042 C 
ATOM     31  H   UNL     1       8.925   5.756   1.355  0.00  0.00    +0.159 HD
ATOM     32  H   UNL     1       6.283   2.689   1.296  0.00  0.00    +0.151 HD
ENDBRANCH  22  23
ENDBRANCH  21  22
ENDBRANCH   6  21
TORSDOF 8
