REMARK  Name = ZINC43527355
REMARK  11 active torsions:
REMARK  status: ('A' for Active; 'I' for Inactive)
REMARK    1  A    between atoms: C_1  and  O_2
REMARK    2  A    between atoms: O_2  and  C_3
REMARK    3  A    between atoms: C_6  and  S_9
REMARK    4  A    between atoms: S_9  and  N_12
REMARK    5  A    between atoms: N_12  and  C_13
REMARK    6  A    between atoms: C_13  and  C_14
REMARK    7  A    between atoms: C_23  and  C_25
REMARK    8  A    between atoms: C_25  and  N_26
REMARK    9  A    between atoms: N_29  and  C_32
REMARK   10  A    between atoms: C_37  and  O_38
REMARK   11  A    between atoms: O_38  and  C_39
REMARK                            x       y       z     vdW  Elec       q    Type
REMARK                         _______ _______ _______ _____ _____    ______ ____
ROOT
ATOM      1  C   UNL     1      -5.433  -4.241  -3.892  0.00  0.00    -0.053 C 
ATOM      2  C   UNL     1      -4.761  -5.269  -4.806  0.00  0.00    -0.011 C 
ATOM      3  C   UNL     1      -5.648  -6.518  -4.883  0.00  0.00    -0.015 C 
ATOM      4  C   UNL     1      -5.813  -7.083  -3.466  0.00  0.00    -0.015 C 
ATOM      5  C   UNL     1      -6.439  -6.007  -2.576  0.00  0.00    -0.078 C 
ATOM      6  N   UNL     1      -6.699  -4.776  -3.386  0.00  0.00    +0.383 N 
ATOM      7  C   UNL     1      -7.621  -5.050  -4.490  0.00  0.00    -0.077 C 
ATOM      8  C   UNL     1      -7.023  -6.102  -5.424  0.00  0.00    -0.041 C 
ATOM      9  H   UNL     1      -7.124  -4.081  -2.790  0.00  0.00    -0.081 HD
ENDROOT
BRANCH   1  10
ATOM     10  C   UNL     1      -4.508  -3.927  -2.714  0.00  0.00    +0.090 C 
BRANCH  10  11
ATOM     11  N   UNL     1      -5.194  -3.033  -1.779  0.00  0.00    -0.191 NA
ATOM     12  H   UNL     1      -5.997  -2.565  -2.056  0.00  0.00    +0.148 HD
BRANCH  11  13
ATOM     13  S   UNL     1      -4.597  -2.818  -0.249  0.00  0.00    +0.058 S 
ATOM     14  O   UNL     1      -4.351  -4.115   0.276  0.00  0.00    -0.153 OA
ATOM     15  O   UNL     1      -5.456  -1.886   0.394  0.00  0.00    -0.153 OA
BRANCH  13  19
ATOM     16  C   UNL     1      -0.565  -0.798  -0.654  0.00  0.00    +0.120 A 
ATOM     17  C   UNL     1      -1.716  -0.034  -0.535  0.00  0.00    +0.047 A 
ATOM     18  C   UNL     1      -2.945  -0.652  -0.412  0.00  0.00    +0.032 A 
ATOM     19  C   UNL     1      -3.028  -2.032  -0.407  0.00  0.00    +0.105 A 
ATOM     20  C   UNL     1      -1.882  -2.797  -0.525  0.00  0.00    +0.032 A 
ATOM     21  C   UNL     1      -0.651  -2.183  -0.655  0.00  0.00    +0.047 A 
BRANCH  16  23
ATOM     22  C   UNL     1       0.659   1.237  -0.767  0.00  0.00    +0.277 C 
ATOM     23  O   UNL     1       0.645  -0.192  -0.776  0.00  0.00    -0.495 OA
ENDBRANCH  16  23
ENDBRANCH  13  19
ENDBRANCH  11  13
ENDBRANCH  10  11
ENDBRANCH   1  10
BRANCH   8  24
ATOM     24  C   UNL     1      -7.943  -7.323  -5.477  0.00  0.00    -0.077 C 
BRANCH  24  25
ATOM     25  N   UNL     1      -9.212  -6.952  -6.117  0.00  0.00    +0.382 N 
ATOM     26  C   UNL     1     -10.152  -8.076  -6.024  0.00  0.00    -0.060 C 
ATOM     27  C   UNL     1     -11.512  -7.651  -6.589  0.00  0.00    +0.086 C 
ATOM     28  N   UNL     1     -11.312  -7.138  -7.953  0.00  0.00    -0.331 N 
ATOM     29  C   UNL     1     -10.270  -6.121  -8.165  0.00  0.00    +0.086 C 
ATOM     30  C   UNL     1      -8.969  -6.618  -7.526  0.00  0.00    -0.060 C 
ATOM     31  H   UNL     1      -9.603  -6.149  -5.646  0.00  0.00    -0.082 HD
BRANCH  28  32
ATOM     32  C   UNL     1     -12.090  -7.604  -9.019  0.00  0.00    +0.072 A 
ATOM     33  C   UNL     1     -13.277  -6.965  -9.344  0.00  0.00    +0.027 A 
ATOM     34  C   UNL     1     -14.044  -7.427 -10.397  0.00  0.00    +0.002 A 
ATOM     35  C   UNL     1     -13.631  -8.525 -11.128  0.00  0.00    +0.004 A 
ATOM     36  C   UNL     1     -12.448  -9.167 -10.810  0.00  0.00    +0.047 A 
ATOM     37  C   UNL     1     -11.671  -8.707  -9.759  0.00  0.00    +0.141 A 
BRANCH  37  38
ATOM     38  O   UNL     1     -10.505  -9.335  -9.448  0.00  0.00    -0.493 OA
ATOM     39  C   UNL     1     -10.139 -10.459 -10.250  0.00  0.00    +0.277 C 
ENDBRANCH  37  38
ENDBRANCH  28  32
ENDBRANCH  24  25
ENDBRANCH   8  24
TORSDOF 9
