REMARK  Name = ZINC02125649
REMARK  8 active torsions:
REMARK  status: ('A' for Active; 'I' for Inactive)
REMARK    1  A    between atoms: C_1  and  O_2
REMARK    2  A    between atoms: O_2  and  C_3
REMARK    3  A    between atoms: C_3  and  C_5
REMARK    4  A    between atoms: C_9  and  C_11
REMARK    5  A    between atoms: C_14  and  C_16
REMARK    6  A    between atoms: C_18  and  C_31
REMARK    7  A    between atoms: N_20  and  C_23
REMARK    8  A    between atoms: C_27  and  C_29
REMARK                            x       y       z     vdW  Elec       q    Type
REMARK                         _______ _______ _______ _____ _____    ______ ____
ROOT
ATOM      1  C   UNL     1      -0.017   1.390   0.010  0.00  0.00    +0.061 C 
ATOM      2  C   UNL     1       0.002  -0.004   0.002  0.00  0.00    +0.074 C 
ATOM      3  C   UNL     1      -1.150  -0.913   0.008  0.00  0.00    +0.174 C 
ATOM      4  N   UNL     1      -0.691  -2.129  -0.003  0.00  0.00    -0.167 NA
ATOM      5  N   UNL     1       0.703  -2.144  -0.016  0.00  0.00    -0.156 N 
ATOM      6  C   UNL     1       1.179  -0.882  -0.020  0.00  0.00    +0.273 C 
ATOM      7  O   UNL     1       2.349  -0.539  -0.036  0.00  0.00    -0.268 OA
ENDROOT
BRANCH   5   8
ATOM      8  C   UNL     1       1.494  -3.300  -0.030  0.00  0.00    +0.061 A 
ATOM      9  C   UNL     1       2.880  -3.194  -0.049  0.00  0.00    +0.025 A 
ATOM     10  C   UNL     1       3.665  -4.332  -0.058  0.00  0.00    +0.003 A 
ATOM     11  C   UNL     1       3.078  -5.581  -0.059  0.00  0.00    +0.015 A 
ATOM     12  C   UNL     1       1.686  -5.698  -0.046  0.00  0.00    +0.065 A 
ATOM     13  C   UNL     1       0.894  -4.549  -0.031  0.00  0.00    +0.040 A 
BRANCH  12  14
ATOM     14  C   UNL     1       1.055  -7.034  -0.046  0.00  0.00    +0.387 C 
ATOM     15  O   UNL     1      -0.155  -7.133  -0.034  0.00  0.00    -0.241 OA
ATOM     16  O   UNL     1       1.822  -8.141  -0.060  0.00  0.00    -0.241 OA
ENDBRANCH  12  14
ENDBRANCH   5   8
BRANCH   1  20
ATOM     17  C   UNL     1       3.338   2.561  -0.016  0.00  0.00    +0.136 A 
ATOM     18  C   UNL     1       2.676   3.772  -0.003  0.00  0.00    +0.050 A 
ATOM     19  C   UNL     1       1.312   3.491   0.003  0.00  0.00    +0.050 A 
ATOM     20  C   UNL     1       1.187   2.107   0.002  0.00  0.00    +0.129 A 
ATOM     21  O   UNL     1       2.427   1.573  -0.013  0.00  0.00    -0.455 OA
BRANCH  17  26
ATOM     22  C   UNL     1       6.734   0.938  -0.058  0.00  0.00    +0.060 A 
ATOM     23  C   UNL     1       7.564   2.063  -0.059  0.00  0.00    +0.015 A 
ATOM     24  C   UNL     1       7.016   3.330  -0.047  0.00  0.00    +0.001 A 
ATOM     25  C   UNL     1       5.646   3.497  -0.038  0.00  0.00    +0.011 A 
ATOM     26  C   UNL     1       4.803   2.381  -0.031  0.00  0.00    +0.018 A 
ATOM     27  C   UNL     1       5.350   1.098  -0.044  0.00  0.00    +0.026 A 
BRANCH  22  28
ATOM     28  C   UNL     1       7.322  -0.417  -0.072  0.00  0.00    +0.339 C 
ATOM     29  O   UNL     1       6.600  -1.393  -0.071  0.00  0.00    -0.245 OA
BRANCH  28  31
ATOM     30  C   UNL     1       9.169  -1.930  -0.099  0.00  0.00    +0.280 C 
ATOM     31  O   UNL     1       8.661  -0.570  -0.086  0.00  0.00    -0.464 OA
ENDBRANCH  28  31
ENDBRANCH  22  28
ENDBRANCH  17  26
ENDBRANCH   1  20
BRANCH   3  32
ATOM     32  C   UNL     1      -2.602  -0.510   0.024  0.00  0.00    +0.436 C 
ATOM     33  F   UNL     1      -3.404  -1.656   0.025  0.00  0.00    -0.164 F 
ATOM     34  F   UNL     1      -2.864   0.244   1.172  0.00  0.00    -0.164 F 
ATOM     35  F   UNL     1      -2.885   0.256  -1.112  0.00  0.00    -0.164 F 
ENDBRANCH   3  32
TORSDOF 7
