REMARK  Name = ZINC12597952
REMARK  6 active torsions:
REMARK  status: ('A' for Active; 'I' for Inactive)
REMARK    1  A    between atoms: C_4  and  S_7
REMARK    2  A    between atoms: S_7  and  C_8
REMARK    3  A    between atoms: C_13  and  N_14
REMARK    4  A    between atoms: C_15  and  C_17
REMARK    5  A    between atoms: C_17  and  N_18
REMARK    6  A    between atoms: C_20  and  C_29
REMARK                            x       y       z     vdW  Elec       q    Type
REMARK                         _______ _______ _______ _____ _____    ______ ____
ROOT
ATOM      1  N   UNL     1      -0.111   0.894   0.582  0.00  0.00    -0.283 N 
ATOM      2  C   UNL     1       0.905   1.560   1.165  0.00  0.00    +0.235 C 
ATOM      3  O   UNL     1       0.833   2.760   1.324  0.00  0.00    -0.274 OA
ATOM      4  H   UNL     1      -0.049  -0.064   0.446  0.00  0.00    +0.155 HD
ENDROOT
BRANCH   1  10
ATOM      5  C   UNL     1      -2.449   0.901  -0.055  0.00  0.00    +0.034 A 
ATOM      6  C   UNL     1      -3.578   1.595  -0.467  0.00  0.00    +0.017 A 
ATOM      7  C   UNL     1      -3.517   2.962  -0.657  0.00  0.00    +0.001 A 
ATOM      8  C   UNL     1      -2.334   3.643  -0.439  0.00  0.00    +0.002 A 
ATOM      9  C   UNL     1      -1.205   2.961  -0.024  0.00  0.00    +0.024 A 
ATOM     10  C   UNL     1      -1.255   1.588   0.165  0.00  0.00    +0.047 A 
BRANCH   5  11
ATOM     11  S   UNL     1      -2.522  -0.843   0.188  0.00  0.00    -0.088 S 
BRANCH  11  15
ATOM     12  C   UNL     1      -0.536  -2.550  -3.507  0.00  0.00    +0.000 A 
ATOM     13  C   UNL     1      -1.020  -3.400  -2.529  0.00  0.00    +0.001 A 
ATOM     14  C   UNL     1      -1.626  -2.883  -1.401  0.00  0.00    +0.015 A 
ATOM     15  C   UNL     1      -1.749  -1.507  -1.249  0.00  0.00    +0.013 A 
ATOM     16  C   UNL     1      -1.266  -0.656  -2.236  0.00  0.00    +0.015 A 
ATOM     17  C   UNL     1      -0.656  -1.180  -3.359  0.00  0.00    +0.001 A 
ENDBRANCH  11  15
ENDBRANCH   5  11
ENDBRANCH   1  10
BRANCH   2  18
ATOM     18  C   UNL     1       2.133   0.812   1.620  0.00  0.00    +0.201 C 
BRANCH  18  19
ATOM     19  N   UNL     1       3.027   1.730   2.338  0.00  0.00    -0.314 N 
ATOM     20  C   UNL     1       2.449   2.125   3.628  0.00  0.00    +0.160 C 
ATOM     21  C   UNL     1       3.364   3.174   4.273  0.00  0.00    +0.275 C 
ATOM     22  O   UNL     1       3.378   4.327   3.426  0.00  0.00    -0.476 OA
ATOM     23  C   UNL     1       3.525   4.103   2.091  0.00  0.00    +0.143 A 
ATOM     24  C   UNL     1       3.352   2.836   1.546  0.00  0.00    +0.073 A 
ATOM     25  C   UNL     1       3.505   2.651   0.176  0.00  0.00    +0.027 A 
ATOM     26  C   UNL     1       3.829   3.719  -0.637  0.00  0.00    +0.002 A 
ATOM     27  C   UNL     1       4.004   4.977  -0.093  0.00  0.00    +0.004 A 
ATOM     28  C   UNL     1       3.853   5.170   1.267  0.00  0.00    +0.047 A 
BRANCH  21  29
ATOM     29  C   UNL     1       2.832   3.547   5.633  0.00  0.00    +0.253 C 
ATOM     30  O   UNL     1       2.437   4.674   5.841  0.00  0.00    -0.272 OA
ATOM     31  N   UNL     1       2.795   2.627   6.618  0.00  0.00    -0.326 N 
ATOM     32  H   UNL     1       3.111   1.725   6.451  0.00  0.00    +0.145 HD
ATOM     33  H   UNL     1       2.453   2.868   7.493  0.00  0.00    +0.145 HD
ENDBRANCH  21  29
ENDBRANCH  18  19
ENDBRANCH   2  18
TORSDOF 6
