REMARK  Name = ZINC39460693
REMARK  10 active torsions:
REMARK  status: ('A' for Active; 'I' for Inactive)
REMARK    1  A    between atoms: C_1  and  C_2
REMARK    2  A    between atoms: C_2  and  C_3
REMARK    3  A    between atoms: C_3  and  C_4
REMARK    4  A    between atoms: C_4  and  N_5
REMARK    5  A    between atoms: C_6  and  C_8
REMARK    6  A    between atoms: C_11  and  C_25
REMARK    7  A    between atoms: N_13  and  C_24
REMARK    8  A    between atoms: C_14  and  C_16
REMARK    9  A    between atoms: C_25  and  O_27
REMARK   10  A    between atoms: O_27  and  C_28
REMARK                            x       y       z     vdW  Elec       q    Type
REMARK                         _______ _______ _______ _____ _____    ______ ____
ROOT
ATOM      1  C   UNL     1       2.269  -4.308  -3.932  0.00  0.00    +0.099 C 
ATOM      2  C   UNL     1       3.705  -3.738  -3.991  0.00  0.00    +0.045 C 
ATOM      3  C   UNL     1       4.529  -4.932  -4.535  0.00  0.00    +0.167 C 
ATOM      4  N   UNL     1       3.899  -6.107  -3.881  0.00  0.00    -0.285 NA
ATOM      5  C   UNL     1       2.442  -5.837  -3.884  0.00  0.00    +0.102 C 
ATOM      6  C   UNL     1       4.205  -7.344  -4.613  0.00  0.00    +0.106 C 
ENDROOT
BRANCH   5   7
ATOM      7  C   UNL     1       1.816  -6.385  -2.627  0.00  0.00    +0.008 A 
ATOM      8  C   UNL     1       2.591  -6.592  -1.502  0.00  0.00    +0.008 A 
ATOM      9  C   UNL     1       2.018  -7.095  -0.349  0.00  0.00    +0.003 A 
ATOM     10  C   UNL     1       0.668  -7.391  -0.319  0.00  0.00    +0.041 A 
ATOM     11  C   UNL     1      -0.111  -7.185  -1.443  0.00  0.00    +0.159 A 
ATOM     12  C   UNL     1       0.463  -6.676  -2.599  0.00  0.00    +0.163 A 
ATOM     13  F   UNL     1      -0.296  -6.469  -3.696  0.00  0.00    -0.202 F 
ATOM     14  F   UNL     1      -1.430  -7.476  -1.415  0.00  0.00    -0.202 F 
ENDBRANCH   5   7
BRANCH   1  16
ATOM     15  N   UNL     1       0.229  -3.639  -2.704  0.00  0.00    -0.315 N 
ATOM     16  C   UNL     1       1.564  -3.822  -2.692  0.00  0.00    +0.218 C 
ATOM     17  O   UNL     1       2.198  -3.595  -1.683  0.00  0.00    -0.275 OA
ATOM     18  H   UNL     1      -0.278  -3.820  -3.511  0.00  0.00    +0.149 HD
BRANCH  15  19
ATOM     19  C   UNL     1      -0.457  -3.166  -1.499  0.00  0.00    +0.104 C 
BRANCH  19  20
ATOM     20  C   UNL     1      -1.956  -3.044  -1.780  0.00  0.00    +0.018 C 
BRANCH  20  22
ATOM     21  C   UNL     1      -4.171  -2.429  -0.802  0.00  0.00    +0.004 C 
ATOM     22  C   UNL     1      -2.672  -2.551  -0.521  0.00  0.00    -0.002 C 
ENDBRANCH  20  22
ENDBRANCH  19  20
ENDBRANCH  15  19
ENDBRANCH   1  16
BRANCH   3  23
ATOM     23  C   UNL     1       5.976  -4.807  -4.133  0.00  0.00    +0.324 C 
ATOM     24  O   UNL     1       6.399  -5.441  -3.195  0.00  0.00    -0.249 OA
BRANCH  23  25
ATOM     25  O   UNL     1       6.795  -3.992  -4.816  0.00  0.00    -0.467 OA
ATOM     26  C   UNL     1       8.154  -3.923  -4.379  0.00  0.00    +0.280 C 
ENDBRANCH  23  25
ENDBRANCH   3  23
TORSDOF 7
