REMARK  Name = ZINC65497789
REMARK  6 active torsions:
REMARK  status: ('A' for Active; 'I' for Inactive)
REMARK    1  A    between atoms: C_1  and  C_2
REMARK    2  A    between atoms: C_4  and  C_8
REMARK    3  A    between atoms: C_5  and  C_7
REMARK    4  A    between atoms: C_8  and  C_9
REMARK    5  A    between atoms: C_8  and  N_10
REMARK    6  A    between atoms: C_19  and  C_20
REMARK                            x       y       z     vdW  Elec       q    Type
REMARK                         _______ _______ _______ _____ _____    ______ ____
ROOT
ATOM      1  N   UNL     1      -2.769  -3.100  -0.555  0.00  0.00    -0.293 N 
ATOM      2  C   UNL     1      -3.478  -4.083  -1.145  0.00  0.00    +0.303 C 
ATOM      3  O   UNL     1      -2.990  -5.189  -1.277  0.00  0.00    -0.253 OA
ATOM      4  N   UNL     1      -4.727  -3.840  -1.589  0.00  0.00    -0.279 N 
ATOM      5  C   UNL     1      -5.238  -2.456  -1.542  0.00  0.00    +0.110 C 
ATOM      6  C   UNL     1      -6.012  -2.079  -2.818  0.00  0.00    +0.019 C 
ATOM      7  C   UNL     1      -5.310  -2.634  -4.033  0.00  0.00    +0.002 C 
ATOM      8  C   UNL     1      -5.876  -4.012  -4.359  0.00  0.00    +0.002 C 
ATOM      9  C   UNL     1      -5.255  -5.115  -3.610  0.00  0.00    +0.027 C 
ATOM     10  C   UNL     1      -5.509  -4.945  -2.097  0.00  0.00    +0.108 C 
ATOM     11  H   UNL     1      -3.129  -2.200  -0.514  0.00  0.00    +0.151 HD
ENDROOT
BRANCH  10  12
ATOM     12  C   UNL     1      -5.113  -6.211  -1.383  0.00  0.00    -0.024 A 
ATOM     13  C   UNL     1      -5.345  -6.361  -0.024  0.00  0.00    +0.025 A 
ATOM     14  C   UNL     1      -4.968  -7.537   0.598  0.00  0.00    +0.111 A 
ATOM     15  N   UNL     1      -4.394  -8.507  -0.086  0.00  0.00    -0.263 NA
ATOM     16  C   UNL     1      -4.159  -8.399  -1.379  0.00  0.00    +0.111 A 
ATOM     17  C   UNL     1      -4.513  -7.256  -2.069  0.00  0.00    +0.025 A 
ENDBRANCH  10  12
BRANCH   1  18
ATOM     18  C   UNL     1      -1.455  -3.391   0.024  0.00  0.00    +0.105 C 
ATOM     19  C   UNL     1      -1.631  -3.919   1.449  0.00  0.00    +0.033 C 
BRANCH  18  23
ATOM     20  C   UNL     1      -0.077   1.512   0.138  0.00  0.00    +0.086 C 
ATOM     21  C   UNL     1      -0.044   0.006   0.103  0.00  0.00    +0.103 A 
ATOM     22  C   UNL     1      -1.117  -0.804   0.083  0.00  0.00    +0.050 A 
ATOM     23  C   UNL     1      -0.629  -2.131   0.053  0.00  0.00    +0.013 A 
ATOM     24  C   UNL     1       0.714  -2.052   0.057  0.00  0.00    +0.107 A 
ATOM     25  O   UNL     1       1.062  -0.755   0.081  0.00  0.00    -0.465 OA
ATOM     26  C   UNL     1       1.665  -3.220   0.032  0.00  0.00    +0.086 C 
ENDBRANCH  18  23
ENDBRANCH   1  18
TORSDOF 3
