REMARK  Name = ZINC63487026
REMARK  6 active torsions:
REMARK  status: ('A' for Active; 'I' for Inactive)
REMARK    1  A    between atoms: C_4  and  C_7
REMARK    2  A    between atoms: C_9  and  C_12
REMARK    3  A    between atoms: C_12  and  N_13
REMARK    4  A    between atoms: C_14  and  C_16
REMARK    5  A    between atoms: C_16  and  N_17
REMARK    6  A    between atoms: C_18  and  C_20
REMARK                            x       y       z     vdW  Elec       q    Type
REMARK                         _______ _______ _______ _____ _____    ______ ____
ROOT
ATOM      1  N   UNL     1       5.902  -4.122  -1.470  0.00  0.00    -0.307 N 
ATOM      2  C   UNL     1       6.405  -5.345  -1.732  0.00  0.00    +0.231 C 
ATOM      3  O   UNL     1       6.712  -6.083  -0.820  0.00  0.00    -0.274 OA
ATOM      4  H   UNL     1       5.657  -3.532  -2.200  0.00  0.00    +0.149 HD
ENDROOT
BRANCH   1   5
ATOM      5  C   UNL     1       5.728  -3.684  -0.083  0.00  0.00    +0.184 C 
BRANCH   5   8
ATOM      6  C   UNL     1       3.695  -0.684  -0.038  0.00  0.00    +0.259 A 
ATOM      7  N   UNL     1       3.854  -1.989  -0.052  0.00  0.00    -0.190 NA
ATOM      8  C   UNL     1       5.154  -2.291  -0.065  0.00  0.00    +0.189 A 
ATOM      9  N   UNL     1       5.848  -1.188  -0.060  0.00  0.00    -0.059 NA
ATOM     10  O   UNL     1       4.914  -0.118  -0.048  0.00  0.00    -0.333 OA
BRANCH   6  14
ATOM     11  C   UNL     1      -0.017   1.379   0.010  0.00  0.00    +0.000 A 
ATOM     12  C   UNL     1       1.168   2.094   0.002  0.00  0.00    +0.001 A 
ATOM     13  C   UNL     1       2.377   1.429  -0.013  0.00  0.00    +0.013 A 
ATOM     14  C   UNL     1       2.403   0.034  -0.021  0.00  0.00    +0.039 A 
ATOM     15  C   UNL     1       1.204  -0.681  -0.013  0.00  0.00    +0.013 A 
ATOM     16  C   UNL     1       0.002  -0.004   0.002  0.00  0.00    +0.001 A 
ENDBRANCH   6  14
ENDBRANCH   5   8
ENDBRANCH   1   5
BRANCH   2  17
ATOM     17  C   UNL     1       6.585  -5.796  -3.159  0.00  0.00    +0.200 C 
BRANCH  17  18
ATOM     18  N   UNL     1       7.143  -7.150  -3.176  0.00  0.00    -0.306 N 
ATOM     19  C   UNL     1       7.390  -7.762  -4.351  0.00  0.00    +0.220 C 
ATOM     20  O   UNL     1       7.151  -7.191  -5.394  0.00  0.00    -0.275 OA
ATOM     21  H   UNL     1       7.334  -7.607  -2.342  0.00  0.00    +0.149 HD
BRANCH  19  22
ATOM     22  C   UNL     1       7.964  -9.155  -4.369  0.00  0.00    +0.048 C 
ATOM     23  C   UNL     1       9.319  -9.158  -3.659  0.00  0.00    +0.019 C 
ATOM     24  C   UNL     1       9.902 -10.573  -3.677  0.00  0.00    -0.009 C 
ATOM     25  C   UNL     1      10.084 -11.031  -5.125  0.00  0.00    +0.007 C 
ATOM     26  C   UNL     1       8.729 -11.028  -5.836  0.00  0.00    -0.009 C 
ATOM     27  C   UNL     1       8.147  -9.613  -5.818  0.00  0.00    +0.019 C 
ATOM     28  C   UNL     1       7.774 -11.982  -5.117  0.00  0.00    +0.007 C 
ATOM     29  C   UNL     1       7.591 -11.524  -3.668  0.00  0.00    -0.009 C 
ATOM     30  C   UNL     1       8.946 -11.527  -2.957  0.00  0.00    +0.007 C 
ATOM     31  C   UNL     1       7.009 -10.110  -3.650  0.00  0.00    +0.019 C 
ENDBRANCH  19  22
ENDBRANCH  17  18
ENDBRANCH   2  17
TORSDOF 6
