REMARK  Name = ZINC14546512
REMARK  6 active torsions:
REMARK  status: ('A' for Active; 'I' for Inactive)
REMARK    1  A    between atoms: C_4  and  C_7
REMARK    2  A    between atoms: C_7  and  C_8
REMARK    3  A    between atoms: C_8  and  N_9
REMARK    4  A    between atoms: N_9  and  S_10
REMARK    5  A    between atoms: S_10  and  C_13
REMARK    6  A    between atoms: C_26  and  C_29
REMARK                            x       y       z     vdW  Elec       q    Type
REMARK                         _______ _______ _______ _____ _____    ______ ____
ROOT
ATOM      1  C   UNL     1      -5.267   3.279  -1.807  0.00  0.00    +0.106 A 
ATOM      2  C   UNL     1      -5.033   3.264  -3.170  0.00  0.00    +0.030 A 
ATOM      3  C   UNL     1      -3.897   2.663  -3.671  0.00  0.00    +0.025 A 
ATOM      4  C   UNL     1      -2.981   2.066  -2.813  0.00  0.00    +0.031 A 
ATOM      5  C   UNL     1      -3.232   2.072  -1.436  0.00  0.00    -0.018 A 
ATOM      6  C   UNL     1      -4.366   2.682  -0.944  0.00  0.00    +0.034 A 
ATOM      7  C   UNL     1      -2.245   1.406  -0.560  0.00  0.00    +0.049 C 
ATOM      8  C   UNL     1      -2.072   1.812   0.858  0.00  0.00    -0.023 C 
ATOM      9  C   UNL     1      -0.805   1.617   1.205  0.00  0.00    -0.030 C 
ATOM     10  C   UNL     1      -0.013   1.086   0.008  0.00  0.00    +0.033 C 
ATOM     11  C   UNL     1      -0.830   1.631  -1.171  0.00  0.00    +0.029 C 
ATOM     12  C   UNL     1      -0.811   0.824  -2.457  0.00  0.00    +0.108 C 
ATOM     13  N   UNL     1      -1.818   1.494  -3.341  0.00  0.00    -0.336 N 
ATOM     14  H   UNL     1      -1.664   1.526  -4.299  0.00  0.00    +0.147 HD
ENDROOT
BRANCH  12  15
ATOM     15  C   UNL     1       0.555   0.885  -3.090  0.00  0.00    +0.010 A 
ATOM     16  C   UNL     1       0.963   2.031  -3.748  0.00  0.00    +0.047 A 
ATOM     17  C   UNL     1       2.219   2.088  -4.324  0.00  0.00    +0.020 A 
ATOM     18  C   UNL     1       3.063   0.996  -4.251  0.00  0.00    +0.003 A 
ATOM     19  C   UNL     1       2.655  -0.152  -3.599  0.00  0.00    +0.020 A 
ATOM     20  C   UNL     1       1.400  -0.208  -3.018  0.00  0.00    +0.047 A 
ATOM     21 CL   UNL     1       0.887  -1.650  -2.197  0.00  0.00    -0.083 Cl
ATOM     22 CL   UNL     1      -0.100   3.400  -3.846  0.00  0.00    -0.083 Cl
ENDBRANCH  12  15
BRANCH   1  23
ATOM     23  S   UNL     1      -6.713   4.057  -1.170  0.00  0.00    +0.058 S 
ATOM     24  O   UNL     1      -7.668   4.064  -2.222  0.00  0.00    -0.153 OA
ATOM     25  O   UNL     1      -6.974   3.459   0.092  0.00  0.00    -0.153 OA
BRANCH  23  26
ATOM     26  N   UNL     1      -6.327   5.640  -0.872  0.00  0.00    -0.190 NA
ATOM     27  H   UNL     1      -6.332   5.978   0.037  0.00  0.00    +0.148 HD
BRANCH  26  28
ATOM     28  C   UNL     1      -5.976   6.529  -1.982  0.00  0.00    +0.110 C 
BRANCH  28  29
ATOM     29  C   UNL     1      -6.030   7.983  -1.507  0.00  0.00    +0.052 C 
BRANCH  29  33
ATOM     30  C   UNL     1      -5.009  10.578  -4.743  0.00  0.00    +0.000 A 
ATOM     31  C   UNL     1      -6.328  10.218  -4.535  0.00  0.00    +0.000 A 
ATOM     32  C   UNL     1      -6.658   9.378  -3.488  0.00  0.00    +0.003 A 
ATOM     33  C   UNL     1      -5.670   8.898  -2.649  0.00  0.00    -0.046 A 
ATOM     34  C   UNL     1      -4.352   9.262  -2.854  0.00  0.00    +0.003 A 
ATOM     35  C   UNL     1      -4.021  10.098  -3.904  0.00  0.00    +0.000 A 
ENDBRANCH  29  33
ENDBRANCH  28  29
ENDBRANCH  26  28
ENDBRANCH  23  26
ENDBRANCH   1  23
TORSDOF 6
