REMARK  Name = ZINC58952467
REMARK  9 active torsions:
REMARK  status: ('A' for Active; 'I' for Inactive)
REMARK    1  A    between atoms: C_1  and  C_2
REMARK    2  A    between atoms: N_7  and  C_9
REMARK    3  A    between atoms: C_9  and  C_10
REMARK    4  A    between atoms: C_15  and  C_16
REMARK    5  A    between atoms: C_16  and  N_17
REMARK    6  A    between atoms: C_18  and  C_20
REMARK    7  A    between atoms: C_20  and  N_21
REMARK    8  A    between atoms: C_22  and  C_24
REMARK    9  A    between atoms: C_24  and  C_25
REMARK                            x       y       z     vdW  Elec       q    Type
REMARK                         _______ _______ _______ _____ _____    ______ ____
ROOT
ATOM      1  N   UNL     1       4.603  -3.142   1.486  0.00  0.00    -0.310 N 
ATOM      2  C   UNL     1       5.536  -2.330   0.952  0.00  0.00    +0.230 C 
ATOM      3  O   UNL     1       5.472  -2.020  -0.219  0.00  0.00    -0.274 OA
ATOM      4  H   UNL     1       4.654  -3.390   2.423  0.00  0.00    +0.149 HD
ENDROOT
BRANCH   1   5
ATOM      5  C   UNL     1       3.511  -3.651   0.652  0.00  0.00    +0.139 C 
BRANCH   5  11
ATOM      6  C   UNL     1       1.666  -3.960   2.315  0.00  0.00    -0.059 A 
ATOM      7  C   UNL     1       0.837  -4.766   3.073  0.00  0.00    +0.002 A 
ATOM      8  C   UNL     1       0.959  -6.141   3.004  0.00  0.00    +0.000 A 
ATOM      9  C   UNL     1       1.909  -6.711   2.177  0.00  0.00    +0.000 A 
ATOM     10  C   UNL     1       2.736  -5.905   1.418  0.00  0.00    +0.005 A 
ATOM     11  C   UNL     1       2.612  -4.530   1.484  0.00  0.00    -0.029 A 
BRANCH   6  12
ATOM     12  C   UNL     1       1.534  -2.461   2.390  0.00  0.00    -0.043 C 
BRANCH  12  18
ATOM     13  C   UNL     1      -0.019   1.526   0.010  0.00  0.00    +0.005 C 
ATOM     14  C   UNL     1       0.002  -0.004   0.002  0.00  0.00    -0.031 C 
ATOM     15  C   UNL     1      -1.434  -0.535   0.015  0.00  0.00    -0.001 C 
ATOM     16  C   UNL     1      -1.402  -2.064   0.086  0.00  0.00    -0.018 C 
ATOM     17  C   UNL     1      -0.613  -2.496   1.324  0.00  0.00    -0.078 C 
ATOM     18  N   UNL     1       0.758  -1.980   1.239  0.00  0.00    +0.383 N 
ATOM     19  C   UNL     1       0.740  -0.512   1.242  0.00  0.00    -0.075 C 
ATOM     20  H   UNL     1       1.188  -2.307   0.386  0.00  0.00    -0.081 HD
ENDBRANCH  12  18
ENDBRANCH   6  12
ENDBRANCH   5  11
ENDBRANCH   1   5
BRANCH   2  21
ATOM     21  C   UNL     1       6.660  -1.806   1.810  0.00  0.00    +0.200 C 
BRANCH  21  22
ATOM     22  N   UNL     1       7.534  -0.952   1.001  0.00  0.00    -0.306 N 
ATOM     23  C   UNL     1       8.612  -0.370   1.562  0.00  0.00    +0.218 C 
ATOM     24  O   UNL     1       8.859  -0.553   2.735  0.00  0.00    -0.275 OA
ATOM     25  H   UNL     1       7.336  -0.806   0.063  0.00  0.00    +0.149 HD
BRANCH  23  26
ATOM     26  C   UNL     1       9.511   0.508   0.731  0.00  0.00    +0.131 C 
BRANCH  26  27
ATOM     27  C   UNL     1      10.635   1.032   1.588  0.00  0.00    -0.031 A 
ATOM     28  C   UNL     1      10.529   2.251   2.184  0.00  0.00    +0.005 A 
ATOM     29  C   UNL     1      11.557   2.752   2.980  0.00  0.00    +0.001 A 
ATOM     30  C   UNL     1      12.697   2.036   3.185  0.00  0.00    +0.008 A 
ATOM     31  C   UNL     1      12.842   0.773   2.587  0.00  0.00    -0.018 A 
ATOM     32  C   UNL     1      11.793   0.262   1.782  0.00  0.00    -0.014 A 
ATOM     33  C   UNL     1      11.936  -1.004   1.188  0.00  0.00    +0.009 A 
ATOM     34  C   UNL     1      13.073  -1.722   1.398  0.00  0.00    +0.001 A 
ATOM     35  C   UNL     1      14.101  -1.222   2.195  0.00  0.00    +0.001 A 
ATOM     36  C   UNL     1      14.004   0.006   2.775  0.00  0.00    +0.008 A 
ENDBRANCH  26  27
ENDBRANCH  23  26
ENDBRANCH  21  22
ENDBRANCH   2  21
TORSDOF 8
