REMARK  Name = ZINC40292417
REMARK  5 active torsions:
REMARK  status: ('A' for Active; 'I' for Inactive)
REMARK    1  A    between atoms: C_1  and  C_2
REMARK    2  A    between atoms: C_7  and  C_10
REMARK    3  A    between atoms: C_11  and  C_13
REMARK    4  A    between atoms: C_15  and  N_20
REMARK    5  A    between atoms: C_17  and  N_19
REMARK                            x       y       z     vdW  Elec       q    Type
REMARK                         _______ _______ _______ _____ _____    ______ ____
ROOT
ATOM      1  C   UNL     1      -1.920  -4.284  -0.495  0.00  0.00    +0.040 A 
ATOM      2  C   UNL     1      -1.748  -4.859   0.764  0.00  0.00    +0.036 A 
ATOM      3  C   UNL     1      -1.609  -6.234   0.883  0.00  0.00    +0.027 A 
ATOM      4  C   UNL     1      -1.641  -7.037  -0.249  0.00  0.00    +0.045 A 
ATOM      5  C   UNL     1      -1.811  -6.468  -1.504  0.00  0.00    +0.027 A 
ATOM      6  C   UNL     1      -1.956  -5.094  -1.630  0.00  0.00    +0.036 A 
ENDROOT
BRANCH   1  15
ATOM      7  C   UNL     1       0.110   1.509  -0.563  0.00  0.00    +0.039 C 
ATOM      8  C   UNL     1       0.116  -0.021  -0.557  0.00  0.00    +0.133 C 
ATOM      9  C   UNL     1      -1.280  -0.536  -0.187  0.00  0.00    +0.139 C 
ATOM     10  N   UNL     1      -1.203  -1.994  -0.005  0.00  0.00    -0.293 N 
ATOM     11  C   UNL     1      -0.151  -2.526   0.877  0.00  0.00    +0.139 C 
ATOM     12  C   UNL     1       1.189  -1.914   0.455  0.00  0.00    +0.133 C 
ATOM     13  O   UNL     1       1.062  -0.491   0.406  0.00  0.00    -0.371 OA
ATOM     14  C   UNL     1       1.580  -2.441  -0.927  0.00  0.00    +0.039 C 
ATOM     15  C   UNL     1      -2.069  -2.818  -0.627  0.00  0.00    +0.247 C 
ATOM     16  O   UNL     1      -2.973  -2.357  -1.295  0.00  0.00    -0.270 OA
ENDBRANCH   1  15
BRANCH   5  17
ATOM     17  N   UNL     1      -1.841  -7.280  -2.640  0.00  0.00    -0.358 N 
ATOM     18  H   UNL     1      -1.744  -8.241  -2.552  0.00  0.00    +0.142 HD
ATOM     19  H   UNL     1      -1.960  -6.883  -3.517  0.00  0.00    +0.142 HD
ENDBRANCH   5  17
BRANCH   3  20
ATOM     20  N   UNL     1      -1.437  -6.811   2.144  0.00  0.00    -0.358 N 
ATOM     21  H   UNL     1      -1.415  -6.250   2.935  0.00  0.00    +0.142 HD
ATOM     22  H   UNL     1      -1.340  -7.772   2.228  0.00  0.00    +0.142 HD
ENDBRANCH   3  20
TORSDOF 3
