REMARK  Name = ZINC35224521
REMARK  4 active torsions:
REMARK  status: ('A' for Active; 'I' for Inactive)
REMARK    1  A    between atoms: C_4  and  C_19
REMARK    2  A    between atoms: C_6  and  N_7
REMARK    3  A    between atoms: N_7  and  C_8
REMARK    4  A    between atoms: C_8  and  C_9
REMARK                            x       y       z     vdW  Elec       q    Type
REMARK                         _______ _______ _______ _____ _____    ______ ____
ROOT
ATOM      1  N   UNL     1      -1.199  -0.719   0.010  0.00  0.00    -0.340 N 
ATOM      2  H   UNL     1      -1.186  -1.689   0.004  0.00  0.00    +0.146 HD
ENDROOT
BRANCH   1   8
ATOM      3  C   UNL     1      -0.017   1.386   0.010  0.00  0.00    +0.024 A 
ATOM      4  C   UNL     1       1.168   2.098   0.002  0.00  0.00    +0.023 A 
ATOM      5  C   UNL     1       2.378   1.434  -0.013  0.00  0.00    +0.058 A 
ATOM      6  C   UNL     1       2.408   0.037  -0.021  0.00  0.00    +0.072 A 
ATOM      7  C   UNL     1       1.211  -0.681  -0.013  0.00  0.00    +0.043 A 
ATOM      8  C   UNL     1       0.002  -0.004   0.002  0.00  0.00    +0.029 A 
ATOM      9 CL   UNL     1       3.863   2.334  -0.023  0.00  0.00    -0.082 Cl
BRANCH   6  10
ATOM     10  C   UNL     1       3.661  -0.656  -0.037  0.00  0.00    +0.101 C 
ATOM     11  N   UNL     1       4.656  -1.205  -0.050  0.00  0.00    -0.191 NA
ENDBRANCH   6  10
ENDBRANCH   1   8
BRANCH   1  12
ATOM     12  C   UNL     1      -2.477  -0.004   0.026  0.00  0.00    +0.137 C 
BRANCH  12  13
ATOM     13  C   UNL     1      -3.610  -0.998   0.031  0.00  0.00    -0.025 A 
ATOM     14  C   UNL     1      -4.135  -1.451  -1.165  0.00  0.00    +0.054 A 
ATOM     15  C   UNL     1      -5.176  -2.365  -1.163  0.00  0.00    +0.168 A 
ATOM     16  C   UNL     1      -5.691  -2.827   0.046  0.00  0.00    +0.184 A 
ATOM     17  C   UNL     1      -5.160  -2.368   1.241  0.00  0.00    +0.087 A 
ATOM     18  C   UNL     1      -4.116  -1.459   1.231  0.00  0.00    +0.029 A 
ATOM     19 CL   UNL     1      -5.798  -2.941   2.751  0.00  0.00    -0.080 Cl
ATOM     20  O   UNL     1      -6.698  -3.710  -0.217  0.00  0.00    -0.451 OA
ATOM     21  C   UNL     1      -7.066  -3.475  -1.589  0.00  0.00    +0.466 C 
ATOM     22  O   UNL     1      -5.860  -2.960  -2.184  0.00  0.00    -0.453 OA
ENDBRANCH  12  13
ENDBRANCH   1  12
TORSDOF 4
