REMARK  Name = ZINC17042693
REMARK  7 active torsions:
REMARK  status: ('A' for Active; 'I' for Inactive)
REMARK    1  A    between atoms: C_1  and  C_2
REMARK    2  A    between atoms: C_2  and  O_3
REMARK    3  A    between atoms: O_3  and  C_4
REMARK    4  A    between atoms: C_7  and  C_10
REMARK    5  A    between atoms: N_20  and  C_23
REMARK    6  A    between atoms: C_23  and  C_24
REMARK    7  A    between atoms: N_31  and  C_32
REMARK                            x       y       z     vdW  Elec       q    Type
REMARK                         _______ _______ _______ _____ _____    ______ ____
ROOT
ATOM      1  C   UNL     1       1.109  -6.040  -1.847  0.00  0.00    +0.130 C 
ATOM      2  C   UNL     1       0.068  -6.542  -2.864  0.00  0.00    +0.082 C 
ATOM      3  C   UNL     1       0.894  -7.141  -3.980  0.00  0.00    +0.041 C 
ATOM      4  C   UNL     1       0.391  -7.727  -5.132  0.00  0.00    +0.119 C 
ATOM      5  C   UNL     1      -1.054  -7.814  -5.380  0.00  0.00    +0.278 C 
ATOM      6  O   UNL     1      -1.939  -7.322  -4.487  0.00  0.00    -0.268 OA
ATOM      7  N   UNL     1      -1.469  -8.385  -6.499  0.00  0.00    -0.123 NA
ATOM      8  C   UNL     1      -0.620  -8.878  -7.396  0.00  0.00    +0.336 C 
ATOM      9  O   UNL     1      -1.079  -9.390  -8.403  0.00  0.00    -0.250 OA
ATOM     10  N   UNL     1       0.713  -8.843  -7.254  0.00  0.00    -0.216 N 
ATOM     11  C   UNL     1       1.283  -8.285  -6.165  0.00  0.00    +0.261 C 
ATOM     12  O   UNL     1       2.492  -8.248  -6.037  0.00  0.00    -0.269 OA
ATOM     13  N   UNL     1       2.191  -7.014  -3.674  0.00  0.00    -0.267 N 
ATOM     14  N   UNL     1       2.406  -6.384  -2.446  0.00  0.00    -0.246 N 
ATOM     15  H   UNL     1       2.909  -7.328  -4.245  0.00  0.00    +0.170 HD
ENDROOT
BRANCH   1  19
ATOM     16  C   UNL     1       0.777  -1.810  -1.336  0.00  0.00    +0.121 A 
ATOM     17  C   UNL     1       0.243  -2.669  -0.386  0.00  0.00    +0.046 A 
ATOM     18  C   UNL     1       0.351  -4.036  -0.554  0.00  0.00    +0.009 A 
ATOM     19  C   UNL     1       0.992  -4.548  -1.667  0.00  0.00    -0.025 A 
ATOM     20  C   UNL     1       1.525  -3.694  -2.615  0.00  0.00    +0.009 A 
ATOM     21  C   UNL     1       1.414  -2.327  -2.455  0.00  0.00    +0.046 A 
BRANCH  16  22
ATOM     22  O   UNL     1       0.671  -0.465  -1.174  0.00  0.00    -0.492 OA
BRANCH  22  24
ATOM     23  C   UNL     1      -0.019   1.526   0.010  0.00  0.00    +0.048 C 
ATOM     24  C   UNL     1       0.002  -0.004   0.002  0.00  0.00    +0.225 C 
ENDBRANCH  22  24
ENDBRANCH  16  22
ENDBRANCH   1  19
BRANCH  14  25
ATOM     25  C   UNL     1       3.654  -6.121  -1.877  0.00  0.00    +0.048 A 
ATOM     26  C   UNL     1       3.737  -5.489  -0.643  0.00  0.00    +0.025 A 
ATOM     27  C   UNL     1       4.973  -5.230  -0.083  0.00  0.00    +0.002 A 
ATOM     28  C   UNL     1       6.127  -5.599  -0.750  0.00  0.00    +0.000 A 
ATOM     29  C   UNL     1       6.048  -6.228  -1.979  0.00  0.00    +0.002 A 
ATOM     30  C   UNL     1       4.815  -6.495  -2.542  0.00  0.00    +0.025 A 
ENDBRANCH  14  25
BRANCH  10  31
ATOM     31  C   UNL     1       1.565  -9.413  -8.300  0.00  0.00    +0.153 C 
BRANCH  31  32
ATOM     32  C   UNL     1       1.893  -8.350  -9.316  0.00  0.00    -0.030 A 
ATOM     33  C   UNL     1       1.067  -8.158 -10.408  0.00  0.00    +0.005 A 
ATOM     34  C   UNL     1       1.368  -7.182 -11.340  0.00  0.00    +0.000 A 
ATOM     35  C   UNL     1       2.495  -6.398 -11.180  0.00  0.00    +0.000 A 
ATOM     36  C   UNL     1       3.321  -6.589 -10.087  0.00  0.00    +0.000 A 
ATOM     37  C   UNL     1       3.017  -7.562  -9.153  0.00  0.00    +0.005 A 
ENDBRANCH  31  32
ENDBRANCH  10  31
TORSDOF 6
