REMARK  Name = ZINC13112588
REMARK  11 active torsions:
REMARK  status: ('A' for Active; 'I' for Inactive)
REMARK    1  A    between atoms: C_1  and  C_2
REMARK    2  A    between atoms: C_7  and  C_9
REMARK    3  A    between atoms: C_7  and  C_10
REMARK    4  A    between atoms: N_13  and  C_17
REMARK    5  A    between atoms: C_17  and  C_18
REMARK    6  A    between atoms: C_18  and  C_20
REMARK    7  A    between atoms: C_18  and  O_31
REMARK    8  A    between atoms: C_20  and  O_21
REMARK    9  A    between atoms: O_21  and  C_22
REMARK   10  A    between atoms: C_25  and  C_28
REMARK   11  A    between atoms: C_28  and  C_29
REMARK                            x       y       z     vdW  Elec       q    Type
REMARK                         _______ _______ _______ _____ _____    ______ ____
ROOT
ATOM      1  C   UNL     1      -0.019   1.528   0.010  0.00  0.00    +0.007 C 
ATOM      2  C   UNL     1       0.002  -0.004   0.002  0.00  0.00    -0.011 C 
ATOM      3  C   UNL     1      -1.435  -0.529   0.021  0.00  0.00    +0.038 C 
ATOM      4  C   UNL     1      -1.427  -2.050  -0.036  0.00  0.00    +0.113 C 
ATOM      5  C   UNL     1      -0.575  -2.676   1.049  0.00  0.00    +0.041 C 
ATOM      6  C   UNL     1       0.782  -2.031   1.270  0.00  0.00    -0.032 C 
ATOM      7  C   UNL     1       0.719  -0.508   1.253  0.00  0.00    +0.009 C 
ATOM      8  C   UNL     1       1.296  -2.464   2.661  0.00  0.00    +0.011 C 
ATOM      9  C   UNL     1       1.795  -2.526   0.234  0.00  0.00    +0.011 C 
ATOM     10  C   UNL     1      -1.044  -2.534  -1.413  0.00  0.00    +0.247 C 
ATOM     11  O   UNL     1      -0.058  -2.253  -2.060  0.00  0.00    -0.273 OA
ATOM     12  N   UNL     1      -2.050  -3.344  -1.810  0.00  0.00    -0.222 N 
ATOM     13  C   UNL     1      -3.063  -3.331  -0.937  0.00  0.00    +0.309 C 
ATOM     14  O   UNL     1      -4.088  -3.969  -1.082  0.00  0.00    -0.252 OA
ATOM     15  N   UNL     1      -2.817  -2.537   0.119  0.00  0.00    -0.285 N 
ATOM     16  H   UNL     1      -3.418  -2.318   0.845  0.00  0.00    +0.151 HD
ENDROOT
BRANCH  12  17
ATOM     17  C   UNL     1      -2.031  -4.134  -3.043  0.00  0.00    +0.152 C 
BRANCH  17  18
ATOM     18  C   UNL     1      -1.422  -5.508  -2.759  0.00  0.00    +0.170 C 
BRANCH  18  19
ATOM     19  O   UNL     1      -2.270  -6.229  -1.861  0.00  0.00    -0.387 OA
ATOM     20  H   UNL     1      -3.164  -6.377  -2.199  0.00  0.00    +0.210 HD
ENDBRANCH  18  19
BRANCH  18  21
ATOM     21  C   UNL     1      -1.287  -6.288  -4.069  0.00  0.00    +0.261 C 
BRANCH  21  22
ATOM     22  O   UNL     1      -0.613  -7.523  -3.821  0.00  0.00    -0.489 OA
BRANCH  22  23
ATOM     23  C   UNL     1      -0.410  -8.340  -4.888  0.00  0.00    +0.121 A 
ATOM     24  C   UNL     1      -0.847  -7.958  -6.148  0.00  0.00    +0.046 A 
ATOM     25  C   UNL     1      -0.639  -8.791  -7.231  0.00  0.00    +0.008 A 
ATOM     26  C   UNL     1       0.002 -10.004  -7.059  0.00  0.00    -0.033 A 
ATOM     27  C   UNL     1       0.438 -10.386  -5.804  0.00  0.00    +0.008 A 
ATOM     28  C   UNL     1       0.238  -9.555  -4.719  0.00  0.00    +0.046 A 
BRANCH  26  29
ATOM     29  C   UNL     1       0.227 -10.910  -8.242  0.00  0.00    +0.153 C 
BRANCH  29  30
ATOM     30  C   UNL     1       1.522 -10.592  -8.865  0.00  0.00    +0.067 C 
ATOM     31  N   UNL     1       2.522 -10.347  -9.345  0.00  0.00    -0.196 NA
ENDBRANCH  29  30
ENDBRANCH  26  29
ENDBRANCH  22  23
ENDBRANCH  21  22
ENDBRANCH  18  21
ENDBRANCH  17  18
ENDBRANCH  12  17
TORSDOF 8
