REMARK  Name = ZINC27436909
REMARK  9 active torsions:
REMARK  status: ('A' for Active; 'I' for Inactive)
REMARK    1  A    between atoms: C_1  and  N_2
REMARK    2  A    between atoms: C_3  and  C_5
REMARK    3  A    between atoms: C_9  and  N_11
REMARK    4  A    between atoms: C_12  and  C_14
REMARK    5  A    between atoms: C_14  and  S_15
REMARK    6  A    between atoms: S_15  and  C_16
REMARK    7  A    between atoms: C_19  and  C_28
REMARK    8  A    between atoms: N_20  and  C_21
REMARK    9  A    between atoms: C_21  and  C_22
REMARK                            x       y       z     vdW  Elec       q    Type
REMARK                         _______ _______ _______ _____ _____    ______ ____
ROOT
ATOM      1  C   UNL     1       1.530  -4.611   0.633  0.00  0.00    +0.192 A 
ATOM      2  N   UNL     1       0.342  -4.325   0.151  0.00  0.00    -0.122 NA
ATOM      3  N   UNL     1       0.222  -3.054  -0.001  0.00  0.00    -0.128 NA
ATOM      4  C   UNL     1       1.326  -2.452   0.375  0.00  0.00    +0.165 A 
ATOM      5  N   UNL     1       2.200  -3.430   0.787  0.00  0.00    -0.300 N 
ENDROOT
BRANCH   4   6
ATOM      6  C   UNL     1       1.584  -0.996   0.352  0.00  0.00    +0.019 A 
ATOM      7  C   UNL     1       2.617  -0.456   1.120  0.00  0.00    +0.014 A 
ATOM      8  C   UNL     1       2.853   0.903   1.095  0.00  0.00    +0.039 A 
ATOM      9  C   UNL     1       2.067   1.731   0.309  0.00  0.00    +0.123 A 
ATOM     10  C   UNL     1       1.040   1.200  -0.455  0.00  0.00    +0.039 A 
ATOM     11  C   UNL     1       0.795  -0.157  -0.437  0.00  0.00    +0.014 A 
ATOM     12  F   UNL     1       2.303   3.061   0.288  0.00  0.00    -0.205 F 
ENDBRANCH   4   6
BRANCH   1  13
ATOM     13  S   UNL     1       2.148  -6.219   1.006  0.00  0.00    -0.077 S 
BRANCH  13  14
ATOM     14  C   UNL     1       0.715  -7.222   0.538  0.00  0.00    +0.173 C 
BRANCH  14  16
ATOM     15  N   UNL     1       0.095  -9.616   0.499  0.00  0.00    -0.285 N 
ATOM     16  C   UNL     1       1.021  -8.678   0.777  0.00  0.00    +0.227 C 
ATOM     17  O   UNL     1       2.102  -9.005   1.221  0.00  0.00    -0.275 OA
ATOM     18  H   UNL     1      -0.856  -9.327   0.026  0.00  0.00    +0.155 HD
BRANCH  15  23
ATOM     19  C   UNL     1       1.866 -12.807   1.014  0.00  0.00    +0.038 A 
ATOM     20  C   UNL     1       0.812 -13.622   1.434  0.00  0.00    +0.013 A 
ATOM     21  C   UNL     1      -0.462 -13.102   1.539  0.00  0.00    +0.003 A 
ATOM     22  C   UNL     1      -0.700 -11.776   1.230  0.00  0.00    +0.023 A 
ATOM     23  C   UNL     1       0.341 -10.957   0.811  0.00  0.00    +0.034 A 
ATOM     24  C   UNL     1       1.624 -11.471   0.697  0.00  0.00    +0.036 A 
BRANCH  19  27
ATOM     25  C   UNL     1       4.816 -15.203   1.091  0.00  0.00    +0.128 C 
ATOM     26  N   UNL     1       3.462 -14.654   1.203  0.00  0.00    -0.314 N 
ATOM     27  C   UNL     1       3.232 -13.361   0.901  0.00  0.00    +0.244 C 
ATOM     28  O   UNL     1       4.148 -12.650   0.536  0.00  0.00    -0.270 OA
ATOM     29  H   UNL     1       2.634 -15.298   1.534  0.00  0.00    +0.149 HD
ENDBRANCH  19  27
ENDBRANCH  15  23
ENDBRANCH  14  16
ENDBRANCH  13  14
ENDBRANCH   1  13
BRANCH   5  30
ATOM     30  C   UNL     1       3.564  -3.245   1.290  0.00  0.00    +0.157 C 
BRANCH  30  31
ATOM     31  C   UNL     1       3.532  -3.104   2.813  0.00  0.00    +0.138 C 
ATOM     32  C   UNL     1       4.949  -2.793   3.340  0.00  0.00    +0.035 C 
ATOM     33  C   UNL     1       5.007  -3.634   4.644  0.00  0.00    +0.031 C 
ATOM     34  C   UNL     1       4.154  -4.863   4.240  0.00  0.00    +0.160 C 
ATOM     35  O   UNL     1       3.109  -4.337   3.406  0.00  0.00    -0.375 OA
ENDBRANCH  30  31
ENDBRANCH   5  30
TORSDOF 8
