REMARK  Name = ZINC63694344
REMARK  6 active torsions:
REMARK  status: ('A' for Active; 'I' for Inactive)
REMARK    1  A    between atoms: C_4  and  C_7
REMARK    2  A    between atoms: C_10  and  C_22
REMARK    3  A    between atoms: N_13  and  C_14
REMARK    4  A    between atoms: N_24  and  C_25
REMARK    5  A    between atoms: C_25  and  C_26
REMARK    6  A    between atoms: C_26  and  C_27
REMARK                            x       y       z     vdW  Elec       q    Type
REMARK                         _______ _______ _______ _____ _____    ______ ____
ROOT
ATOM      1  C   UNL     1       3.711  -0.707  -0.038  0.00  0.00    +0.105 C 
ATOM      2  C   UNL     1       4.008  -1.233  -1.456  0.00  0.00    +0.054 C 
ATOM      3  C   UNL     1       4.112  -2.766  -1.287  0.00  0.00    +0.157 C 
ATOM      4  N   UNL     1       4.441  -2.934   0.153  0.00  0.00    -0.241 NA
ATOM      5  N   UNL     1       3.638  -1.905   0.830  0.00  0.00    -0.230 NA
ATOM      6  H   UNL     1       4.192  -3.857   0.476  0.00  0.00    +0.142 HD
ENDROOT
BRANCH   5   7
ATOM      7  C   UNL     1       4.169  -1.618   2.170  0.00  0.00    +0.096 C 
ATOM      8  C   UNL     1       5.648  -1.212   2.066  0.00  0.00    +0.044 C 
ATOM      9  C   UNL     1       6.297  -1.220   3.471  0.00  0.00    +0.167 C 
ATOM     10  S   UNL     1       5.302  -2.480   4.369  0.00  0.00    -0.029 S 
ATOM     11  O   UNL     1       4.627  -1.852   5.450  0.00  0.00    -0.174 OA
ATOM     12  O   UNL     1       6.115  -3.619   4.618  0.00  0.00    -0.174 OA
ATOM     13  C   UNL     1       4.077  -2.893   3.055  0.00  0.00    +0.186 C 
ENDBRANCH   5   7
BRANCH   1  17
ATOM     14  C   UNL     1      -0.017   1.378   0.010  0.00  0.00    +0.000 A 
ATOM     15  C   UNL     1       1.171   2.086   0.002  0.00  0.00    +0.000 A 
ATOM     16  C   UNL     1       2.377   1.411  -0.013  0.00  0.00    +0.005 A 
ATOM     17  C   UNL     1       2.396   0.029  -0.020  0.00  0.00    -0.029 A 
ATOM     18  C   UNL     1       1.208  -0.679  -0.012  0.00  0.00    +0.005 A 
ATOM     19  C   UNL     1       0.002  -0.004   0.002  0.00  0.00    +0.000 A 
ENDBRANCH   1  17
BRANCH   3  20
ATOM     20  C   UNL     1       5.212  -3.322  -2.154  0.00  0.00    +0.231 C 
ATOM     21  O   UNL     1       6.293  -3.583  -1.669  0.00  0.00    -0.274 OA
ATOM     22  N   UNL     1       4.995  -3.530  -3.468  0.00  0.00    -0.314 N 
ATOM     23  H   UNL     1       4.130  -3.322  -3.855  0.00  0.00    +0.149 HD
BRANCH  22  24
ATOM     24  C   UNL     1       6.064  -4.071  -4.310  0.00  0.00    +0.108 C 
BRANCH  24  25
ATOM     25  C   UNL     1       5.560  -4.209  -5.748  0.00  0.00    +0.065 C 
BRANCH  25  26
ATOM     26  C   UNL     1       6.677  -4.774  -6.628  0.00  0.00    +0.175 C 
ATOM     27  N   UNL     1       7.809  -3.840  -6.667  0.00  0.00    -0.363 N 
ATOM     28  C   UNL     1       7.977  -3.481  -7.907  0.00  0.00    +0.060 A 
ATOM     29  C   UNL     1       8.934  -2.580  -8.565  0.00  0.00    +0.027 A 
ATOM     30  C   UNL     1       8.866  -2.398  -9.899  0.00  0.00    +0.002 A 
ATOM     31  C   UNL     1       7.907  -3.039 -10.704  0.00  0.00    +0.002 A 
ATOM     32  C   UNL     1       6.984  -3.884 -10.202  0.00  0.00    +0.027 A 
ATOM     33  C   UNL     1       6.963  -4.160  -8.759  0.00  0.00    +0.060 A 
ATOM     34  N   UNL     1       6.207  -4.912  -8.013  0.00  0.00    -0.363 N 
ATOM     35  H   UNL     1       8.335  -3.544  -5.908  0.00  0.00    +0.162 HD
ATOM     36  H   UNL     1       5.468  -5.463  -8.316  0.00  0.00    +0.162 HD
ENDBRANCH  25  26
ENDBRANCH  24  25
ENDBRANCH  22  24
ENDBRANCH   3  20
TORSDOF 6
