REMARK  Name = ZINC63513879
REMARK  9 active torsions:
REMARK  status: ('A' for Active; 'I' for Inactive)
REMARK    1  A    between atoms: C_1  and  C_2
REMARK    2  A    between atoms: C_6  and  C_38
REMARK    3  A    between atoms: C_7  and  N_8
REMARK    4  A    between atoms: C_9  and  C_11
REMARK    5  A    between atoms: C_11  and  N_17
REMARK    6  A    between atoms: N_17  and  C_18
REMARK    7  A    between atoms: C_18  and  C_19
REMARK    8  A    between atoms: C_19  and  C_20
REMARK    9  A    between atoms: C_29  and  C_31
REMARK                            x       y       z     vdW  Elec       q    Type
REMARK                         _______ _______ _______ _____ _____    ______ ____
ROOT
ATOM      1  N   UNL     1       0.692   1.155   4.074  0.00  0.00    -0.283 N 
ATOM      2  C   UNL     1       0.306   2.244   3.380  0.00  0.00    +0.249 C 
ATOM      3  O   UNL     1       1.051   3.200   3.285  0.00  0.00    -0.270 OA
ENDROOT
BRANCH   2   4
ATOM      4  C   UNL     1      -1.023   2.276   2.735  0.00  0.00    +0.055 A 
ATOM      5  C   UNL     1      -2.010   1.366   3.117  0.00  0.00    +0.014 A 
ATOM      6  C   UNL     1      -3.249   1.401   2.511  0.00  0.00    +0.001 A 
ATOM      7  C   UNL     1      -3.515   2.337   1.526  0.00  0.00    +0.001 A 
ATOM      8  C   UNL     1      -2.543   3.242   1.142  0.00  0.00    +0.021 A 
ATOM      9  C   UNL     1      -1.300   3.222   1.744  0.00  0.00    +0.053 A 
ATOM     10 CL   UNL     1      -0.083   4.364   1.267  0.00  0.00    -0.083 Cl
ENDBRANCH   2   4
BRANCH   1  11
ATOM     11  C   UNL     1      -0.102   0.694   5.214  0.00  0.00    +0.114 C 
ATOM     12  C   UNL     1      -1.240   1.683   5.477  0.00  0.00    +0.035 C 
ATOM     13  C   UNL     1      -0.655   3.062   5.788  0.00  0.00    +0.003 C 
ATOM     14  C   UNL     1       0.238   2.970   7.027  0.00  0.00    +0.000 C 
ATOM     15  C   UNL     1       1.375   1.981   6.764  0.00  0.00    +0.003 C 
ATOM     16  C   UNL     1       0.790   0.602   6.454  0.00  0.00    +0.035 C 
BRANCH  11  18
ATOM     17  N   UNL     1      -1.047  -0.973   3.649  0.00  0.00    -0.283 N 
ATOM     18  C   UNL     1      -0.678  -0.665   4.909  0.00  0.00    +0.241 C 
ATOM     19  O   UNL     1      -0.810  -1.481   5.796  0.00  0.00    -0.273 OA
ATOM     20  H   UNL     1      -0.889  -0.341   2.930  0.00  0.00    +0.155 HD
BRANCH  17  27
ATOM     21  C   UNL     1       0.158  -2.674   1.712  0.00  0.00    +0.045 C 
ATOM     22  C   UNL     1      -1.102  -3.064   2.442  0.00  0.00    -0.029 A 
ATOM     23  C   UNL     1      -1.703  -4.280   2.182  0.00  0.00    +0.005 A 
ATOM     24  C   UNL     1      -2.859  -4.638   2.851  0.00  0.00    +0.001 A 
ATOM     25  C   UNL     1      -3.417  -3.781   3.781  0.00  0.00    +0.005 A 
ATOM     26  C   UNL     1      -2.821  -2.563   4.045  0.00  0.00    -0.029 A 
ATOM     27  C   UNL     1      -1.657  -2.203   3.380  0.00  0.00    +0.039 A 
ATOM     28  C   UNL     1      -3.430  -1.629   5.059  0.00  0.00    +0.045 C 
ENDBRANCH  17  27
ENDBRANCH  11  18
ENDBRANCH   1  11
BRANCH   1  29
ATOM     29  C   UNL     1       1.907   0.433   3.687  0.00  0.00    +0.113 C 
BRANCH  29  30
ATOM     30  C   UNL     1       1.586  -0.527   2.539  0.00  0.00    +0.052 C 
BRANCH  30  31
ATOM     31  C   UNL     1       2.835  -1.270   2.141  0.00  0.00    -0.040 C 
ATOM     32  C   UNL     1       3.225  -2.493   2.569  0.00  0.00    -0.001 A 
ATOM     33  C   UNL     1       2.626  -3.459   3.497  0.00  0.00    +0.010 A 
ATOM     34  C   UNL     1       3.267  -4.627   3.732  0.00  0.00    +0.001 A 
ATOM     35  C   UNL     1       4.486  -4.936   3.112  0.00  0.00    +0.002 A 
ATOM     36  C   UNL     1       5.097  -4.100   2.248  0.00  0.00    +0.026 A 
ATOM     37  C   UNL     1       4.512  -2.844   1.927  0.00  0.00    +0.043 A 
ATOM     38  N   UNL     1       4.903  -1.875   1.134  0.00  0.00    -0.380 N 
ATOM     39  C   UNL     1       3.903  -0.802   1.178  0.00  0.00    +0.144 C 
ATOM     40  H   UNL     1       5.715  -1.871   0.604  0.00  0.00    +0.160 HD
ENDBRANCH  30  31
ENDBRANCH  29  30
ENDBRANCH   1  29
TORSDOF 7
