REMARK  Name = ZINC06172031
REMARK  9 active torsions:
REMARK  status: ('A' for Active; 'I' for Inactive)
REMARK    1  A    between atoms: C_1  and  C_2
REMARK    2  A    between atoms: C_7  and  N_8
REMARK    3  A    between atoms: N_8  and  C_9
REMARK    4  A    between atoms: N_8  and  S_26
REMARK    5  A    between atoms: C_9  and  C_10
REMARK    6  A    between atoms: C_13  and  C_16
REMARK    7  A    between atoms: N_18  and  N_19
REMARK    8  A    between atoms: C_25  and  N_65
REMARK    9  A    between atoms: S_26  and  C_29
REMARK                            x       y       z     vdW  Elec       q    Type
REMARK                         _______ _______ _______ _____ _____    ______ ____
ROOT
ATOM      1  C   UNL     1       1.313  -2.326   0.023  0.00  0.00    +0.166 C 
ENDROOT
BRANCH   1   2
ATOM      2  C   UNL     1       1.195  -0.829   0.144  0.00  0.00    -0.028 A 
ATOM      3  C   UNL     1      -0.055  -0.238   0.197  0.00  0.00    +0.006 A 
ATOM      4  C   UNL     1      -0.171   1.132   0.308  0.00  0.00    +0.013 A 
ATOM      5  C   UNL     1       0.978   1.923   0.367  0.00  0.00    +0.038 A 
ATOM      6  C   UNL     1       2.236   1.321   0.313  0.00  0.00    +0.013 A 
ATOM      7  C   UNL     1       2.337  -0.050   0.202  0.00  0.00    +0.006 A 
BRANCH   5   8
ATOM      8  C   UNL     1       0.862   3.392   0.486  0.00  0.00    +0.263 C 
ATOM      9  O   UNL     1      -0.236   3.913   0.532  0.00  0.00    -0.268 OA
ATOM     10  N   UNL     1       1.972   4.153   0.543  0.00  0.00    -0.203 N 
ATOM     11  H   UNL     1       2.848   3.737   0.505  0.00  0.00    +0.178 HD
BRANCH  10  12
ATOM     12  N   UNL     1       1.862   5.545   0.655  0.00  0.00    -0.189 NA
ATOM     13  C   UNL     1       2.914   6.261   0.802  0.00  0.00    +0.033 C 
ATOM     14  C   UNL     1       4.295   5.645   0.729  0.00  0.00    +0.034 C 
ATOM     15  C   UNL     1       5.146   6.497  -0.227  0.00  0.00    -0.073 C 
ATOM     16  C   UNL     1       3.762   8.467   0.089  0.00  0.00    -0.073 C 
ATOM     17  C   UNL     1       2.817   7.750   1.060  0.00  0.00    +0.034 C 
ATOM     18  C   UNL     1       6.090   8.706  -0.529  0.00  0.00    -0.096 C 
ATOM     19  N   UNL     1       5.120   7.901   0.241  0.00  0.00    +0.378 N 
ATOM     20  H   UNL     1       5.381   7.925   1.234  0.00  0.00    -0.082 HD
ENDBRANCH  10  12
ENDBRANCH   5   8
ENDBRANCH   1   2
BRANCH   1  21
ATOM     21  N   UNL     1       1.346  -2.701  -1.393  0.00  0.00    -0.198 N 
BRANCH  21  28
ATOM     22  C   UNL     1       0.385  -0.526  -2.955  0.00  0.00    +0.046 C 
ATOM     23  C   UNL     1      -0.353  -1.837  -2.873  0.00  0.00    -0.028 A 
ATOM     24  C   UNL     1      -1.534  -2.010  -3.569  0.00  0.00    +0.006 A 
ATOM     25  C   UNL     1      -2.213  -3.212  -3.495  0.00  0.00    +0.020 A 
ATOM     26  C   UNL     1      -1.712  -4.246  -2.724  0.00  0.00    +0.043 A 
ATOM     27  C   UNL     1      -0.529  -4.081  -2.028  0.00  0.00    +0.045 A 
ATOM     28  C   UNL     1       0.152  -2.873  -2.097  0.00  0.00    +0.056 A 
ATOM     29 CL   UNL     1      -2.567  -5.754  -2.634  0.00  0.00    -0.083 Cl
ENDBRANCH  21  28
BRANCH  21  30
ATOM     30  S   UNL     1       2.798  -2.921  -2.158  0.00  0.00    +0.075 S 
ATOM     31  O   UNL     1       2.588  -2.600  -3.527  0.00  0.00    -0.150 OA
ATOM     32  O   UNL     1       3.778  -2.267  -1.364  0.00  0.00    -0.150 OA
BRANCH  30  33
ATOM     33  C   UNL     1       3.165  -4.643  -2.095  0.00  0.00    +0.109 A 
ATOM     34  C   UNL     1       3.794  -5.175  -0.985  0.00  0.00    +0.029 A 
ATOM     35  C   UNL     1       4.077  -6.527  -0.932  0.00  0.00    +0.002 A 
ATOM     36  C   UNL     1       3.741  -7.345  -1.995  0.00  0.00    +0.000 A 
ATOM     37  C   UNL     1       3.117  -6.812  -3.107  0.00  0.00    +0.002 A 
ATOM     38  C   UNL     1       2.829  -5.461  -3.157  0.00  0.00    +0.029 A 
ENDBRANCH  30  33
ENDBRANCH  21  30
ENDBRANCH   1  21
TORSDOF 7
