REMARK  Name = ZINC49059407
REMARK  5 active torsions:
REMARK  status: ('A' for Active; 'I' for Inactive)
REMARK    1  A    between atoms: C_1  and  C_2
REMARK    2  A    between atoms: C_2  and  C_3
REMARK    3  A    between atoms: C_2  and  N_13
REMARK    4  A    between atoms: C_14  and  C_16
REMARK    5  A    between atoms: N_18  and  C_19
REMARK                            x       y       z     vdW  Elec       q    Type
REMARK                         _______ _______ _______ _____ _____    ______ ____
ROOT
ATOM      1  N   UNL     1       0.711  -0.485   1.190  0.00  0.00    -0.298 N 
ATOM      2  C   UNL     1       0.052  -0.627   2.357  0.00  0.00    +0.300 C 
ATOM      3  O   UNL     1      -1.126  -0.346   2.427  0.00  0.00    -0.265 OA
ATOM      4  H   UNL     1       1.653  -0.710   1.134  0.00  0.00    +0.150 HD
ENDROOT
BRANCH   2   5
ATOM      5  C   UNL     1       0.773  -1.130   3.565  0.00  0.00    +0.303 C 
ATOM      6  O   UNL     1       1.952  -1.411   3.495  0.00  0.00    -0.265 OA
ATOM      7  N   UNL     1       0.114  -1.272   4.732  0.00  0.00    -0.278 N 
ATOM      8  H   UNL     1      -0.810  -0.985   4.806  0.00  0.00    +0.155 HD
BRANCH   7   9
ATOM      9  C   UNL     1       0.762  -1.833   5.837  0.00  0.00    +0.038 A 
ATOM     10  C   UNL     1       0.056  -2.638   6.722  0.00  0.00    +0.027 A 
ATOM     11  C   UNL     1       0.695  -3.192   7.814  0.00  0.00    +0.051 A 
ATOM     12  C   UNL     1       2.042  -2.948   8.030  0.00  0.00    +0.173 A 
ATOM     13  C   UNL     1       2.753  -2.142   7.144  0.00  0.00    +0.174 A 
ATOM     14  C   UNL     1       2.114  -1.591   6.046  0.00  0.00    +0.073 A 
ATOM     15  O   UNL     1       4.046  -2.058   7.573  0.00  0.00    -0.395 OA
ATOM     16  C   UNL     1       4.024  -2.483   8.948  0.00  0.00    +0.589 C 
ATOM     17  O   UNL     1       2.890  -3.368   9.014  0.00  0.00    -0.395 OA
ATOM     18  F   UNL     1       5.201  -3.167   9.271  0.00  0.00    -0.125 F 
ATOM     19  F   UNL     1       3.841  -1.387   9.799  0.00  0.00    -0.125 F 
ENDBRANCH   7   9
ENDBRANCH   2   5
BRANCH   1  21
ATOM     20  C   UNL     1      -0.005   1.538   0.018  0.00  0.00    +0.036 C 
ATOM     21  C   UNL     1       0.004   0.008   0.005  0.00  0.00    +0.136 C 
BRANCH  21  22
ATOM     22  C   UNL     1       0.705  -0.480  -1.237  0.00  0.00    +0.128 A 
ATOM     23  N   UNL     1       0.115  -0.637  -2.453  0.00  0.00    -0.340 N 
ATOM     24  H   UNL     1      -0.813  -0.457  -2.669  0.00  0.00    +0.167 HD
ATOM     25  C   UNL     1       1.083  -1.099  -3.322  0.00  0.00    +0.066 A 
ATOM     26  C   UNL     1       1.091  -1.439  -4.668  0.00  0.00    +0.028 A 
ATOM     27  C   UNL     1       2.259  -1.880  -5.253  0.00  0.00    +0.002 A 
ATOM     28  C   UNL     1       3.424  -1.986  -4.507  0.00  0.00    +0.002 A 
ATOM     29  C   UNL     1       3.435  -1.656  -3.181  0.00  0.00    +0.030 A 
ATOM     30  C   UNL     1       2.263  -1.206  -2.566  0.00  0.00    +0.089 A 
ATOM     31  N   UNL     1       1.962  -0.807  -1.304  0.00  0.00    -0.231 NA
ENDBRANCH  21  22
ENDBRANCH   1  21
TORSDOF 4
