REMARK  Name = ZINC13032913
REMARK  10 active torsions:
REMARK  status: ('A' for Active; 'I' for Inactive)
REMARK    1  A    between atoms: C_1  and  C_2
REMARK    2  A    between atoms: C_4  and  C_35
REMARK    3  A    between atoms: C_7  and  C_14
REMARK    4  A    between atoms: C_14  and  N_60
REMARK    5  A    between atoms: C_15  and  C_16
REMARK    6  A    between atoms: C_15  and  N_60
REMARK    7  A    between atoms: C_23  and  C_24
REMARK    8  A    between atoms: C_23  and  N_60
REMARK    9  A    between atoms: N_28  and  C_29
REMARK   10  A    between atoms: C_29  and  C_30
REMARK                            x       y       z     vdW  Elec       q    Type
REMARK                         _______ _______ _______ _____ _____    ______ ____
ROOT
ATOM      1  N   UNL     1       5.621   4.132  -1.879  0.00  0.00    +0.390 N 
ATOM      2  H   UNL     1       5.460   3.307  -2.469  0.00  0.00    -0.080 HD
ENDROOT
BRANCH   1   3
ATOM      3  C   UNL     1       5.325   3.784  -0.474  0.00  0.00    -0.036 C 
BRANCH   3  10
ATOM      4  C   UNL     1      -1.463  -0.394  -0.184  0.00  0.00    +0.044 C 
ATOM      5  C   UNL     1      -0.075   0.188  -0.255  0.00  0.00    -0.048 A 
ATOM      6  C   UNL     1       1.020  -0.659  -0.366  0.00  0.00    +0.007 A 
ATOM      7  C   UNL     1       2.287  -0.152  -0.432  0.00  0.00    -0.041 A 
ATOM      8  C   UNL     1       2.483   1.232  -0.386  0.00  0.00    +0.002 A 
ATOM      9  C   UNL     1       3.827   1.809  -0.454  0.00  0.00    +0.017 A 
ATOM     10  C   UNL     1       3.956   3.158  -0.405  0.00  0.00    +0.001 A 
ATOM     11  C   UNL     1       2.813   3.978  -0.291  0.00  0.00    +0.251 A 
ATOM     12  O   UNL     1       2.952   5.188  -0.249  0.00  0.00    -0.268 OA
ATOM     13  N   UNL     1       1.575   3.457  -0.228  0.00  0.00    -0.322 N 
ATOM     14  H   UNL     1       0.811   4.049  -0.149  0.00  0.00    +0.169 HD
ATOM     15  C   UNL     1       1.376   2.094  -0.272  0.00  0.00    +0.050 A 
ATOM     16  C   UNL     1       0.095   1.555  -0.207  0.00  0.00    +0.029 A 
ATOM     17  C   UNL     1       3.468  -1.081  -0.552  0.00  0.00    +0.044 C 
ENDBRANCH   3  10
ENDBRANCH   1   3
BRANCH   1  18
ATOM     18  C   UNL     1       4.729   5.223  -2.327  0.00  0.00    -0.042 C 
BRANCH  18  19
ATOM     19  C   UNL     1       4.936   5.446  -3.803  0.00  0.00    -0.064 A 
ATOM     20  C   UNL     1       5.776   6.454  -4.238  0.00  0.00    +0.004 A 
ATOM     21  C   UNL     1       5.971   6.657  -5.591  0.00  0.00    +0.038 A 
ATOM     22  C   UNL     1       5.316   5.856  -6.512  0.00  0.00    +0.123 A 
ATOM     23  C   UNL     1       4.471   4.850  -6.075  0.00  0.00    +0.038 A 
ATOM     24  C   UNL     1       4.282   4.646  -4.721  0.00  0.00    +0.004 A 
ATOM     25  F   UNL     1       5.501   6.056  -7.835  0.00  0.00    -0.205 F 
ENDBRANCH  18  19
ENDBRANCH   1  18
BRANCH   1  26
ATOM     26  C   UNL     1       7.033   4.548  -2.011  0.00  0.00    +0.001 C 
BRANCH  26  27
ATOM     27  C   UNL     1       7.911   3.331  -1.876  0.00  0.00    +0.136 A 
ATOM     28  N   UNL     1       8.504   2.911  -0.785  0.00  0.00    -0.115 NA
ATOM     29  N   UNL     1       9.160   1.840  -1.075  0.00  0.00    -0.023 NA
ATOM     30  N   UNL     1       9.006   1.571  -2.325  0.00  0.00    -0.044 NA
ATOM     31  N   UNL     1       8.243   2.467  -2.853  0.00  0.00    -0.224 N 
BRANCH  31  32
ATOM     32  C   UNL     1       7.817   2.531  -4.253  0.00  0.00    +0.221 C 
BRANCH  32  33
ATOM     33  C   UNL     1       8.877   3.224  -5.069  0.00  0.00    +0.126 A 
ATOM     34  C   UNL     1       9.914   2.626  -5.682  0.00  0.00    +0.046 A 
ATOM     35  C   UNL     1      10.650   3.645  -6.330  0.00  0.00    +0.041 A 
ATOM     36  C   UNL     1      10.023   4.806  -6.068  0.00  0.00    +0.195 A 
ATOM     37  O   UNL     1       8.950   4.545  -5.304  0.00  0.00    -0.466 OA
ENDBRANCH  32  33
ENDBRANCH  31  32
ENDBRANCH  26  27
ENDBRANCH   1  26
TORSDOF 8
