REMARK  Name = ZINC40303974
REMARK  5 active torsions:
REMARK  status: ('A' for Active; 'I' for Inactive)
REMARK    1  A    between atoms: C_1  and  C_2
REMARK    2  A    between atoms: C_6  and  C_10
REMARK    3  A    between atoms: C_11  and  C_13
REMARK    4  A    between atoms: C_15  and  N_20
REMARK    5  A    between atoms: C_17  and  N_19
REMARK                            x       y       z     vdW  Elec       q    Type
REMARK                         _______ _______ _______ _____ _____    ______ ____
ROOT
ATOM      1  C   UNL     1      -0.383  -2.250  -3.271  0.00  0.00    +0.040 A 
ATOM      2  C   UNL     1      -0.574  -0.874  -3.398  0.00  0.00    +0.036 A 
ATOM      3  C   UNL     1      -1.291  -0.371  -4.474  0.00  0.00    +0.027 A 
ATOM      4  C   UNL     1      -1.818  -1.235  -5.424  0.00  0.00    +0.045 A 
ATOM      5  C   UNL     1      -1.631  -2.606  -5.301  0.00  0.00    +0.027 A 
ATOM      6  C   UNL     1      -0.910  -3.115  -4.230  0.00  0.00    +0.036 A 
ENDROOT
BRANCH   1  15
ATOM      7  C   UNL     1      -2.035   0.249   0.774  0.00  0.00    +0.039 C 
ATOM      8  C   UNL     1      -1.383  -1.096   0.448  0.00  0.00    +0.133 C 
ATOM      9  C   UNL     1      -0.440  -0.931  -0.750  0.00  0.00    +0.139 C 
ATOM     10  N   UNL     1       0.312  -2.184  -0.924  0.00  0.00    -0.290 N 
ATOM     11  C   UNL     1       0.986  -2.756   0.252  0.00  0.00    +0.099 C 
ATOM     12  C   UNL     1      -0.026  -2.831   1.401  0.00  0.00    +0.182 C 
ATOM     13  O   UNL     1      -0.635  -1.550   1.578  0.00  0.00    -0.373 OA
ATOM     14  C   UNL     1       1.498  -4.159  -0.079  0.00  0.00    +0.030 C 
ATOM     15  C   UNL     1       0.381  -2.790  -2.126  0.00  0.00    +0.247 C 
ATOM     16  O   UNL     1       1.071  -3.780  -2.269  0.00  0.00    -0.270 OA
ENDBRANCH   1  15
BRANCH   5  17
ATOM     17  N   UNL     1      -2.164  -3.471  -6.259  0.00  0.00    -0.358 N 
ATOM     18  H   UNL     1      -2.664  -3.115  -7.009  0.00  0.00    +0.142 HD
ATOM     19  H   UNL     1      -2.033  -4.429  -6.173  0.00  0.00    +0.142 HD
ENDBRANCH   5  17
BRANCH   3  20
ATOM     20  N   UNL     1      -1.483   1.007  -4.601  0.00  0.00    -0.358 N 
ATOM     21  H   UNL     1      -1.115   1.611  -3.937  0.00  0.00    +0.142 HD
ATOM     22  H   UNL     1      -1.984   1.360  -5.353  0.00  0.00    +0.142 HD
ENDBRANCH   3  20
TORSDOF 3
