REMARK  Name = ZINC14983053
REMARK  10 active torsions:
REMARK  status: ('A' for Active; 'I' for Inactive)
REMARK    1  A    between atoms: C_1  and  C_2
REMARK    2  A    between atoms: C_4  and  C_36
REMARK    3  A    between atoms: C_5  and  C_9
REMARK    4  A    between atoms: C_7  and  C_8
REMARK    5  A    between atoms: C_9  and  N_73
REMARK    6  A    between atoms: C_12  and  C_15
REMARK    7  A    between atoms: C_15  and  C_29
REMARK    8  A    between atoms: N_18  and  C_22
REMARK    9  A    between atoms: C_22  and  C_23
REMARK   10  A    between atoms: C_29  and  C_30
REMARK                            x       y       z     vdW  Elec       q    Type
REMARK                         _______ _______ _______ _____ _____    ______ ____
ROOT
ATOM      1  C   UNL     1      -0.731   1.581   1.265  0.00  0.00    +0.119 C 
ATOM      2  C   UNL     1       0.047   1.200   2.509  0.00  0.00    +0.247 C 
ATOM      3  O   UNL     1       0.315   0.081   2.891  0.00  0.00    -0.273 OA
ATOM      4  N   UNL     1       0.378   2.364   3.102  0.00  0.00    -0.220 N 
ATOM      5  C   UNL     1      -0.079   3.416   2.413  0.00  0.00    +0.310 C 
ATOM      6  O   UNL     1       0.095   4.571   2.750  0.00  0.00    -0.252 OA
ATOM      7  N   UNL     1      -0.750   3.053   1.305  0.00  0.00    -0.284 N 
ATOM      8  H   UNL     1      -1.167   3.645   0.660  0.00  0.00    +0.151 HD
ENDROOT
BRANCH   1  11
ATOM      9  C   UNL     1       2.118   1.169  -1.290  0.00  0.00    -0.078 C 
ATOM     10  C   UNL     1       1.423   1.617  -0.003  0.00  0.00    -0.013 C 
ATOM     11  C   UNL     1      -0.013   1.086   0.008  0.00  0.00    +0.018 C 
ATOM     12  C   UNL     1      -0.746   1.595  -1.236  0.00  0.00    -0.013 C 
ATOM     13  C   UNL     1       0.012   1.147  -2.488  0.00  0.00    -0.078 C 
ATOM     14  N   UNL     1       1.378   1.711  -2.449  0.00  0.00    +0.382 N 
ATOM     15  H   UNL     1       1.314   2.731  -2.356  0.00  0.00    -0.081 HD
BRANCH  14  16
ATOM     16  C   UNL     1       2.093   1.387  -3.701  0.00  0.00    -0.043 C 
BRANCH  16  21
ATOM     17  C   UNL     1      -0.405   4.242  -8.060  0.00  0.00    +0.044 C 
ATOM     18  C   UNL     1       0.246   3.498  -6.924  0.00  0.00    -0.047 A 
ATOM     19  C   UNL     1       1.121   4.155  -6.078  0.00  0.00    +0.007 A 
ATOM     20  C   UNL     1       1.714   3.473  -5.032  0.00  0.00    -0.049 A 
ATOM     21  C   UNL     1       1.442   2.132  -4.838  0.00  0.00    -0.061 A 
ATOM     22  C   UNL     1       0.568   1.475  -5.684  0.00  0.00    +0.005 A 
ATOM     23  C   UNL     1      -0.030   2.158  -6.727  0.00  0.00    -0.047 A 
ATOM     24  C   UNL     1      -0.983   1.442  -7.648  0.00  0.00    +0.044 C 
ATOM     25  C   UNL     1       2.662   4.191  -4.106  0.00  0.00    +0.044 C 
ENDBRANCH  16  21
ENDBRANCH  14  16
ENDBRANCH   1  11
BRANCH   4  26
ATOM     26  C   UNL     1       1.143   2.465   4.347  0.00  0.00    +0.154 C 
BRANCH  26  27
ATOM     27  C   UNL     1       0.197   2.463   5.520  0.00  0.00    -0.011 A 
ATOM     28  C   UNL     1      -0.175   1.270   6.120  0.00  0.00    +0.008 A 
ATOM     29  C   UNL     1      -1.048   1.316   7.197  0.00  0.00    +0.020 A 
ATOM     30  C   UNL     1      -1.515   2.542   7.632  0.00  0.00    +0.111 A 
ATOM     31  N   UNL     1      -1.140   3.657   7.037  0.00  0.00    -0.263 NA
ATOM     32  C   UNL     1      -0.307   3.651   6.014  0.00  0.00    +0.116 A 
ENDBRANCH  26  27
ENDBRANCH   4  26
BRANCH   1  33
ATOM     33  C   UNL     1      -2.155   1.022   1.324  0.00  0.00    +0.070 C 
BRANCH  33  34
ATOM     34  C   UNL     1      -2.880   1.619   2.502  0.00  0.00    -0.045 A 
ATOM     35  C   UNL     1      -2.836   0.991   3.733  0.00  0.00    +0.004 A 
ATOM     36  C   UNL     1      -3.498   1.541   4.814  0.00  0.00    +0.000 A 
ATOM     37  C   UNL     1      -4.211   2.715   4.663  0.00  0.00    +0.000 A 
ATOM     38  C   UNL     1      -4.260   3.341   3.432  0.00  0.00    +0.000 A 
ATOM     39  C   UNL     1      -3.595   2.793   2.351  0.00  0.00    +0.004 A 
ENDBRANCH  33  34
ENDBRANCH   1  33
TORSDOF 7
