REMARK  Name = ZINC64462541
REMARK  5 active torsions:
REMARK  status: ('A' for Active; 'I' for Inactive)
REMARK    1  A    between atoms: C_10  and  C_15
REMARK    2  A    between atoms: N_17  and  C_18
REMARK    3  A    between atoms: C_22  and  C_24
REMARK    4  A    between atoms: C_24  and  C_25
REMARK    5  A    between atoms: C_25  and  C_26
REMARK                            x       y       z     vdW  Elec       q    Type
REMARK                         _______ _______ _______ _____ _____    ______ ____
ROOT
ATOM      1  C   UNL     1       4.084  -7.444  -0.997  0.00  0.00    +0.034 A 
ATOM      2  C   UNL     1       5.390  -7.282  -0.552  0.00  0.00    +0.023 A 
ATOM      3  C   UNL     1       6.314  -8.289  -0.747  0.00  0.00    +0.002 A 
ATOM      4  C   UNL     1       5.941  -9.458  -1.385  0.00  0.00    +0.004 A 
ATOM      5  C   UNL     1       4.642  -9.623  -1.829  0.00  0.00    -0.045 A 
ATOM      6  C   UNL     1       3.711  -8.621  -1.631  0.00  0.00    +0.027 A 
ENDROOT
BRANCH   1   9
ATOM      7  C   UNL     1       3.528  -5.135  -0.873  0.00  0.00    +0.265 C 
ATOM      8  O   UNL     1       4.702  -4.855  -1.024  0.00  0.00    -0.268 OA
ATOM      9  N   UNL     1       3.146  -6.426  -0.802  0.00  0.00    -0.280 N 
ATOM     10  H   UNL     1       2.221  -6.648  -0.615  0.00  0.00    +0.155 HD
BRANCH   7  20
ATOM     11  C   UNL     1      -0.278   1.274  -1.511  0.00  0.00    +0.001 A 
ATOM     12  C   UNL     1       0.750   1.897  -2.203  0.00  0.00    +0.004 A 
ATOM     13  C   UNL     1       1.940   1.242  -2.450  0.00  0.00    +0.046 A 
ATOM     14  C   UNL     1       2.126  -0.059  -2.008  0.00  0.00    +0.129 A 
ATOM     15  C   UNL     1       1.069  -0.695  -1.315  0.00  0.00    +0.040 A 
ATOM     16  C   UNL     1      -0.123  -0.022  -1.065  0.00  0.00    +0.013 A 
ATOM     17  C   UNL     1       1.314  -2.071  -0.910  0.00  0.00    +0.086 C 
ATOM     18  N   UNL     1       0.584  -3.092  -0.614  0.00  0.00    -0.152 NA
ATOM     19  N   UNL     1       1.231  -4.200  -0.606  0.00  0.00    -0.148 NA
ATOM     20  C   UNL     1       2.528  -4.069  -0.770  0.00  0.00    +0.137 C 
ATOM     21  C   UNL     1       2.762  -2.579  -0.827  0.00  0.00    +0.133 C 
ATOM     22  C   UNL     1       3.406  -2.119  -2.136  0.00  0.00    +0.245 C 
ATOM     23  O   UNL     1       3.297  -0.696  -2.231  0.00  0.00    -0.490 OA
ENDBRANCH   7  20
ENDBRANCH   1   9
BRANCH   5  24
ATOM     24  C   UNL     1       4.239 -10.898  -2.523  0.00  0.00    +0.039 C 
BRANCH  24  25
ATOM     25  C   UNL     1       3.742 -11.908  -1.486  0.00  0.00    +0.051 C 
BRANCH  25  26
ATOM     26  C   UNL     1       3.333 -13.203  -2.191  0.00  0.00    +0.174 C 
ATOM     27  N   UNL     1       4.518 -13.872  -2.743  0.00  0.00    -0.363 N 
ATOM     28  C   UNL     1       4.607 -15.040  -2.175  0.00  0.00    +0.060 A 
ATOM     29  C   UNL     1       5.564 -16.147  -2.312  0.00  0.00    +0.027 A 
ATOM     30  C   UNL     1       5.399 -17.264  -1.576  0.00  0.00    +0.002 A 
ATOM     31  C   UNL     1       4.337 -17.423  -0.668  0.00  0.00    +0.002 A 
ATOM     32  C   UNL     1       3.405 -16.470  -0.466  0.00  0.00    +0.027 A 
ATOM     33  C   UNL     1       3.483 -15.208  -1.214  0.00  0.00    +0.060 A 
ATOM     34  N   UNL     1       2.743 -14.138  -1.225  0.00  0.00    -0.363 N 
ATOM     35  H   UNL     1       5.123 -13.510  -3.409  0.00  0.00    +0.162 HD
ATOM     36  H   UNL     1       1.947 -13.986  -0.692  0.00  0.00    +0.162 HD
ENDBRANCH  25  26
ENDBRANCH  24  25
ENDBRANCH   5  24
TORSDOF 5
