REMARK  Name = ZINC30868053
REMARK  10 active torsions:
REMARK  status: ('A' for Active; 'I' for Inactive)
REMARK    1  A    between atoms: C_1  and  C_2
REMARK    2  A    between atoms: C_6  and  O_9
REMARK    3  A    between atoms: C_7  and  C_8
REMARK    4  A    between atoms: O_9  and  C_10
REMARK    5  A    between atoms: C_10  and  C_12
REMARK    6  A    between atoms: C_10  and  C_13
REMARK    7  A    between atoms: N_15  and  C_16
REMARK    8  A    between atoms: C_19  and  S_22
REMARK    9  A    between atoms: S_22  and  N_25
REMARK   10  A    between atoms: N_25  and  C_26
REMARK                            x       y       z     vdW  Elec       q    Type
REMARK                         _______ _______ _______ _____ _____    ______ ____
ROOT
ATOM      1  C   UNL     1       6.691  -2.145   0.052  0.00  0.00    +0.034 A 
ATOM      2  C   UNL     1       6.213  -1.811  -1.209  0.00  0.00    +0.025 A 
ATOM      3  C   UNL     1       4.889  -2.046  -1.528  0.00  0.00    +0.030 A 
ATOM      4  C   UNL     1       4.042  -2.613  -0.595  0.00  0.00    +0.109 A 
ATOM      5  C   UNL     1       4.513  -2.942   0.663  0.00  0.00    +0.030 A 
ATOM      6  C   UNL     1       5.836  -2.713   0.987  0.00  0.00    +0.025 A 
ENDROOT
BRANCH   1   9
ATOM      7  C   UNL     1       8.675  -0.847  -0.146  0.00  0.00    +0.258 C 
ATOM      8  O   UNL     1       8.070  -0.045  -0.826  0.00  0.00    -0.271 OA
ATOM      9  N   UNL     1       8.031  -1.908   0.379  0.00  0.00    -0.282 N 
ATOM     10  H   UNL     1       8.558  -2.588   1.064  0.00  0.00    +0.155 HD
BRANCH   7  11
ATOM     11  C   UNL     1      10.148  -0.657   0.111  0.00  0.00    +0.256 C 
ATOM     12  C   UNL     1      10.930  -1.801  -0.538  0.00  0.00    +0.062 C 
BRANCH  11  13
ATOM     13  O   UNL     1      10.572   0.588  -0.447  0.00  0.00    -0.480 OA
BRANCH  13  19
ATOM     14  C   UNL     1      13.620   4.392  -0.195  0.00  0.00    +0.044 C 
ATOM     15  C   UNL     1      13.186   3.020   0.252  0.00  0.00    -0.044 A 
ATOM     16  C   UNL     1      13.907   2.350   1.224  0.00  0.00    +0.004 A 
ATOM     17  C   UNL     1      13.512   1.091   1.636  0.00  0.00    +0.004 A 
ATOM     18  C   UNL     1      12.392   0.501   1.083  0.00  0.00    +0.046 A 
ATOM     19  C   UNL     1      11.671   1.168   0.103  0.00  0.00    +0.125 A 
ATOM     20  C   UNL     1      12.069   2.432  -0.309  0.00  0.00    -0.006 A 
ATOM     21  C   UNL     1      11.284   3.162  -1.368  0.00  0.00    +0.048 C 
ENDBRANCH  13  19
ENDBRANCH  11  13
ENDBRANCH   7  11
ENDBRANCH   1   9
BRANCH   4  22
ATOM     22  S   UNL     1       2.354  -2.912  -1.006  0.00  0.00    +0.072 S 
ATOM     23  O   UNL     1       2.063  -2.101  -2.136  0.00  0.00    -0.150 OA
ATOM     24  O   UNL     1       1.619  -2.822   0.206  0.00  0.00    -0.150 OA
BRANCH  22  25
ATOM     25  N   UNL     1       2.244  -4.485  -1.511  0.00  0.00    -0.216 N 
ATOM     26  H   UNL     1       1.624  -5.200  -0.951  0.00  0.00    +0.174 HD
BRANCH  25  27
ATOM     27  C   UNL     1       2.939  -4.904  -2.649  0.00  0.00    +0.048 A 
ATOM     28  C   UNL     1       3.668  -6.086  -2.623  0.00  0.00    +0.025 A 
ATOM     29  C   UNL     1       4.354  -6.497  -3.749  0.00  0.00    +0.017 A 
ATOM     30  C   UNL     1       4.316  -5.733  -4.902  0.00  0.00    +0.018 A 
ATOM     31  C   UNL     1       3.590  -4.555  -4.930  0.00  0.00    +0.017 A 
ATOM     32  C   UNL     1       2.902  -4.138  -3.807  0.00  0.00    +0.025 A 
ATOM     33 BR   UNL     1       5.256  -6.299  -6.441  0.00  0.00    -0.050 Br
ENDBRANCH  25  27
ENDBRANCH  22  25
ENDBRANCH   4  22
TORSDOF 7
