REMARK  Name = ZINC36580402
REMARK  13 active torsions:
REMARK  status: ('A' for Active; 'I' for Inactive)
REMARK    1  A    between atoms: C_1  and  C_2
REMARK    2  A    between atoms: C_5  and  S_8
REMARK    3  A    between atoms: S_8  and  C_11
REMARK    4  A    between atoms: C_11  and  N_12
REMARK    5  A    between atoms: C_13  and  C_15
REMARK    6  A    between atoms: C_15  and  C_17
REMARK    7  A    between atoms: C_15  and  N_26
REMARK    8  A    between atoms: C_20  and  N_23
REMARK    9  A    between atoms: N_26  and  C_35
REMARK   10  A    between atoms: C_27  and  C_29
REMARK   11  A    between atoms: C_35  and  C_36
REMARK   12  A    between atoms: C_35  and  C_37
REMARK   13  A    between atoms: C_35  and  C_38
REMARK                            x       y       z     vdW  Elec       q    Type
REMARK                         _______ _______ _______ _____ _____    ______ ____
ROOT
ATOM      1  C   UNL     1       3.079  -5.832   2.626  0.00  0.00    +0.193 C 
ENDROOT
BRANCH   1   2
ATOM      2  C   UNL     1       4.547  -5.752   2.293  0.00  0.00    -0.018 A 
ATOM      3  C   UNL     1       5.345  -6.873   2.416  0.00  0.00    +0.008 A 
ATOM      4  C   UNL     1       6.692  -6.800   2.112  0.00  0.00    +0.033 A 
ATOM      5  C   UNL     1       7.239  -5.605   1.683  0.00  0.00    +0.126 A 
ATOM      6  C   UNL     1       6.441  -4.484   1.560  0.00  0.00    +0.033 A 
ATOM      7  C   UNL     1       5.093  -4.558   1.860  0.00  0.00    +0.008 A 
BRANCH   5   8
ATOM      8  N   UNL     1       8.681  -5.527   1.358  0.00  0.00    +0.056 N 
ATOM      9  O   UNL     1       9.380  -6.507   1.467  0.00  0.00    -0.126 OA
ATOM     10  O   UNL     1       9.160  -4.482   0.984  0.00  0.00    -0.126 OA
ENDBRANCH   5   8
ENDBRANCH   1   2
BRANCH   1  12
ATOM     11  N   UNL     1       2.293  -4.744   0.548  0.00  0.00    -0.294 N 
ATOM     12  C   UNL     1       2.275  -5.826   1.351  0.00  0.00    +0.239 C 
ATOM     13  O   UNL     1       1.611  -6.795   1.049  0.00  0.00    -0.273 OA
ATOM     14  H   UNL     1       2.824  -3.969   0.790  0.00  0.00    +0.150 HD
BRANCH  11  15
ATOM     15  C   UNL     1       1.511  -4.738  -0.691  0.00  0.00    +0.278 C 
BRANCH  15  16
ATOM     16  S   UNL     1      -0.095  -3.949  -0.389  0.00  0.00    +0.013 S 
ATOM     17  O   UNL     1      -0.681  -4.471   0.796  0.00  0.00    -0.168 OA
ATOM     18  O   UNL     1      -0.841  -3.879  -1.596  0.00  0.00    -0.168 OA
BRANCH  16  23
ATOM     19  C   UNL     1       1.218   1.787   0.944  0.00  0.00    +0.044 C 
ATOM     20  C   UNL     1       0.891   0.354   0.611  0.00  0.00    -0.050 A 
ATOM     21  C   UNL     1       0.664  -0.016  -0.701  0.00  0.00    +0.005 A 
ATOM     22  C   UNL     1       0.363  -1.330  -1.007  0.00  0.00    +0.027 A 
ATOM     23  C   UNL     1       0.290  -2.274   0.000  0.00  0.00    +0.090 A 
ATOM     24  C   UNL     1       0.517  -1.904   1.313  0.00  0.00    +0.027 A 
ATOM     25  C   UNL     1       0.822  -0.591   1.617  0.00  0.00    +0.005 A 
ENDBRANCH  16  23
ENDBRANCH  15  16
ENDBRANCH  11  15
ENDBRANCH   1  12
BRANCH   1  26
ATOM     26  N   UNL     1       2.812  -7.067   3.366  0.00  0.00    -0.281 N 
ATOM     27  C   UNL     1       3.004  -8.263   2.773  0.00  0.00    +0.220 C 
ATOM     28  O   UNL     1       3.299  -8.316   1.598  0.00  0.00    -0.275 OA
BRANCH  27  29
ATOM     29  C   UNL     1       2.852  -9.532   3.570  0.00  0.00    +0.075 C 
ATOM     30  C   UNL     1       3.849  -9.529   4.731  0.00  0.00    +0.013 C 
ATOM     31  C   UNL     1       3.694 -10.818   5.540  0.00  0.00    +0.001 C 
ATOM     32  C   UNL     1       3.966 -12.023   4.638  0.00  0.00    +0.000 C 
ATOM     33  C   UNL     1       2.969 -12.026   3.477  0.00  0.00    +0.001 C 
ATOM     34  C   UNL     1       3.124 -10.737   2.667  0.00  0.00    +0.013 C 
ENDBRANCH  27  29
BRANCH  26  35
ATOM     35  C   UNL     1       2.337  -7.004   4.750  0.00  0.00    +0.030 C 
ATOM     36  C   UNL     1       1.523  -5.725   4.952  0.00  0.00    +0.031 C 
ATOM     37  C   UNL     1       1.457  -8.221   5.043  0.00  0.00    +0.031 C 
ATOM     38  C   UNL     1       3.536  -7.001   5.701  0.00  0.00    +0.031 C 
ENDBRANCH  26  35
ENDBRANCH   1  26
TORSDOF 9
