REMARK  Name = ZINC39688747
REMARK  10 active torsions:
REMARK  status: ('A' for Active; 'I' for Inactive)
REMARK    1  A    between atoms: C_1  and  C_2
REMARK    2  A    between atoms: C_2  and  C_4
REMARK    3  A    between atoms: C_2  and  N_12
REMARK    4  A    between atoms: C_4  and  C_5
REMARK    5  A    between atoms: C_13  and  C_15
REMARK    6  A    between atoms: C_26  and  C_28
REMARK    7  A    between atoms: C_28  and  C_29
REMARK    8  A    between atoms: C_29  and  C_30
REMARK    9  A    between atoms: C_33  and  O_36
REMARK   10  A    between atoms: O_36  and  C_37
REMARK                            x       y       z     vdW  Elec       q    Type
REMARK                         _______ _______ _______ _____ _____    ______ ____
ROOT
ATOM      1  C   UNL     1      -3.442  -1.177   1.191  0.00  0.00    +0.100 C 
ATOM      2  C   UNL     1      -4.400  -0.149   0.548  0.00  0.00    +0.121 C 
ATOM      3  N   UNL     1      -5.639  -0.235   1.355  0.00  0.00    -0.300 N 
ATOM      4  C   UNL     1      -5.160  -0.392   2.750  0.00  0.00    +0.115 C 
ATOM      5  C   UNL     1      -3.945  -1.333   2.637  0.00  0.00    -0.004 C 
ATOM      6  C   UNL     1      -4.368  -2.776   2.896  0.00  0.00    -0.010 C 
ATOM      7  C   UNL     1      -4.810  -2.919   4.355  0.00  0.00    -0.082 C 
ATOM      8  N   UNL     1      -3.701  -2.546   5.242  0.00  0.00    +0.379 N 
ATOM      9  C   UNL     1      -3.362  -1.131   5.052  0.00  0.00    -0.082 C 
ATOM     10  C   UNL     1      -2.859  -0.912   3.622  0.00  0.00    -0.010 C 
ATOM     11  C   UNL     1      -6.914  -0.182   0.921  0.00  0.00    +0.216 C 
ATOM     12  O   UNL     1      -7.829  -0.266   1.713  0.00  0.00    -0.276 OA
ATOM     13  H   UNL     1      -3.974  -2.699   6.202  0.00  0.00    -0.086 HD
ATOM     14  H   UNL     1      -2.896  -3.115   5.030  0.00  0.00    -0.086 HD
ENDROOT
BRANCH   1  16
ATOM     15  N   UNL     1      -0.995  -1.513   1.076  0.00  0.00    -0.312 N 
ATOM     16  C   UNL     1      -2.029  -0.655   1.181  0.00  0.00    +0.218 C 
ATOM     17  O   UNL     1      -1.821   0.537   1.266  0.00  0.00    -0.275 OA
ATOM     18  H   UNL     1      -1.160  -2.466   1.008  0.00  0.00    +0.149 HD
BRANCH  15  20
ATOM     19  C   UNL     1       0.763  -0.600  -0.359  0.00  0.00    +0.028 C 
ATOM     20  C   UNL     1       0.380  -1.006   1.066  0.00  0.00    +0.074 C 
BRANCH  20  21
ATOM     21  C   UNL     1       1.331  -2.099   1.558  0.00  0.00    +0.057 C 
BRANCH  21  22
ATOM     22  C   UNL     1       1.032  -2.412   3.002  0.00  0.00    -0.045 A 
ATOM     23  C   UNL     1       1.675  -1.715   4.007  0.00  0.00    +0.006 A 
ATOM     24  C   UNL     1       1.402  -2.001   5.331  0.00  0.00    +0.038 A 
ATOM     25  C   UNL     1       0.483  -2.986   5.651  0.00  0.00    +0.123 A 
ATOM     26  C   UNL     1      -0.161  -3.684   4.643  0.00  0.00    +0.038 A 
ATOM     27  C   UNL     1       0.111  -3.393   3.319  0.00  0.00    +0.006 A 
ATOM     28  F   UNL     1       0.216  -3.266   6.945  0.00  0.00    -0.205 F 
ENDBRANCH  21  22
ENDBRANCH  20  21
ENDBRANCH  15  20
ENDBRANCH   1  16
BRANCH  11  29
ATOM     29  C   UNL     1      -7.203  -0.017  -0.549  0.00  0.00    +0.100 C 
BRANCH  29  30
ATOM     30  C   UNL     1      -8.716   0.013  -0.771  0.00  0.00    +0.044 C 
BRANCH  30  31
ATOM     31  C   UNL     1      -9.005   0.178  -2.241  0.00  0.00    -0.047 A 
ATOM     32  C   UNL     1      -9.127   1.444  -2.783  0.00  0.00    +0.007 A 
ATOM     33  C   UNL     1      -9.392   1.597  -4.130  0.00  0.00    +0.046 A 
ATOM     34  C   UNL     1      -9.535   0.480  -4.940  0.00  0.00    +0.120 A 
ATOM     35  C   UNL     1      -9.412  -0.790  -4.394  0.00  0.00    +0.046 A 
ATOM     36  C   UNL     1      -9.141  -0.938  -3.047  0.00  0.00    +0.007 A 
BRANCH  34  37
ATOM     37  O   UNL     1      -9.796   0.628  -6.265  0.00  0.00    -0.495 OA
ATOM     38  C   UNL     1      -9.931  -0.567  -7.037  0.00  0.00    +0.277 C 
ENDBRANCH  34  37
ENDBRANCH  30  31
ENDBRANCH  29  30
ENDBRANCH  11  29
TORSDOF 8
