REMARK  Name = ZINC53517404
REMARK  5 active torsions:
REMARK  status: ('A' for Active; 'I' for Inactive)
REMARK    1  A    between atoms: N_9  and  C_30
REMARK    2  A    between atoms: C_10  and  C_12
REMARK    3  A    between atoms: C_12  and  N_13
REMARK    4  A    between atoms: C_16  and  N_19
REMARK    5  A    between atoms: C_30  and  C_31
REMARK                            x       y       z     vdW  Elec       q    Type
REMARK                         _______ _______ _______ _____ _____    ______ ____
ROOT
ATOM      1  C   UNL     1       4.999  -2.586  -0.061  0.00  0.00    +0.159 C 
ENDROOT
BRANCH   1  11
ATOM      2  C   UNL     1      -0.017   1.373   0.010  0.00  0.00    +0.001 A 
ATOM      3  C   UNL     1       1.169   2.096   0.002  0.00  0.00    +0.002 A 
ATOM      4  C   UNL     1       2.387   1.453  -0.013  0.00  0.00    +0.028 A 
ATOM      5  C   UNL     1       2.432   0.058  -0.021  0.00  0.00    +0.078 A 
ATOM      6  C   UNL     1       1.224  -0.674  -0.013  0.00  0.00    +0.065 A 
ATOM      7  C   UNL     1       0.002  -0.004   0.002  0.00  0.00    +0.015 A 
ATOM      8  C   UNL     1       1.306  -2.142  -0.022  0.00  0.00    +0.262 A 
ATOM      9  O   UNL     1       0.302  -2.832  -0.017  0.00  0.00    -0.267 OA
ATOM     10  N   UNL     1       2.540  -2.697  -0.038  0.00  0.00    -0.286 N 
ATOM     11  C   UNL     1       3.650  -1.914  -0.044  0.00  0.00    +0.128 A 
ATOM     12  N   UNL     1       3.609  -0.616  -0.037  0.00  0.00    -0.232 NA
BRANCH  10  13
ATOM     13  C   UNL     1       2.680  -4.155  -0.048  0.00  0.00    +0.222 C 
BRANCH  13  14
ATOM     14  C   UNL     1       2.714  -4.647  -1.472  0.00  0.00    +0.230 C 
ATOM     15  O   UNL     1       2.629  -3.857  -2.389  0.00  0.00    -0.274 OA
ATOM     16  N   UNL     1       2.838  -5.965  -1.727  0.00  0.00    -0.328 N 
ATOM     17  H   UNL     1       2.906  -6.596  -0.994  0.00  0.00    +0.145 HD
ATOM     18  H   UNL     1       2.860  -6.281  -2.644  0.00  0.00    +0.145 HD
ENDBRANCH  13  14
ENDBRANCH  10  13
ENDBRANCH   1  11
BRANCH   1  19
ATOM     19  N   UNL     1       6.055  -1.565  -0.066  0.00  0.00    -0.295 NA
ATOM     20  C   UNL     1       6.055  -0.802   1.189  0.00  0.00    +0.087 C 
ATOM     21  C   UNL     1       7.066   0.342   1.092  0.00  0.00    +0.040 C 
ATOM     22  C   UNL     1       8.459  -0.235   0.824  0.00  0.00    +0.095 C 
ATOM     23  C   UNL     1       8.420  -1.065  -0.462  0.00  0.00    +0.040 C 
ATOM     24  C   UNL     1       7.369  -2.169  -0.320  0.00  0.00    +0.087 C 
BRANCH  22  25
ATOM     25  N   UNL     1       9.421   0.859   0.672  0.00  0.00    -0.289 N 
ATOM     26  C   UNL     1      10.550   1.067   1.462  0.00  0.00    +0.070 A 
ATOM     27  C   UNL     1      11.092   0.390   2.544  0.00  0.00    +0.028 A 
ATOM     28  C   UNL     1      12.253   0.853   3.132  0.00  0.00    +0.002 A 
ATOM     29  C   UNL     1      12.876   1.990   2.648  0.00  0.00    +0.002 A 
ATOM     30  C   UNL     1      12.342   2.672   1.572  0.00  0.00    +0.028 A 
ATOM     31  C   UNL     1      11.178   2.214   0.973  0.00  0.00    +0.067 A 
ATOM     32  N   UNL     1      10.412   2.667  -0.099  0.00  0.00    -0.306 N 
ATOM     33  H   UNL     1      10.601   3.449  -0.640  0.00  0.00    +0.170 HD
ATOM     34  C   UNL     1       9.370   1.830  -0.258  0.00  0.00    +0.328 A 
ATOM     35  O   UNL     1       8.509   1.938  -1.111  0.00  0.00    -0.247 OA
ENDBRANCH  22  25
ENDBRANCH   1  19
TORSDOF 5
