REMARK  Name = ZINC12562187
REMARK  9 active torsions:
REMARK  status: ('A' for Active; 'I' for Inactive)
REMARK    1  A    between atoms: C_1  and  C_2
REMARK    2  A    between atoms: C_2  and  O_3
REMARK    3  A    between atoms: O_3  and  C_4
REMARK    4  A    between atoms: C_9  and  N_10
REMARK    5  A    between atoms: N_10  and  C_11
REMARK    6  A    between atoms: C_11  and  C_13
REMARK    7  A    between atoms: C_11  and  C_14
REMARK    8  A    between atoms: N_16  and  C_17
REMARK    9  A    between atoms: C_26  and  C_29
REMARK                            x       y       z     vdW  Elec       q    Type
REMARK                         _______ _______ _______ _____ _____    ______ ____
ROOT
ATOM      1  N   UNL     1      -1.921   2.371   3.526  0.00  0.00    -0.330 N 
ATOM      2  H   UNL     1      -2.303   2.634   2.675  0.00  0.00    +0.147 HD
ENDROOT
BRANCH   1   8
ATOM      3  C   UNL     1      -0.177   1.159   2.371  0.00  0.00    +0.142 A 
ATOM      4  C   UNL     1       0.955   0.361   2.413  0.00  0.00    +0.055 A 
ATOM      5  C   UNL     1       1.494  -0.009   3.627  0.00  0.00    +0.001 A 
ATOM      6  C   UNL     1       0.915   0.404   4.821  0.00  0.00    +0.126 A 
ATOM      7  C   UNL     1      -0.228   1.198   4.778  0.00  0.00    +0.072 A 
ATOM      8  C   UNL     1      -0.772   1.573   3.561  0.00  0.00    +0.073 A 
ATOM      9  O   UNL     1       1.615  -0.059   5.894  0.00  0.00    -0.488 OA
ATOM     10  C   UNL     1       2.432  -1.169   5.482  0.00  0.00    +0.175 C 
ATOM     11  C   UNL     1       2.692  -0.867   3.987  0.00  0.00    +0.083 C 
ATOM     12  C   UNL     1       3.745  -1.196   6.266  0.00  0.00    +0.052 C 
BRANCH   3  13
ATOM     13  O   UNL     1      -0.709   1.530   1.175  0.00  0.00    -0.490 OA
BRANCH  13  15
ATOM     14  C   UNL     1      -0.782   1.582  -1.240  0.00  0.00    +0.048 C 
ATOM     15  C   UNL     1      -0.045   1.067  -0.002  0.00  0.00    +0.226 C 
ENDBRANCH  13  15
ENDBRANCH   3  13
ENDBRANCH   1   8
BRANCH   1  16
ATOM     16  C   UNL     1      -2.547   2.808   4.777  0.00  0.00    +0.154 C 
ATOM     17  C   UNL     1      -3.496   1.718   5.280  0.00  0.00    +0.038 C 
BRANCH  16  18
ATOM     18  C   UNL     1      -3.324   4.076   4.533  0.00  0.00    +0.237 C 
ATOM     19  O   UNL     1      -3.351   4.567   3.424  0.00  0.00    -0.273 OA
ATOM     20  N   UNL     1      -3.987   4.665   5.547  0.00  0.00    -0.283 N 
ATOM     21  H   UNL     1      -4.020   4.239   6.418  0.00  0.00    +0.155 HD
BRANCH  20  22
ATOM     22  C   UNL     1      -4.630   5.893   5.344  0.00  0.00    +0.052 A 
ATOM     23  C   UNL     1      -5.221   6.174   4.119  0.00  0.00    +0.027 A 
ATOM     24  C   UNL     1      -5.859   7.383   3.922  0.00  0.00    +0.040 A 
ATOM     25  C   UNL     1      -5.902   8.319   4.942  0.00  0.00    +0.125 A 
ATOM     26  C   UNL     1      -5.309   8.044   6.162  0.00  0.00    +0.060 A 
ATOM     27  C   UNL     1      -4.674   6.833   6.366  0.00  0.00    +0.065 A 
ATOM     28 CL   UNL     1      -3.931   6.488   7.896  0.00  0.00    -0.082 Cl
ATOM     29  F   UNL     1      -6.523   9.503   4.745  0.00  0.00    -0.205 F 
ENDBRANCH  20  22
ENDBRANCH  16  18
ENDBRANCH   1  16
TORSDOF 6
