REMARK  Name = ZINC08455982
REMARK  11 active torsions:
REMARK  status: ('A' for Active; 'I' for Inactive)
REMARK    1  A    between atoms: C_1  and  C_2
REMARK    2  A    between atoms: C_7  and  O_8
REMARK    3  A    between atoms: O_8  and  C_9
REMARK    4  A    between atoms: C_9  and  C_11
REMARK    5  A    between atoms: C_9  and  C_12
REMARK    6  A    between atoms: N_14  and  C_15
REMARK    7  A    between atoms: C_18  and  C_21
REMARK    8  A    between atoms: C_21  and  C_32
REMARK    9  A    between atoms: N_22  and  N_23
REMARK   10  A    between atoms: C_24  and  C_26
REMARK   11  A    between atoms: C_26  and  C_31
REMARK                            x       y       z     vdW  Elec       q    Type
REMARK                         _______ _______ _______ _____ _____    ______ ____
ROOT
ATOM      1  C   UNL     1      -1.581   9.749   5.941  0.00  0.00    +0.034 A 
ATOM      2  C   UNL     1      -0.690   8.992   5.189  0.00  0.00    +0.024 A 
ATOM      3  C   UNL     1      -1.050   7.737   4.750  0.00  0.00    +0.011 A 
ATOM      4  C   UNL     1      -2.313   7.225   5.062  0.00  0.00    -0.002 A 
ATOM      5  C   UNL     1      -3.208   7.992   5.814  0.00  0.00    +0.011 A 
ATOM      6  C   UNL     1      -2.838   9.243   6.254  0.00  0.00    +0.024 A 
ENDROOT
BRANCH   1   9
ATOM      7  C   UNL     1      -2.127  12.011   6.434  0.00  0.00    +0.258 C 
ATOM      8  O   UNL     1      -3.289  11.775   6.174  0.00  0.00    -0.271 OA
ATOM      9  N   UNL     1      -1.212  11.022   6.385  0.00  0.00    -0.282 N 
ATOM     10  H   UNL     1      -0.297  11.195   6.658  0.00  0.00    +0.155 HD
BRANCH   7  11
ATOM     11  C   UNL     1      -1.708  13.408   6.810  0.00  0.00    +0.256 C 
ATOM     12  C   UNL     1      -1.101  13.397   8.214  0.00  0.00    +0.062 C 
BRANCH  11  13
ATOM     13  O   UNL     1      -2.848  14.269   6.791  0.00  0.00    -0.480 OA
BRANCH  13  20
ATOM     14  C   UNL     1      -5.100  15.954   6.531  0.00  0.00    +0.047 C 
ATOM     15  C   UNL     1      -3.686  16.468   6.441  0.00  0.00    -0.007 A 
ATOM     16  C   UNL     1      -3.451  17.812   6.223  0.00  0.00    +0.027 A 
ATOM     17  C   UNL     1      -2.154  18.284   6.140  0.00  0.00    +0.041 A 
ATOM     18  C   UNL     1      -1.088  17.411   6.275  0.00  0.00    +0.023 A 
ATOM     19  C   UNL     1      -1.319  16.068   6.497  0.00  0.00    +0.047 A 
ATOM     20  C   UNL     1      -2.619  15.592   6.576  0.00  0.00    +0.125 A 
ATOM     21 CL   UNL     1      -1.861  19.973   5.867  0.00  0.00    -0.084 Cl
ENDBRANCH  13  20
ENDBRANCH  11  13
ENDBRANCH   7  11
ENDBRANCH   1   9
BRANCH   4  22
ATOM     22  C   UNL     1      -2.702   5.883   4.593  0.00  0.00    +0.063 C 
ATOM     23  N   UNL     1      -1.872   5.174   3.891  0.00  0.00    -0.185 NA
ATOM     24  C   UNL     1      -4.064   5.333   4.930  0.00  0.00    +0.068 C 
BRANCH  23  25
ATOM     25  N   UNL     1      -2.242   3.898   3.446  0.00  0.00    -0.206 N 
ATOM     26  C   UNL     1      -1.380   3.163   2.716  0.00  0.00    +0.241 C 
ATOM     27  O   UNL     1      -0.283   3.606   2.445  0.00  0.00    -0.273 OA
ATOM     28  H   UNL     1      -3.118   3.545   3.663  0.00  0.00    +0.177 HD
BRANCH  26  29
ATOM     29  C   UNL     1      -1.778   1.791   2.237  0.00  0.00    +0.081 C 
ATOM     30  C   UNL     1      -1.990   1.601   0.733  0.00  0.00    +0.058 C 
ATOM     31  C   UNL     1      -0.755   1.006   1.413  0.00  0.00    +0.133 C 
ATOM     32 CL   UNL     1      -0.706  -0.783   1.632  0.00  0.00    -0.100 Cl
ATOM     33 CL   UNL     1       0.835   1.793   1.090  0.00  0.00    -0.100 Cl
ATOM     34  C   UNL     1      -2.681   0.997   3.184  0.00  0.00    +0.024 C 
ENDBRANCH  26  29
ENDBRANCH  23  25
ENDBRANCH   4  22
TORSDOF 7
