REMARK  Name = ZINC18014183
REMARK  10 active torsions:
REMARK  status: ('A' for Active; 'I' for Inactive)
REMARK    1  A    between atoms: C_1  and  C_2
REMARK    2  A    between atoms: C_5  and  C_30
REMARK    3  A    between atoms: C_6  and  C_8
REMARK    4  A    between atoms: C_8  and  C_10
REMARK    5  A    between atoms: C_8  and  N_11
REMARK    6  A    between atoms: C_12  and  C_14
REMARK    7  A    between atoms: C_14  and  C_15
REMARK    8  A    between atoms: C_15  and  C_16
REMARK    9  A    between atoms: C_16  and  N_17
REMARK   10  A    between atoms: C_21  and  N_27
REMARK                            x       y       z     vdW  Elec       q    Type
REMARK                         _______ _______ _______ _____ _____    ______ ____
ROOT
ATOM      1  C   UNL     1      -3.792   6.834  -1.367  0.00  0.00    +0.097 C 
ENDROOT
BRANCH   1   3
ATOM      2  N   UNL     1      -4.437   8.558  -3.019  0.00  0.00    -0.309 N 
ATOM      3  C   UNL     1      -3.979   7.313  -2.784  0.00  0.00    +0.214 C 
ATOM      4  O   UNL     1      -3.717   6.577  -3.712  0.00  0.00    -0.276 OA
ATOM      5  H   UNL     1      -4.647   9.146  -2.277  0.00  0.00    +0.149 HD
BRANCH   2   6
ATOM      6  C   UNL     1      -4.619   9.024  -4.397  0.00  0.00    +0.100 C 
ATOM      7  C   UNL     1      -3.293   9.569  -4.930  0.00  0.00    +0.033 C 
BRANCH   6  13
ATOM      8  C   UNL     1      -7.107  12.701  -2.087  0.00  0.00    +0.044 C 
ATOM      9  C   UNL     1      -6.849  11.873  -3.320  0.00  0.00    -0.050 A 
ATOM     10  C   UNL     1      -7.566  12.116  -4.477  0.00  0.00    +0.003 A 
ATOM     11  C   UNL     1      -7.329  11.357  -5.608  0.00  0.00    +0.004 A 
ATOM     12  C   UNL     1      -6.375  10.356  -5.582  0.00  0.00    -0.046 A 
ATOM     13  C   UNL     1      -5.658  10.115  -4.425  0.00  0.00    -0.024 A 
ATOM     14  C   UNL     1      -5.899  10.870  -3.292  0.00  0.00    +0.009 A 
ATOM     15  C   UNL     1      -6.117   9.529  -6.815  0.00  0.00    +0.044 C 
ENDBRANCH   6  13
ENDBRANCH   2   6
ENDBRANCH   1   3
BRANCH   1  16
ATOM     16  C   UNL     1      -3.266   5.397  -1.380  0.00  0.00    +0.031 C 
BRANCH  16  17
ATOM     17  C   UNL     1      -3.076   4.911   0.058  0.00  0.00    +0.129 C 
BRANCH  17  18
ATOM     18  N   UNL     1      -2.573   3.536   0.046  0.00  0.00    -0.274 N 
ATOM     19  C   UNL     1      -1.233   3.148   0.031  0.00  0.00    +0.090 A 
ATOM     20  C   UNL     1      -0.039   3.851   0.023  0.00  0.00    +0.032 A 
ATOM     21  C   UNL     1       1.161   3.167   0.008  0.00  0.00    +0.035 A 
ATOM     22  C   UNL     1       1.174   1.784   0.000  0.00  0.00    +0.130 A 
ATOM     23  C   UNL     1      -0.013   1.076   0.008  0.00  0.00    +0.081 A 
ATOM     24  C   UNL     1      -1.222   1.753   0.017  0.00  0.00    +0.159 A 
ATOM     25  O   UNL     1      -2.513   1.340   0.034  0.00  0.00    -0.407 OA
ATOM     26  C   UNL     1      -3.319   2.413   0.048  0.00  0.00    +0.421 A 
ATOM     27  O   UNL     1      -4.534   2.378   0.060  0.00  0.00    -0.223 OA
BRANCH  22  28
ATOM     28  N   UNL     1       2.464   1.058  -0.016  0.00  0.00    +0.057 N 
ATOM     29  O   UNL     1       2.478  -0.160  -0.023  0.00  0.00    -0.126 OA
ATOM     30  O   UNL     1       3.511   1.679  -0.023  0.00  0.00    -0.126 OA
ENDBRANCH  22  28
ENDBRANCH  17  18
ENDBRANCH  16  17
ENDBRANCH   1  16
TORSDOF 7
