REMARK  Name = ZINC37421687
REMARK  14 active torsions:
REMARK  status: ('A' for Active; 'I' for Inactive)
REMARK    1  A    between atoms: C_1  and  C_2
REMARK    2  A    between atoms: C_2  and  C_3
REMARK    3  A    between atoms: C_2  and  C_4
REMARK    4  A    between atoms: C_4  and  N_5
REMARK    5  A    between atoms: C_6  and  C_8
REMARK    6  A    between atoms: C_8  and  O_29
REMARK    7  A    between atoms: C_10  and  O_28
REMARK    8  A    between atoms: C_12  and  O_27
REMARK    9  A    between atoms: C_14  and  O_17
REMARK   10  A    between atoms: O_17  and  C_18
REMARK   11  A    between atoms: C_18  and  C_19
REMARK   12  A    between atoms: O_29  and  C_30
REMARK   13  A    between atoms: C_30  and  C_31
REMARK   14  A    between atoms: C_34  and  C_37
REMARK                            x       y       z     vdW  Elec       q    Type
REMARK                         _______ _______ _______ _____ _____    ______ ____
ROOT
ATOM      1  C   UNL     1      -2.453  -4.175  -0.308  0.00  0.00    +0.150 C 
ATOM      2  C   UNL     1      -2.246  -4.431  -1.802  0.00  0.00    +0.078 C 
ATOM      3  C   UNL     1      -3.462  -3.925  -2.580  0.00  0.00    +0.149 C 
ATOM      4  C   UNL     1      -4.715  -4.663  -2.104  0.00  0.00    +0.172 C 
ATOM      5  C   UNL     1      -4.922  -4.407  -0.610  0.00  0.00    +0.153 C 
ATOM      6  C   UNL     1      -3.706  -4.913   0.168  0.00  0.00    +0.079 C 
ENDROOT
BRANCH   1   8
ATOM      7  N   UNL     1      -2.442  -2.187   1.164  0.00  0.00    -0.313 N 
ATOM      8  C   UNL     1      -2.621  -2.696  -0.071  0.00  0.00    +0.245 C 
ATOM      9  O   UNL     1      -2.916  -1.964  -0.991  0.00  0.00    -0.273 OA
ATOM     10  H   UNL     1      -2.278  -2.780   1.914  0.00  0.00    +0.149 HD
BRANCH   7  11
ATOM     11  C   UNL     1      -2.497  -0.738   1.375  0.00  0.00    +0.107 C 
BRANCH  11  13
ATOM     12  C   UNL     1      -2.198   1.087   3.055  0.00  0.00    +0.009 C 
ATOM     13  C   UNL     1      -2.265  -0.429   2.855  0.00  0.00    -0.000 C 
ATOM     14  C   UNL     1      -3.417  -1.002   3.683  0.00  0.00    +0.009 C 
ENDBRANCH  11  13
ENDBRANCH   7  11
ENDBRANCH   1   8
BRANCH   4  15
ATOM     15  O   UNL     1      -4.556  -6.065  -2.329  0.00  0.00    -0.387 OA
ATOM     16  H   UNL     1      -4.421  -6.302  -3.257  0.00  0.00    +0.210 HD
ENDBRANCH   4  15
BRANCH   3  17
ATOM     17  O   UNL     1      -3.269  -4.165  -3.975  0.00  0.00    -0.389 OA
ATOM     18  H   UNL     1      -4.003  -3.868  -4.530  0.00  0.00    +0.210 HD
ENDBRANCH   3  17
BRANCH   5  19
ATOM     19  O   UNL     1      -6.092  -5.096  -0.166  0.00  0.00    -0.369 OA
BRANCH  19  20
ATOM     20  C   UNL     1      -7.293  -4.327  -0.265  0.00  0.00    +0.201 C 
BRANCH  20  21
ATOM     21  C   UNL     1      -8.457  -5.148   0.227  0.00  0.00    +0.048 A 
ATOM     22  C   UNL     1      -9.164  -5.947  -0.655  0.00  0.00    +0.131 A 
ATOM     23  C   UNL     1     -10.233  -6.700  -0.201  0.00  0.00    +0.039 A 
ATOM     24  C   UNL     1     -10.595  -6.655   1.132  0.00  0.00    +0.006 A 
ATOM     25  C   UNL     1      -9.891  -5.857   2.014  0.00  0.00    +0.039 A 
ATOM     26  C   UNL     1      -8.817  -5.107   1.563  0.00  0.00    +0.131 A 
ATOM     27  F   UNL     1      -8.124  -4.332   2.426  0.00  0.00    -0.205 F 
ATOM     28  F   UNL     1      -8.810  -5.992  -1.958  0.00  0.00    -0.205 F 
ENDBRANCH  20  21
ENDBRANCH  19  20
ENDBRANCH   5  19
BRANCH   1  29
ATOM     29  O   UNL     1      -1.317  -4.648   0.418  0.00  0.00    -0.359 OA
BRANCH  29  30
ATOM     30  C   UNL     1      -0.094  -3.990   0.078  0.00  0.00    +0.196 C 
BRANCH  30  31
ATOM     31  C   UNL     1       1.008  -4.479   0.982  0.00  0.00    -0.022 A 
ATOM     32  C   UNL     1       1.254  -3.831   2.180  0.00  0.00    +0.007 A 
ATOM     33  C   UNL     1       2.261  -4.273   3.012  0.00  0.00    +0.019 A 
ATOM     34  C   UNL     1       3.032  -5.378   2.644  0.00  0.00    +0.052 A 
ATOM     35  C   UNL     1       2.778  -6.027   1.435  0.00  0.00    +0.019 A 
ATOM     36  C   UNL     1       1.764  -5.577   0.614  0.00  0.00    +0.007 A 
BRANCH  34  37
ATOM     37  C   UNL     1       4.080  -5.842   3.503  0.00  0.00    +0.099 C 
ATOM     38  N   UNL     1       4.911  -6.210   4.185  0.00  0.00    -0.191 NA
ENDBRANCH  34  37
ENDBRANCH  30  31
ENDBRANCH  29  30
ENDBRANCH   1  29
TORSDOF 12
