REMARK  Name = ZINC08762137
REMARK  12 active torsions:
REMARK  status: ('A' for Active; 'I' for Inactive)
REMARK    1  A    between atoms: C_1  and  C_2
REMARK    2  A    between atoms: N_4  and  C_5
REMARK    3  A    between atoms: C_11  and  O_37
REMARK    4  A    between atoms: C_12  and  O_35
REMARK    5  A    between atoms: C_13  and  O_33
REMARK    6  A    between atoms: C_20  and  N_23
REMARK    7  A    between atoms: N_23  and  C_24
REMARK    8  A    between atoms: C_29  and  C_31
REMARK    9  A    between atoms: C_29  and  C_32
REMARK   10  A    between atoms: O_33  and  C_34
REMARK   11  A    between atoms: O_35  and  C_36
REMARK   12  A    between atoms: O_37  and  C_38
REMARK                            x       y       z     vdW  Elec       q    Type
REMARK                         _______ _______ _______ _____ _____    ______ ____
ROOT
ATOM      1  C   UNL     1      -1.521   5.486  -0.043  0.00  0.00    +0.104 C 
ATOM      2  C   UNL     1      -1.828   5.913  -1.463  0.00  0.00    +0.032 C 
ATOM      3  C   UNL     1      -2.361   4.743  -2.286  0.00  0.00    +0.038 C 
ATOM      4  C   UNL     1      -3.380   3.979  -1.479  0.00  0.00    -0.032 A 
ATOM      5  C   UNL     1      -4.725   4.124  -1.747  0.00  0.00    +0.054 A 
ATOM      6  C   UNL     1      -5.661   3.411  -1.010  0.00  0.00    +0.165 A 
ATOM      7  C   UNL     1      -5.251   2.548   0.001  0.00  0.00    +0.204 A 
ATOM      8  C   UNL     1      -3.898   2.401   0.279  0.00  0.00    +0.173 A 
ATOM      9  C   UNL     1      -2.961   3.125  -0.465  0.00  0.00    +0.031 A 
ATOM     10  C   UNL     1      -1.506   2.988  -0.154  0.00  0.00    -0.009 A 
ATOM     11  C   UNL     1      -0.777   4.167  -0.002  0.00  0.00    -0.016 A 
ATOM     12  C   UNL     1       0.553   4.238   0.189  0.00  0.00    +0.058 A 
ATOM     13  C   UNL     1       1.527   3.289   0.303  0.00  0.00    +0.200 A 
ATOM     14  O   UNL     1       2.672   3.712   0.398  0.00  0.00    -0.286 OA
ATOM     15  C   UNL     1       1.390   1.903   0.325  0.00  0.00    +0.075 A 
ATOM     16  C   UNL     1       0.220   1.223   0.165  0.00  0.00    +0.027 A 
ATOM     17  C   UNL     1      -1.014   1.712  -0.056  0.00  0.00    +0.011 A 
ENDROOT
BRANCH   1  21
ATOM     18  C   UNL     1       0.099   7.735   2.598  0.00  0.00    +0.109 C 
ATOM     19  C   UNL     1      -0.744   6.675   1.937  0.00  0.00    +0.210 C 
ATOM     20  O   UNL     1      -1.462   5.965   2.610  0.00  0.00    -0.276 OA
ATOM     21  N   UNL     1      -0.701   6.517   0.600  0.00  0.00    -0.309 N 
ATOM     22  H   UNL     1      -0.127   7.085   0.062  0.00  0.00    +0.149 HD
ENDBRANCH   1  21
BRANCH  15  23
ATOM     23  N   UNL     1       2.537   1.155   0.525  0.00  0.00    -0.338 N 
ATOM     24  H   UNL     1       3.402   1.592   0.560  0.00  0.00    +0.146 HD
BRANCH  23  25
ATOM     25  C   UNL     1       2.445  -0.299   0.685  0.00  0.00    +0.075 C 
ATOM     26  C   UNL     1       2.428  -0.966  -0.694  0.00  0.00    +0.050 C 
ATOM     27  C   UNL     1       2.411  -2.486  -0.516  0.00  0.00    +0.162 C 
ATOM     28  O   UNL     1       3.549  -2.888   0.248  0.00  0.00    -0.374 OA
ATOM     29  C   UNL     1       3.594  -2.333   1.564  0.00  0.00    +0.066 C 
ATOM     30  C   UNL     1       3.658  -0.806   1.470  0.00  0.00    +0.056 C 
ATOM     31  C   UNL     1       2.337  -2.744   2.334  0.00  0.00    +0.041 C 
ATOM     32  C   UNL     1       4.833  -2.852   2.296  0.00  0.00    +0.041 C 
ENDBRANCH  23  25
ENDBRANCH  15  23
BRANCH   8  33
ATOM     33  O   UNL     1      -3.488   1.560   1.264  0.00  0.00    -0.491 OA
ATOM     34  C   UNL     1      -3.460   2.083   2.594  0.00  0.00    +0.277 C 
ENDBRANCH   8  33
BRANCH   7  35
ATOM     35  O   UNL     1      -6.173   1.850   0.717  0.00  0.00    -0.488 OA
ATOM     36  C   UNL     1      -6.548   0.565   0.215  0.00  0.00    +0.277 C 
ENDBRANCH   7  35
BRANCH   6  37
ATOM     37  O   UNL     1      -6.986   3.557  -1.277  0.00  0.00    -0.491 OA
ATOM     38  C   UNL     1      -7.340   4.459  -2.327  0.00  0.00    +0.277 C 
ENDBRANCH   6  37
TORSDOF 6
