REMARK  Name = ZINC15723241
REMARK  5 active torsions:
REMARK  status: ('A' for Active; 'I' for Inactive)
REMARK    1  A    between atoms: C_3  and  N_8
REMARK    2  A    between atoms: C_12  and  C_13
REMARK    3  A    between atoms: C_16  and  C_18
REMARK    4  A    between atoms: C_21  and  S_24
REMARK    5  A    between atoms: S_24  and  N_27
REMARK                            x       y       z     vdW  Elec       q    Type
REMARK                         _______ _______ _______ _____ _____    ______ ____
ROOT
ATOM      1  C   UNL     1       0.611   3.220   0.013  0.00  0.00    +0.129 A 
ATOM      2  C   UNL     1       1.096   1.919   0.002  0.00  0.00    +0.050 A 
ATOM      3  C   UNL     1      -0.013   1.076   0.008  0.00  0.00    +0.050 A 
ATOM      4  C   UNL     1      -1.133   1.881   0.017  0.00  0.00    +0.136 A 
ATOM      5  O   UNL     1      -0.739   3.165   0.025  0.00  0.00    -0.455 OA
ENDROOT
BRANCH   1  10
ATOM      6  N   UNL     1      -0.813   7.254   0.048  0.00  0.00    -0.184 N 
ATOM      7  C   UNL     1      -0.675   5.915   0.039  0.00  0.00    +0.272 C 
ATOM      8  O   UNL     1      -1.573   5.093   0.043  0.00  0.00    -0.268 OA
ATOM      9  C   UNL     1       0.770   5.633   0.023  0.00  0.00    +0.105 C 
ATOM     10  C   UNL     1       1.387   4.389   0.011  0.00  0.00    +0.064 C 
ATOM     11  C   UNL     1       1.419   6.955   0.030  0.00  0.00    +0.266 C 
ATOM     12  O   UNL     1       2.617   7.173   0.025  0.00  0.00    -0.268 OA
ATOM     13  N   UNL     1       0.436   7.874   0.039  0.00  0.00    -0.223 N 
ATOM     14  H   UNL     1       0.577   8.834   0.043  0.00  0.00    +0.174 HD
BRANCH   6  17
ATOM     15  C   UNL     1      -4.436   7.881   0.083  0.00  0.00    +0.003 A 
ATOM     16  C   UNL     1      -3.227   7.212   0.064  0.00  0.00    +0.025 A 
ATOM     17  C   UNL     1      -2.038   7.929   0.062  0.00  0.00    +0.058 A 
ATOM     18  C   UNL     1      -2.067   9.317   0.070  0.00  0.00    +0.045 A 
ATOM     19  C   UNL     1      -3.279   9.981   0.085  0.00  0.00    +0.043 A 
ATOM     20  C   UNL     1      -4.463   9.263   0.091  0.00  0.00    +0.020 A 
ATOM     21 CL   UNL     1      -3.318  11.716   0.094  0.00  0.00    -0.083 Cl
ENDBRANCH   6  17
ENDBRANCH   1  10
BRANCH   4  22
ATOM     22  C   UNL     1      -2.531   1.410   0.020  0.00  0.00    +0.017 A 
ATOM     23  C   UNL     1      -2.811   0.041   0.008  0.00  0.00    +0.013 A 
ATOM     24  C   UNL     1      -4.120  -0.392   0.017  0.00  0.00    +0.029 A 
ATOM     25  C   UNL     1      -5.156   0.526   0.026  0.00  0.00    +0.105 A 
ATOM     26  C   UNL     1      -4.887   1.883   0.032  0.00  0.00    +0.029 A 
ATOM     27  C   UNL     1      -3.582   2.331   0.029  0.00  0.00    +0.013 A 
BRANCH  25  28
ATOM     28  S   UNL     1      -6.826  -0.037   0.030  0.00  0.00    +0.056 S 
ATOM     29  O   UNL     1      -6.811  -1.349   0.574  0.00  0.00    -0.153 OA
ATOM     30  O   UNL     1      -7.606   1.011   0.590  0.00  0.00    -0.153 OA
BRANCH  28  31
ATOM     31  N   UNL     1      -7.296  -0.185  -1.551  0.00  0.00    -0.204 NA
ATOM     32  H   UNL     1      -6.674   0.029  -2.264  0.00  0.00    +0.144 HD
ATOM     33  H   UNL     1      -8.193  -0.486  -1.764  0.00  0.00    +0.144 HD
ENDBRANCH  28  31
ENDBRANCH  25  28
ENDBRANCH   4  22
TORSDOF 5
