REMARK  Name = ZINC10454893
REMARK  8 active torsions:
REMARK  status: ('A' for Active; 'I' for Inactive)
REMARK    1  A    between atoms: C_1  and  O_2
REMARK    2  A    between atoms: O_2  and  C_3
REMARK    3  A    between atoms: C_3  and  C_5
REMARK    4  A    between atoms: C_8  and  C_11
REMARK    5  A    between atoms: N_13  and  N_14
REMARK    6  A    between atoms: C_15  and  C_17
REMARK    7  A    between atoms: C_17  and  O_18
REMARK    8  A    between atoms: O_18  and  C_19
REMARK                            x       y       z     vdW  Elec       q    Type
REMARK                         _______ _______ _______ _____ _____    ______ ____
ROOT
ATOM      1  C   UNL     1       2.943   6.570   0.009  0.00  0.00    +0.260 C 
ATOM      2  O   UNL     1       4.072   6.120  -0.004  0.00  0.00    -0.269 OA
ATOM      3  N   UNL     1       1.885   5.734   0.015  0.00  0.00    -0.230 N 
ATOM      4  H   UNL     1       0.984   6.093   0.025  0.00  0.00    +0.173 HD
ENDROOT
BRANCH   1   8
ATOM      5  C   UNL     1       2.328  10.779   0.038  0.00  0.00    +0.059 A 
ATOM      6  C   UNL     1       3.625  10.263   0.023  0.00  0.00    +0.016 A 
ATOM      7  C   UNL     1       3.824   8.899   0.013  0.00  0.00    +0.014 A 
ATOM      8  C   UNL     1       2.729   8.034   0.019  0.00  0.00    +0.038 A 
ATOM      9  C   UNL     1       1.432   8.550   0.029  0.00  0.00    +0.014 A 
ATOM     10  C   UNL     1       1.233   9.914   0.043  0.00  0.00    +0.016 A 
BRANCH   5  11
ATOM     11  C   UNL     1       2.115  12.243   0.048  0.00  0.00    +0.339 C 
ATOM     12  O   UNL     1       3.068  12.996   0.043  0.00  0.00    -0.245 OA
BRANCH  11  14
ATOM     13  C   UNL     1       0.729  14.187   0.072  0.00  0.00    +0.280 C 
ATOM     14  O   UNL     1       0.863  12.741   0.063  0.00  0.00    -0.464 OA
ENDBRANCH  11  14
ENDBRANCH   5  11
ENDBRANCH   1   8
BRANCH   3  15
ATOM     15  N   UNL     1       2.088   4.348   0.005  0.00  0.00    -0.231 N 
ATOM     16  C   UNL     1       1.030   3.512   0.011  0.00  0.00    +0.267 C 
ATOM     17  O   UNL     1      -0.097   3.961   0.024  0.00  0.00    -0.271 OA
ATOM     18  H   UNL     1       2.989   3.989  -0.005  0.00  0.00    +0.173 HD
BRANCH  16  19
ATOM     19  C   UNL     1       1.248   2.021   0.001  0.00  0.00    +0.326 C 
BRANCH  19  20
ATOM     20  O   UNL     1      -0.016   1.355   0.009  0.00  0.00    -0.482 OA
BRANCH  20  21
ATOM     21  C   UNL     1       0.002  -0.004   0.002  0.00  0.00    +0.135 A 
ATOM     22  C   UNL     1       1.212  -0.682  -0.013  0.00  0.00    +0.048 A 
ATOM     23  C   UNL     1       1.229  -2.063  -0.021  0.00  0.00    +0.023 A 
ATOM     24  C   UNL     1       0.040  -2.771  -0.013  0.00  0.00    +0.042 A 
ATOM     25  C   UNL     1      -1.168  -2.097   0.002  0.00  0.00    +0.039 A 
ATOM     26  C   UNL     1      -1.190  -0.715   0.015  0.00  0.00    +0.061 A 
ATOM     27 BR   UNL     1      -2.841   0.206   0.044  0.00  0.00    -0.046 Br
ATOM     28 CL   UNL     1       0.064  -4.507  -0.022  0.00  0.00    -0.084 Cl
ENDBRANCH  20  21
ENDBRANCH  19  20
ENDBRANCH  16  19
ENDBRANCH   3  15
TORSDOF 7
