REMARK  Name = ZINC01371090
REMARK  12 active torsions:
REMARK  status: ('A' for Active; 'I' for Inactive)
REMARK    1  A    between atoms: C_1  and  C_2
REMARK    2  A    between atoms: C_7  and  C_15
REMARK    3  A    between atoms: C_13  and  C_14
REMARK    4  A    between atoms: C_15  and  N_16
REMARK    5  A    between atoms: N_16  and  C_17
REMARK    6  A    between atoms: C_17  and  C_18
REMARK    7  A    between atoms: C_18  and  C_19
REMARK    8  A    between atoms: C_22  and  O_27
REMARK    9  A    between atoms: C_23  and  O_25
REMARK   10  A    between atoms: O_25  and  C_26
REMARK   11  A    between atoms: O_27  and  C_28
REMARK   12  A    between atoms: N_31  and  C_32
REMARK                            x       y       z     vdW  Elec       q    Type
REMARK                         _______ _______ _______ _____ _____    ______ ____
ROOT
ATOM      1  N   UNL     1       3.349   3.984   1.125  0.00  0.00    -0.281 N 
ATOM      2  C   UNL     1       4.227   3.043   1.522  0.00  0.00    +0.307 C 
ATOM      3  O   UNL     1       4.965   3.259   2.465  0.00  0.00    -0.252 OA
ATOM      4  N   UNL     1       4.289   1.862   0.875  0.00  0.00    -0.269 N 
ATOM      5  H   UNL     1       3.681   1.679   0.142  0.00  0.00    +0.156 HD
ENDROOT
BRANCH   4   6
ATOM      6  C   UNL     1       5.231   0.901   1.261  0.00  0.00    +0.035 A 
ATOM      7  C   UNL     1       5.681   0.857   2.574  0.00  0.00    +0.025 A 
ATOM      8  C   UNL     1       6.607  -0.096   2.953  0.00  0.00    +0.022 A 
ATOM      9  C   UNL     1       7.093  -0.999   2.024  0.00  0.00    +0.041 A 
ATOM     10  C   UNL     1       6.650  -0.953   0.714  0.00  0.00    +0.022 A 
ATOM     11  C   UNL     1       5.721  -0.006   0.330  0.00  0.00    +0.025 A 
ATOM     12 CL   UNL     1       8.261  -2.191   2.502  0.00  0.00    -0.084 Cl
ENDBRANCH   4   6
BRANCH   1  13
ATOM     13  C   UNL     1       2.326   3.657   0.128  0.00  0.00    +0.150 C 
BRANCH  13  20
ATOM     14  C   UNL     1       5.326   4.358  -7.230  0.00  0.00    +0.044 C 
ATOM     15  C   UNL     1       4.815   4.000  -5.858  0.00  0.00    -0.046 A 
ATOM     16  C   UNL     1       4.901   2.687  -5.415  0.00  0.00    +0.004 A 
ATOM     17  C   UNL     1       4.443   2.341  -4.175  0.00  0.00    +0.010 A 
ATOM     18  C   UNL     1       3.884   3.317  -3.345  0.00  0.00    -0.001 A 
ATOM     19  C   UNL     1       3.383   2.981  -2.010  0.00  0.00    +0.020 A 
ATOM     20  C   UNL     1       2.851   3.970  -1.250  0.00  0.00    +0.035 A 
ATOM     21  C   UNL     1       2.785   5.290  -1.745  0.00  0.00    +0.254 A 
ATOM     22  O   UNL     1       2.303   6.163  -1.046  0.00  0.00    -0.268 OA
ATOM     23  N   UNL     1       3.242   5.608  -2.969  0.00  0.00    -0.322 N 
ATOM     24  H   UNL     1       3.181   6.525  -3.279  0.00  0.00    +0.169 HD
ATOM     25  C   UNL     1       3.790   4.648  -3.793  0.00  0.00    +0.052 A 
ATOM     26  C   UNL     1       4.268   4.978  -5.057  0.00  0.00    -0.024 A 
ATOM     27  C   UNL     1       4.182   6.400  -5.551  0.00  0.00    +0.046 C 
ENDBRANCH  13  20
ENDBRANCH   1  13
BRANCH   1  28
ATOM     28  C   UNL     1       3.415   5.334   1.690  0.00  0.00    +0.114 C 
BRANCH  28  29
ATOM     29  C   UNL     1       2.537   5.408   2.940  0.00  0.00    +0.054 C 
BRANCH  29  30
ATOM     30  C   UNL     1       2.606   6.796   3.522  0.00  0.00    -0.042 A 
ATOM     31  C   UNL     1       3.568   7.102   4.467  0.00  0.00    +0.007 A 
ATOM     32  C   UNL     1       3.638   8.376   4.999  0.00  0.00    +0.049 A 
ATOM     33  C   UNL     1       2.737   9.347   4.593  0.00  0.00    +0.161 A 
ATOM     34  C   UNL     1       1.766   9.038   3.646  0.00  0.00    +0.162 A 
ATOM     35  C   UNL     1       1.704   7.761   3.113  0.00  0.00    +0.053 A 
BRANCH  34  36
ATOM     36  O   UNL     1       0.879   9.988   3.244  0.00  0.00    -0.491 OA
ATOM     37  C   UNL     1      -0.090   9.600   2.269  0.00  0.00    +0.277 C 
ENDBRANCH  34  36
BRANCH  33  38
ATOM     38  O   UNL     1       2.802  10.599   5.119  0.00  0.00    -0.491 OA
ATOM     39  C   UNL     1       3.825  10.844   6.087  0.00  0.00    +0.277 C 
ENDBRANCH  33  38
ENDBRANCH  29  30
ENDBRANCH  28  29
ENDBRANCH   1  28
TORSDOF 8
