REMARK  Name = ZINC21560959
REMARK  7 active torsions:
REMARK  status: ('A' for Active; 'I' for Inactive)
REMARK    1  A    between atoms: C_1  and  C_2
REMARK    2  A    between atoms: N_11  and  C_15
REMARK    3  A    between atoms: C_15  and  C_16
REMARK    4  A    between atoms: N_18  and  C_19
REMARK    5  A    between atoms: C_19  and  C_20
REMARK    6  A    between atoms: C_20  and  C_21
REMARK    7  A    between atoms: C_21  and  N_22
REMARK                            x       y       z     vdW  Elec       q    Type
REMARK                         _______ _______ _______ _____ _____    ______ ____
ROOT
ATOM      1  C   UNL     1      -4.440   4.260   3.117  0.00  0.00    +0.231 C 
ATOM      2  O   UNL     1      -5.102   4.699   2.201  0.00  0.00    -0.274 OA
ATOM      3  N   UNL     1      -3.335   3.531   2.861  0.00  0.00    -0.314 N 
ATOM      4  H   UNL     1      -2.734   3.132   3.692  0.00  0.00    +0.149 HD
ENDROOT
BRANCH   1   5
ATOM      5  C   UNL     1      -4.852   4.529   4.541  0.00  0.00    +0.213 C 
BRANCH   5  15
ATOM      6  C   UNL     1      -7.496   7.040   7.063  0.00  0.00    +0.010 C 
ATOM      7  C   UNL     1      -7.889   7.858   5.830  0.00  0.00    +0.018 C 
ATOM      8  C   UNL     1      -7.116   9.180   5.829  0.00  0.00    +0.006 C 
ATOM      9  C   UNL     1      -7.493   9.988   4.586  0.00  0.00    +0.000 C 
ATOM     10  C   UNL     1      -7.129   9.194   3.330  0.00  0.00    +0.003 C 
ATOM     11  C   UNL     1      -7.902   7.872   3.321  0.00  0.00    +0.035 C 
ATOM     12  C   UNL     1      -7.554   7.069   4.569  0.00  0.00    +0.115 C 
ATOM     13  C   UNL     1      -6.092   6.685   4.565  0.00  0.00    +0.247 C 
ATOM     14  O   UNL     1      -5.137   7.431   4.569  0.00  0.00    -0.273 OA
ATOM     15  N   UNL     1      -6.074   5.336   4.552  0.00  0.00    -0.215 N 
ATOM     16  C   UNL     1      -7.312   4.826   4.556  0.00  0.00    +0.310 C 
ATOM     17  O   UNL     1      -7.553   3.635   4.550  0.00  0.00    -0.252 OA
ATOM     18  N   UNL     1      -8.261   5.782   4.566  0.00  0.00    -0.285 N 
ATOM     19  H   UNL     1      -9.361   5.758   4.572  0.00  0.00    +0.151 HD
ENDBRANCH   5  15
ENDBRANCH   1   5
BRANCH   3  20
ATOM     20  C   UNL     1      -2.934   3.269   1.477  0.00  0.00    +0.106 C 
BRANCH  20  21
ATOM     21  C   UNL     1      -1.657   2.426   1.466  0.00  0.00    +0.038 C 
BRANCH  21  22
ATOM     22  C   UNL     1      -1.239   2.153   0.020  0.00  0.00    +0.119 C 
BRANCH  22  23
ATOM     23  N   UNL     1      -0.016   1.346   0.009  0.00  0.00    -0.224 N 
ATOM     24  C   UNL     1       0.002  -0.004   0.002  0.00  0.00    +0.246 C 
ATOM     25  O   UNL     1      -0.952  -0.753   0.007  0.00  0.00    -0.273 OA
ATOM     26  C   UNL     1       1.461  -0.382  -0.014  0.00  0.00    +0.113 C 
ATOM     27  C   UNL     1       1.804  -1.205  -1.263  0.00  0.00    +0.035 C 
ATOM     28  C   UNL     1       2.878  -2.208  -0.767  0.00  0.00    +0.003 C 
ATOM     29  C   UNL     1       2.390  -2.558   0.661  0.00  0.00    +0.003 C 
ATOM     30  C   UNL     1       1.831  -1.226   1.208  0.00  0.00    +0.035 C 
ATOM     31  N   UNL     1       2.171   0.899  -0.014  0.00  0.00    -0.285 N 
ATOM     32  C   UNL     1       1.222   1.856   0.000  0.00  0.00    +0.309 C 
ATOM     33  O   UNL     1       1.463   3.047   0.004  0.00  0.00    -0.252 OA
ATOM     34  H   UNL     1       3.271   0.918  -0.024  0.00  0.00    +0.151 HD
ENDBRANCH  22  23
ENDBRANCH  21  22
ENDBRANCH  20  21
ENDBRANCH   3  20
TORSDOF 6
