REMARK  Name = ZINC36739848
REMARK  12 active torsions:
REMARK  status: ('A' for Active; 'I' for Inactive)
REMARK    1  A    between atoms: C_1  and  C_2
REMARK    2  A    between atoms: C_2  and  N_3
REMARK    3  A    between atoms: N_3  and  C_4
REMARK    4  A    between atoms: N_3  and  S_6
REMARK    5  A    between atoms: C_4  and  C_5
REMARK    6  A    between atoms: S_6  and  C_9
REMARK    7  A    between atoms: C_12  and  N_15
REMARK    8  A    between atoms: C_16  and  C_18
REMARK    9  A    between atoms: C_18  and  C_19
REMARK   10  A    between atoms: C_19  and  C_21
REMARK   11  A    between atoms: C_19  and  N_27
REMARK   12  A    between atoms: C_28  and  C_30
REMARK                            x       y       z     vdW  Elec       q    Type
REMARK                         _______ _______ _______ _____ _____    ______ ____
ROOT
ATOM      1  N   UNL     1      -0.691   4.039  -5.829  0.00  0.00    -0.285 N 
ATOM      2  C   UNL     1       0.286   4.375  -6.694  0.00  0.00    +0.219 C 
ATOM      3  O   UNL     1       1.225   3.627  -6.869  0.00  0.00    -0.275 OA
ATOM      4  H   UNL     1      -1.475   4.604  -5.739  0.00  0.00    +0.155 HD
ENDROOT
BRANCH   1   8
ATOM      5  C   UNL     1      -0.346   0.574  -3.541  0.00  0.00    +0.106 A 
ATOM      6  C   UNL     1       0.148   0.601  -4.833  0.00  0.00    +0.030 A 
ATOM      7  C   UNL     1       0.035   1.748  -5.594  0.00  0.00    +0.025 A 
ATOM      8  C   UNL     1      -0.576   2.875  -5.061  0.00  0.00    +0.033 A 
ATOM      9  C   UNL     1      -1.071   2.845  -3.764  0.00  0.00    +0.025 A 
ATOM     10  C   UNL     1      -0.960   1.694  -3.010  0.00  0.00    +0.030 A 
BRANCH   5  11
ATOM     11  S   UNL     1      -0.200  -0.891  -2.574  0.00  0.00    +0.061 S 
ATOM     12  O   UNL     1      -0.259  -0.486  -1.213  0.00  0.00    -0.153 OA
ATOM     13  O   UNL     1       0.898  -1.621  -3.105  0.00  0.00    -0.153 OA
BRANCH  11  14
ATOM     14  N   UNL     1      -1.554  -1.801  -2.856  0.00  0.00    -0.177 NA
BRANCH  14  16
ATOM     15  C   UNL     1      -2.174  -2.147  -5.196  0.00  0.00    +0.022 C 
ATOM     16  C   UNL     1      -1.564  -2.781  -3.945  0.00  0.00    +0.106 C 
ENDBRANCH  14  16
BRANCH  14  17
ATOM     17  C   UNL     1      -2.743  -1.626  -2.017  0.00  0.00    +0.106 C 
ATOM     18  C   UNL     1      -2.728  -2.660  -0.890  0.00  0.00    +0.022 C 
ENDBRANCH  14  17
ENDBRANCH  11  14
ENDBRANCH   5  11
ENDBRANCH   1   8
BRANCH   2  19
ATOM     19  C   UNL     1       0.212   5.680  -7.445  0.00  0.00    +0.123 C 
BRANCH  19  20
ATOM     20  C   UNL     1       1.436   5.816  -8.353  0.00  0.00    +0.112 C 
BRANCH  20  21
ATOM     21  C   UNL     1       1.302   7.059  -9.194  0.00  0.00    -0.027 A 
ATOM     22  C   UNL     1       1.614   8.294  -8.656  0.00  0.00    +0.005 A 
ATOM     23  C   UNL     1       1.491   9.435  -9.427  0.00  0.00    +0.000 A 
ATOM     24  C   UNL     1       1.057   9.341 -10.736  0.00  0.00    +0.000 A 
ATOM     25  C   UNL     1       0.746   8.106 -11.274  0.00  0.00    +0.000 A 
ATOM     26  C   UNL     1       0.872   6.965 -10.504  0.00  0.00    +0.005 A 
ENDBRANCH  20  21
BRANCH  20  27
ATOM     27  N   UNL     1       2.646   5.909  -7.532  0.00  0.00    -0.304 N 
ATOM     28  C   UNL     1       3.836   5.537  -8.042  0.00  0.00    +0.245 C 
ATOM     29  O   UNL     1       3.906   5.123  -9.183  0.00  0.00    -0.270 OA
ATOM     30  H   UNL     1       2.590   6.238  -6.622  0.00  0.00    +0.150 HD
BRANCH  28  31
ATOM     31  C   UNL     1       5.057   5.630  -7.214  0.00  0.00    +0.037 A 
ATOM     32  C   UNL     1       4.979   6.099  -5.901  0.00  0.00    +0.013 A 
ATOM     33  C   UNL     1       6.122   6.184  -5.134  0.00  0.00    +0.001 A 
ATOM     34  C   UNL     1       7.344   5.806  -5.662  0.00  0.00    +0.000 A 
ATOM     35  C   UNL     1       7.428   5.341  -6.962  0.00  0.00    +0.001 A 
ATOM     36  C   UNL     1       6.292   5.246  -7.739  0.00  0.00    +0.013 A 
ENDBRANCH  28  31
ENDBRANCH  20  27
ENDBRANCH  19  20
ENDBRANCH   2  19
TORSDOF 10
