REMARK  Name = ZINC38831934
REMARK  12 active torsions:
REMARK  status: ('A' for Active; 'I' for Inactive)
REMARK    1  A    between atoms: C_1  and  C_2
REMARK    2  A    between atoms: N_7  and  C_9
REMARK    3  A    between atoms: C_9  and  C_10
REMARK    4  A    between atoms: C_14  and  C_16
REMARK    5  A    between atoms: C_16  and  N_17
REMARK    6  A    between atoms: C_18  and  C_20
REMARK    7  A    between atoms: N_23  and  S_35
REMARK    8  A    between atoms: C_26  and  C_31
REMARK    9  A    between atoms: C_31  and  C_32
REMARK   10  A    between atoms: C_31  and  C_33
REMARK   11  A    between atoms: C_31  and  C_34
REMARK   12  A    between atoms: S_35  and  C_38
REMARK                            x       y       z     vdW  Elec       q    Type
REMARK                         _______ _______ _______ _____ _____    ______ ____
ROOT
ATOM      1  N   UNL     1       3.056  -7.132  -0.065  0.00  0.00    -0.308 N 
ATOM      2  C   UNL     1       3.886  -7.915  -0.782  0.00  0.00    +0.256 C 
ATOM      3  O   UNL     1       4.898  -8.350  -0.275  0.00  0.00    -0.272 OA
ATOM      4  H   UNL     1       2.247  -6.784  -0.471  0.00  0.00    +0.149 HD
ENDROOT
BRANCH   2   5
ATOM      5  C   UNL     1       3.557  -8.249  -2.214  0.00  0.00    +0.277 C 
ATOM      6  C   UNL     1       2.280  -9.099  -2.264  0.00  0.00    +0.185 C 
ATOM      7  N   UNL     1       2.027  -9.441  -3.674  0.00  0.00    -0.200 N 
ATOM      8  C   UNL     1       3.127  -9.814  -4.462  0.00  0.00    +0.093 A 
ATOM      9  C   UNL     1       2.926 -10.416  -5.695  0.00  0.00    +0.032 A 
ATOM     10  C   UNL     1       4.013 -10.778  -6.469  0.00  0.00    -0.040 A 
ATOM     11  C   UNL     1       5.297 -10.540  -6.015  0.00  0.00    +0.008 A 
ATOM     12  C   UNL     1       5.503  -9.942  -4.786  0.00  0.00    +0.048 A 
ATOM     13  C   UNL     1       4.419  -9.577  -4.002  0.00  0.00    +0.144 A 
ATOM     14  O   UNL     1       4.632  -8.994  -2.792  0.00  0.00    -0.476 OA
BRANCH  10  15
ATOM     15  C   UNL     1       3.797 -11.432  -7.810  0.00  0.00    -0.013 C 
ATOM     16  C   UNL     1       2.996 -10.493  -8.713  0.00  0.00    +0.015 C 
ATOM     17  C   UNL     1       5.152 -11.729  -8.456  0.00  0.00    +0.015 C 
ATOM     18  C   UNL     1       3.025 -12.740  -7.621  0.00  0.00    +0.015 C 
ENDBRANCH  10  15
BRANCH   7  19
ATOM     19  S   UNL     1       0.498  -9.389  -4.307  0.00  0.00    +0.043 S 
ATOM     20  O   UNL     1      -0.240  -8.575  -3.406  0.00  0.00    -0.155 OA
ATOM     21  O   UNL     1       0.679  -8.991  -5.660  0.00  0.00    -0.155 OA
ATOM     22  C   UNL     1      -0.097 -11.101  -4.234  0.00  0.00    +0.218 C 
ENDBRANCH   7  19
ENDBRANCH   2   5
BRANCH   1  23
ATOM     23  C   UNL     1       3.376  -6.807   1.327  0.00  0.00    +0.139 C 
BRANCH  23  28
ATOM     24  C   UNL     1       1.411  -3.740   2.321  0.00  0.00    -0.064 A 
ATOM     25  C   UNL     1       0.315  -4.306   2.946  0.00  0.00    +0.002 A 
ATOM     26  C   UNL     1       0.210  -5.680   3.048  0.00  0.00    +0.001 A 
ATOM     27  C   UNL     1       1.201  -6.490   2.524  0.00  0.00    +0.005 A 
ATOM     28  C   UNL     1       2.296  -5.925   1.898  0.00  0.00    -0.030 A 
ATOM     29  C   UNL     1       2.398  -4.550   1.793  0.00  0.00    +0.007 A 
BRANCH  24  30
ATOM     30  C   UNL     1       1.525  -2.242   2.210  0.00  0.00    -0.043 C 
BRANCH  30  36
ATOM     31  C   UNL     1       0.148   1.678  -0.379  0.00  0.00    +0.005 C 
ATOM     32  C   UNL     1       0.146   0.149  -0.333  0.00  0.00    -0.031 C 
ATOM     33  C   UNL     1       0.855  -0.401  -1.574  0.00  0.00    -0.001 C 
ATOM     34  C   UNL     1       0.917  -1.928  -1.480  0.00  0.00    -0.018 C 
ATOM     35  C   UNL     1       1.626  -2.325  -0.183  0.00  0.00    -0.078 C 
ATOM     36  N   UNL     1       0.885  -1.793   0.967  0.00  0.00    +0.383 N 
ATOM     37  C   UNL     1       0.882  -0.326   0.922  0.00  0.00    -0.075 C 
ATOM     38  H   UNL     1      -0.065  -2.130   0.939  0.00  0.00    -0.081 HD
ENDBRANCH  30  36
ENDBRANCH  24  30
ENDBRANCH  23  28
ENDBRANCH   1  23
TORSDOF 7
