REMARK  Name = ZINC39630684
REMARK  11 active torsions:
REMARK  status: ('A' for Active; 'I' for Inactive)
REMARK    1  A    between atoms: C_1  and  C_2
REMARK    2  A    between atoms: C_2  and  C_3
REMARK    3  A    between atoms: C_2  and  C_4
REMARK    4  A    between atoms: C_2  and  C_32
REMARK    5  A    between atoms: C_4  and  N_5
REMARK    6  A    between atoms: C_6  and  C_8
REMARK    7  A    between atoms: C_19  and  C_21
REMARK    8  A    between atoms: C_24  and  C_28
REMARK    9  A    between atoms: C_32  and  N_33
REMARK   10  A    between atoms: N_33  and  C_34
REMARK   11  A    between atoms: N_33  and  C_35
REMARK                            x       y       z     vdW  Elec       q    Type
REMARK                         _______ _______ _______ _____ _____    ______ ____
ROOT
ATOM      1  C   UNL     1      -5.702  -0.044   1.698  0.00  0.00    +0.100 C 
ATOM      2  C   UNL     1      -5.373  -0.327   3.181  0.00  0.00    +0.121 C 
ATOM      3  N   UNL     1      -6.592  -0.976   3.718  0.00  0.00    -0.296 N 
ATOM      4  C   UNL     1      -7.047  -1.869   2.625  0.00  0.00    +0.115 C 
ATOM      5  C   UNL     1      -6.800  -1.058   1.337  0.00  0.00    -0.004 C 
ATOM      6  C   UNL     1      -6.322  -1.980   0.218  0.00  0.00    -0.010 C 
ATOM      7  C   UNL     1      -7.451  -2.940  -0.164  0.00  0.00    -0.082 C 
ATOM      8  N   UNL     1      -8.623  -2.172  -0.602  0.00  0.00    +0.379 N 
ATOM      9  C   UNL     1      -9.133  -1.359   0.508  0.00  0.00    -0.082 C 
ATOM     10  C   UNL     1      -8.074  -0.331   0.918  0.00  0.00    -0.010 C 
ATOM     11  C   UNL     1      -7.160  -0.795   4.927  0.00  0.00    +0.249 C 
ATOM     12  O   UNL     1      -8.216  -1.337   5.189  0.00  0.00    -0.270 OA
ATOM     13  H   UNL     1      -8.360  -1.568  -1.367  0.00  0.00    -0.086 HD
ATOM     14  H   UNL     1      -9.344  -2.807  -0.911  0.00  0.00    -0.086 HD
ENDROOT
BRANCH  11  15
ATOM     15  C   UNL     1      -6.500   0.062   5.932  0.00  0.00    +0.072 A 
ATOM     16  C   UNL     1      -5.113   0.224   5.914  0.00  0.00    +0.016 A 
ATOM     17  C   UNL     1      -4.502   1.025   6.855  0.00  0.00    +0.013 A 
ATOM     18  C   UNL     1      -5.260   1.670   7.818  0.00  0.00    +0.058 A 
ATOM     19  C   UNL     1      -6.633   1.516   7.845  0.00  0.00    +0.051 A 
ATOM     20  C   UNL     1      -7.260   0.720   6.904  0.00  0.00    +0.136 A 
ATOM     21  F   UNL     1      -8.603   0.573   6.927  0.00  0.00    -0.205 F 
BRANCH  18  22
ATOM     22  C   UNL     1      -4.583   2.543   8.843  0.00  0.00    +0.418 C 
ATOM     23  F   UNL     1      -4.506   3.854   8.360  0.00  0.00    -0.166 F 
ATOM     24  F   UNL     1      -5.322   2.527  10.031  0.00  0.00    -0.166 F 
ATOM     25  F   UNL     1      -3.294   2.061   9.089  0.00  0.00    -0.166 F 
ENDBRANCH  18  22
ENDBRANCH  11  15
BRANCH   1  27
ATOM     26  N   UNL     1      -4.317   0.455  -0.289  0.00  0.00    -0.315 N 
ATOM     27  C   UNL     1      -4.483  -0.263   0.839  0.00  0.00    +0.218 C 
ATOM     28  O   UNL     1      -3.652  -1.084   1.164  0.00  0.00    -0.275 OA
ATOM     29  H   UNL     1      -4.982   1.111  -0.549  0.00  0.00    +0.149 HD
BRANCH  26  30
ATOM     30  C   UNL     1      -3.132   0.242  -1.124  0.00  0.00    +0.108 C 
BRANCH  30  32
ATOM     31  C   UNL     1      -4.447   0.877  -3.152  0.00  0.00    +0.010 C 
ATOM     32  C   UNL     1      -3.187   1.176  -2.336  0.00  0.00    -0.034 C 
ATOM     33  C   UNL     1      -3.221   2.629  -1.858  0.00  0.00    +0.010 C 
BRANCH  32  34
ATOM     34  C   UNL     1      -1.950   0.954  -3.207  0.00  0.00    -0.072 C 
BRANCH  34  35
ATOM     35  N   UNL     1      -1.941   1.932  -4.303  0.00  0.00    +0.376 N 
ATOM     36  C   UNL     1      -1.300   3.172  -3.848  0.00  0.00    -0.097 C 
ATOM     37  C   UNL     1      -1.194   1.384  -5.443  0.00  0.00    -0.097 C 
ATOM     38  H   UNL     1      -2.890   2.129  -4.586  0.00  0.00    -0.083 HD
ENDBRANCH  34  35
ENDBRANCH  32  34
ENDBRANCH  30  32
ENDBRANCH  26  30
ENDBRANCH   1  27
TORSDOF 7
