REMARK  Name = ZINC09354283
REMARK  16 active torsions:
REMARK  status: ('A' for Active; 'I' for Inactive)
REMARK    1  A    between atoms: C_1  and  C_2
REMARK    2  A    between atoms: C_2  and  N_73
REMARK    3  A    between atoms: C_3  and  C_4
REMARK    4  A    between atoms: C_3  and  N_73
REMARK    5  A    between atoms: C_5  and  C_6
REMARK    6  A    between atoms: C_5  and  N_73
REMARK    7  A    between atoms: C_6  and  C_7
REMARK    8  A    between atoms: C_7  and  N_8
REMARK    9  A    between atoms: C_9  and  C_29
REMARK   10  A    between atoms: C_12  and  C_13
REMARK   11  A    between atoms: C_12  and  O_24
REMARK   12  A    between atoms: C_20  and  C_23
REMARK   13  A    between atoms: C_32  and  O_37
REMARK   14  A    between atoms: C_33  and  O_35
REMARK   15  A    between atoms: O_35  and  C_36
REMARK   16  A    between atoms: O_37  and  C_38
REMARK                            x       y       z     vdW  Elec       q    Type
REMARK                         _______ _______ _______ _____ _____    ______ ____
ROOT
ATOM      1  N   UNL     1      -6.107   2.329   0.148  0.00  0.00    -0.284 N 
ATOM      2  C   UNL     1      -5.133   1.242   0.020  0.00  0.00    +0.145 C 
ATOM      3  C   UNL     1      -3.780   1.891  -0.159  0.00  0.00    +0.071 C 
ATOM      4  C   UNL     1      -2.567   1.251  -0.318  0.00  0.00    +0.133 C 
ATOM      5  C   UNL     1      -4.005   3.275  -0.125  0.00  0.00    +0.249 C 
ATOM      6  O   UNL     1      -3.153   4.140  -0.231  0.00  0.00    -0.282 OA
ATOM      7  C   UNL     1      -5.463   3.505   0.061  0.00  0.00    +0.288 C 
ATOM      8  O   UNL     1      -5.992   4.595   0.130  0.00  0.00    -0.266 OA
ENDROOT
BRANCH   4   9
ATOM      9  C   UNL     1      -1.341   2.038  -0.523  0.00  0.00    +0.017 A 
ATOM     10  C   UNL     1      -0.231   1.847   0.309  0.00  0.00    +0.015 A 
ATOM     11  C   UNL     1       0.912   2.584   0.116  0.00  0.00    +0.046 A 
ATOM     12  C   UNL     1       0.981   3.527  -0.912  0.00  0.00    +0.124 A 
ATOM     13  C   UNL     1      -0.126   3.715  -1.736  0.00  0.00    -0.002 A 
ATOM     14  C   UNL     1      -1.272   2.982  -1.556  0.00  0.00    +0.019 A 
ATOM     15  C   UNL     1       0.238   4.804  -2.727  0.00  0.00    +0.083 C 
ATOM     16  C   UNL     1       1.494   5.424  -2.071  0.00  0.00    +0.175 C 
ATOM     17  O   UNL     1       2.007   4.342  -1.275  0.00  0.00    -0.488 OA
ATOM     18  C   UNL     1       1.113   6.613  -1.187  0.00  0.00    +0.052 C 
ENDBRANCH   4   9
BRANCH   2  19
ATOM     19  C   UNL     1      -5.138   0.396   1.268  0.00  0.00    -0.019 A 
ATOM     20  C   UNL     1      -5.276   0.994   2.506  0.00  0.00    +0.009 A 
ATOM     21  C   UNL     1      -5.281   0.222   3.653  0.00  0.00    +0.050 A 
ATOM     22  C   UNL     1      -5.148  -1.154   3.563  0.00  0.00    +0.162 A 
ATOM     23  C   UNL     1      -5.010  -1.756   2.316  0.00  0.00    +0.162 A 
ATOM     24  C   UNL     1      -5.011  -0.978   1.170  0.00  0.00    +0.055 A 
BRANCH  23  25
ATOM     25  O   UNL     1      -4.879  -3.107   2.222  0.00  0.00    -0.491 OA
ATOM     26  C   UNL     1      -4.741  -3.656   0.910  0.00  0.00    +0.277 C 
ENDBRANCH  23  25
BRANCH  22  27
ATOM     27  O   UNL     1      -5.153  -1.915   4.690  0.00  0.00    -0.491 OA
ATOM     28  C   UNL     1      -5.298  -1.228   5.935  0.00  0.00    +0.277 C 
ENDBRANCH  22  27
ENDBRANCH   2  19
BRANCH   4  29
ATOM     29  O   UNL     1      -2.506  -0.098  -0.285  0.00  0.00    -0.506 OA
ATOM     30  H   UNL     1      -1.559  -0.392  -0.416  0.00  0.00    +0.292 HD
ENDBRANCH   4  29
BRANCH   1  31
ATOM     31  C   UNL     1      -7.550   2.161   0.338  0.00  0.00    +0.107 C 
BRANCH  31  32
ATOM     32  C   UNL     1      -7.864   2.105   1.835  0.00  0.00    +0.000 C 
BRANCH  32  33
ATOM     33  C   UNL     1      -9.370   1.930   2.034  0.00  0.00    -0.077 C 
BRANCH  33  34
ATOM     34  N   UNL     1      -9.654   1.856   3.483  0.00  0.00    +0.379 N 
ATOM     35  H   UNL     1      -9.046   1.145   3.906  0.00  0.00    -0.082 HD
BRANCH  34  37
ATOM     36  C   UNL     1     -10.299   4.241   3.544  0.00  0.00    -0.017 C 
ATOM     37  C   UNL     1      -9.380   3.162   4.119  0.00  0.00    -0.082 C 
ENDBRANCH  34  37
BRANCH  34  38
ATOM     38  C   UNL     1     -11.065   1.473   3.702  0.00  0.00    -0.082 C 
ATOM     39  C   UNL     1     -11.241   1.061   5.165  0.00  0.00    -0.017 C 
ENDBRANCH  34  38
ENDBRANCH  33  34
ENDBRANCH  32  33
ENDBRANCH  31  32
ENDBRANCH   1  31
TORSDOF 11
