REMARK  Name = ZINC07283290
REMARK  9 active torsions:
REMARK  status: ('A' for Active; 'I' for Inactive)
REMARK    1  A    between atoms: C_1  and  C_2
REMARK    2  A    between atoms: C_2  and  C_3
REMARK    3  A    between atoms: C_2  and  C_4
REMARK    4  A    between atoms: C_4  and  C_6
REMARK    5  A    between atoms: C_4  and  N_23
REMARK    6  A    between atoms: N_8  and  N_9
REMARK    7  A    between atoms: C_10  and  C_12
REMARK    8  A    between atoms: C_12  and  C_13
REMARK    9  A    between atoms: C_24  and  C_26
REMARK                            x       y       z     vdW  Elec       q    Type
REMARK                         _______ _______ _______ _____ _____    ______ ____
ROOT
ATOM      1  C   UNL     1      -0.527   1.464  -0.244  0.00  0.00    +0.250 C 
ATOM      2  O   UNL     1       0.199   2.435  -0.226  0.00  0.00    -0.272 OA
ATOM      3  N   UNL     1      -1.864   1.623  -0.310  0.00  0.00    -0.233 N 
ATOM      4  H   UNL     1      -2.447   0.850  -0.257  0.00  0.00    +0.173 HD
ENDROOT
BRANCH   3   5
ATOM      5  N   UNL     1      -2.410   2.905  -0.456  0.00  0.00    -0.234 N 
ATOM      6  C   UNL     1      -3.747   3.064  -0.522  0.00  0.00    +0.230 C 
ATOM      7  O   UNL     1      -4.477   2.097  -0.456  0.00  0.00    -0.274 OA
ATOM      8  H   UNL     1      -1.827   3.677  -0.509  0.00  0.00    +0.173 HD
BRANCH   6   9
ATOM      9  C   UNL     1      -4.335   4.442  -0.678  0.00  0.00    +0.104 C 
BRANCH   9  10
ATOM     10  C   UNL     1      -5.861   4.344  -0.727  0.00  0.00    -0.020 C 
ATOM     11  C   UNL     1      -6.278   3.474  -1.914  0.00  0.00    +0.011 C 
ATOM     12  C   UNL     1      -7.804   3.375  -1.962  0.00  0.00    -0.010 C 
ATOM     13  C   UNL     1      -8.401   4.775  -2.121  0.00  0.00    +0.007 C 
ATOM     14  C   UNL     1      -7.984   5.645  -0.934  0.00  0.00    -0.010 C 
ATOM     15  C   UNL     1      -6.458   5.744  -0.885  0.00  0.00    +0.011 C 
ATOM     16  C   UNL     1      -8.495   5.017   0.364  0.00  0.00    +0.007 C 
ATOM     17  C   UNL     1      -7.899   3.617   0.523  0.00  0.00    -0.010 C 
ATOM     18  C   UNL     1      -8.316   2.747  -0.665  0.00  0.00    +0.007 C 
ATOM     19  C   UNL     1      -6.373   3.716   0.571  0.00  0.00    +0.011 C 
ENDBRANCH   9  10
ENDBRANCH   6   9
ENDBRANCH   3   5
BRANCH   1  20
ATOM     20  C   UNL     1       0.065   0.079  -0.199  0.00  0.00    +0.163 C 
BRANCH  20  21
ATOM     21  N   UNL     1       1.479   0.140  -0.580  0.00  0.00    -0.299 N 
ATOM     22  C   UNL     1       2.085  -0.948  -1.097  0.00  0.00    +0.251 C 
ATOM     23  O   UNL     1       1.458  -1.980  -1.247  0.00  0.00    -0.270 OA
ATOM     24  H   UNL     1       1.978   0.962  -0.460  0.00  0.00    +0.150 HD
BRANCH  22  25
ATOM     25  C   UNL     1       3.499  -0.887  -1.478  0.00  0.00    +0.074 A 
ATOM     26  C   UNL     1       4.301  -1.878  -2.020  0.00  0.00    +0.021 A 
ATOM     27  C   UNL     1       5.607  -1.550  -2.287  0.00  0.00    +0.008 A 
ATOM     28  C   UNL     1       6.044  -0.293  -2.012  0.00  0.00    +0.046 A 
ATOM     29  S   UNL     1       4.634   0.486  -1.372  0.00  0.00    -0.092 S 
ENDBRANCH  22  25
ENDBRANCH  20  21
BRANCH  20  31
ATOM     30  C   UNL     1       0.433  -1.932   1.238  0.00  0.00    +0.009 C 
ATOM     31  C   UNL     1      -0.057  -0.482   1.219  0.00  0.00    +0.012 C 
ATOM     32  C   UNL     1       0.795   0.356   2.175  0.00  0.00    +0.009 C 
ENDBRANCH  20  31
ENDBRANCH   1  20
TORSDOF 7
