REMARK  Name = ZINC08907627
REMARK  8 active torsions:
REMARK  status: ('A' for Active; 'I' for Inactive)
REMARK    1  A    between atoms: C_1  and  C_2
REMARK    2  A    between atoms: C_4  and  C_24
REMARK    3  A    between atoms: C_5  and  O_9
REMARK    4  A    between atoms: C_7  and  C_8
REMARK    5  A    between atoms: O_9  and  C_10
REMARK    6  A    between atoms: C_10  and  C_11
REMARK    7  A    between atoms: N_13  and  C_14
REMARK    8  A    between atoms: C_16  and  N_21
REMARK                            x       y       z     vdW  Elec       q    Type
REMARK                         _______ _______ _______ _____ _____    ______ ____
ROOT
ATOM      1  C   UNL     1       2.320   4.173   0.104  0.00  0.00    +0.255 C 
ATOM      2  O   UNL     1       3.378   3.581   0.091  0.00  0.00    -0.272 OA
ATOM      3  N   UNL     1       1.163   3.487   0.009  0.00  0.00    -0.281 N 
ATOM      4  H   UNL     1       0.321   3.963  -0.061  0.00  0.00    +0.155 HD
ENDROOT
BRANCH   3   5
ATOM      5  C   UNL     1       1.177   2.087   0.013  0.00  0.00    +0.054 A 
ATOM      6  C   UNL     1       2.229   1.403   0.608  0.00  0.00    +0.057 A 
ATOM      7  C   UNL     1       2.241   0.022   0.610  0.00  0.00    +0.128 A 
ATOM      8  C   UNL     1       1.206  -0.680   0.020  0.00  0.00    +0.034 A 
ATOM      9  C   UNL     1       0.157  -0.003  -0.574  0.00  0.00    +0.024 A 
ATOM     10  C   UNL     1       0.139   1.379  -0.579  0.00  0.00    +0.062 A 
ATOM     11 CL   UNL     1      -1.175   2.228  -1.331  0.00  0.00    -0.082 Cl
BRANCH   7  12
ATOM     12  N   UNL     1       3.362  -0.707   1.243  0.00  0.00    +0.056 N 
ATOM     13  O   UNL     1       3.373  -1.925   1.245  0.00  0.00    -0.126 OA
ATOM     14  O   UNL     1       4.274  -0.089   1.763  0.00  0.00    -0.126 OA
ENDBRANCH   7  12
ENDBRANCH   3   5
BRANCH   1  15
ATOM     15  C   UNL     1       2.297   5.675   0.225  0.00  0.00    +0.324 C 
BRANCH  15  16
ATOM     16  O   UNL     1       3.637   6.166   0.310  0.00  0.00    -0.482 OA
BRANCH  16  21
ATOM     17  C   UNL     1       4.291  11.740   0.784  0.00  0.00    +0.044 C 
ATOM     18  C   UNL     1       4.116  10.248   0.657  0.00  0.00    -0.047 A 
ATOM     19  C   UNL     1       5.225   9.423   0.627  0.00  0.00    +0.010 A 
ATOM     20  C   UNL     1       5.067   8.056   0.517  0.00  0.00    -0.009 A 
ATOM     21  C   UNL     1       3.795   7.511   0.424  0.00  0.00    +0.124 A 
ATOM     22  C   UNL     1       2.684   8.341   0.455  0.00  0.00    +0.049 A 
ATOM     23  C   UNL     1       2.847   9.707   0.571  0.00  0.00    -0.044 A 
ATOM     24  C   UNL     1       1.640  10.610   0.605  0.00  0.00    +0.044 C 
ATOM     25  C   UNL     1       6.276   7.156   0.491  0.00  0.00    +0.047 C 
ENDBRANCH  16  21
ENDBRANCH  15  16
ENDBRANCH   1  15
TORSDOF 5
