REMARK  Name = ZINC65706066
REMARK  6 active torsions:
REMARK  status: ('A' for Active; 'I' for Inactive)
REMARK    1  A    between atoms: C_1  and  C_2
REMARK    2  A    between atoms: C_5  and  C_9
REMARK    3  A    between atoms: C_6  and  C_8
REMARK    4  A    between atoms: C_15  and  C_17
REMARK    5  A    between atoms: N_19  and  C_20
REMARK    6  A    between atoms: N_23  and  C_26
REMARK                            x       y       z     vdW  Elec       q    Type
REMARK                         _______ _______ _______ _____ _____    ______ ____
ROOT
ATOM      1  C   UNL     1       0.059  -4.251  -0.021  0.00  0.00    +0.134 A 
ATOM      2  N   UNL     1       0.070  -5.110   0.992  0.00  0.00    -0.140 NA
ATOM      3  N   UNL     1       0.086  -6.357   0.807  0.00  0.00    -0.125 NA
ATOM      4  C   UNL     1       0.094  -6.886  -0.411  0.00  0.00    +0.188 A 
ATOM      5  S   UNL     1       0.068  -5.394  -1.400  0.00  0.00    -0.030 S 
ATOM      6  N   UNL     1       0.113  -8.216  -0.805  0.00  0.00    -0.255 N 
ATOM      7  C   UNL     1       0.125  -9.193   0.123  0.00  0.00    +0.305 C 
ATOM      8  O   UNL     1       0.120  -8.910   1.303  0.00  0.00    -0.265 OA
ATOM      9  H   UNL     1       0.117  -8.442  -1.748  0.00  0.00    +0.157 HD
ENDROOT
BRANCH   1  14
ATOM     10  C   UNL     1      -0.018   1.503   0.010  0.00  0.00    +0.044 C 
ATOM     11  C   UNL     1       0.002  -0.004   0.002  0.00  0.00    -0.050 A 
ATOM     12  C   UNL     1       0.006  -0.686  -1.202  0.00  0.00    +0.004 A 
ATOM     13  C   UNL     1       0.024  -2.066  -1.216  0.00  0.00    +0.011 A 
ATOM     14  C   UNL     1       0.040  -2.773  -0.013  0.00  0.00    +0.012 A 
ATOM     15  C   UNL     1       0.036  -2.079   1.197  0.00  0.00    -0.040 A 
ATOM     16  C   UNL     1       0.023  -0.699   1.198  0.00  0.00    +0.007 A 
ATOM     17  C   UNL     1       0.052  -2.834   2.501  0.00  0.00    +0.044 C 
ENDBRANCH   1  14
BRANCH   7  18
ATOM     18  C   UNL     1       0.145 -10.625  -0.301  0.00  0.00    +0.300 C 
ATOM     19  O   UNL     1       0.150 -10.908  -1.481  0.00  0.00    -0.265 OA
ATOM     20  N   UNL     1       0.157 -11.602   0.627  0.00  0.00    -0.305 N 
ATOM     21  H   UNL     1       0.153 -11.376   1.570  0.00  0.00    +0.149 HD
BRANCH  20  22
ATOM     22  C   UNL     1       0.176 -13.007   0.211  0.00  0.00    +0.070 C 
ATOM     23  C   UNL     1      -1.256 -13.484  -0.047  0.00  0.00    +0.004 C 
ATOM     24  C   UNL     1      -1.235 -14.972  -0.404  0.00  0.00    -0.077 C 
ATOM     25  N   UNL     1      -0.655 -15.737   0.707  0.00  0.00    +0.382 N 
ATOM     26  C   UNL     1       0.741 -15.335   0.913  0.00  0.00    -0.077 C 
ATOM     27  C   UNL     1       0.796 -13.861   1.320  0.00  0.00    +0.004 C 
ATOM     28  H   UNL     1      -1.183 -15.559   1.548  0.00  0.00    -0.081 HD
BRANCH  25  29
ATOM     29  C   UNL     1      -0.709 -17.171   0.392  0.00  0.00    -0.069 C 
ATOM     30  C   UNL     1      -1.660 -18.040   1.217  0.00  0.00    -0.017 C 
ATOM     31  C   UNL     1      -0.149 -18.144   1.432  0.00  0.00    -0.017 C 
ENDBRANCH  25  29
ENDBRANCH  20  22
ENDBRANCH   7  18
TORSDOF 4
