REMARK  Name = ZINC39632595
REMARK  4 active torsions:
REMARK  status: ('A' for Active; 'I' for Inactive)
REMARK    1  A    between atoms: C_3  and  N_28
REMARK    2  A    between atoms: C_6  and  C_7
REMARK    3  A    between atoms: C_11  and  C_20
REMARK    4  A    between atoms: N_22  and  C_23
REMARK                            x       y       z     vdW  Elec       q    Type
REMARK                         _______ _______ _______ _____ _____    ______ ____
ROOT
ATOM      1  C   UNL     1      -0.741  -0.696  -0.211  0.00  0.00    +0.248 C 
ATOM      2  O   UNL     1      -1.708   0.035  -0.112  0.00  0.00    -0.270 OA
ATOM      3  N   UNL     1      -0.904  -2.034  -0.211  0.00  0.00    -0.296 N 
ATOM      4  C   UNL     1       0.148  -3.077  -0.175  0.00  0.00    +0.121 C 
ATOM      5  C   UNL     1      -0.418  -4.170   0.760  0.00  0.00    +0.100 C 
ATOM      6  C   UNL     1      -1.944  -3.980   0.707  0.00  0.00    -0.004 C 
ATOM      7  C   UNL     1      -2.176  -2.794  -0.240  0.00  0.00    +0.115 C 
ATOM      8  C   UNL     1      -2.484  -3.652   2.095  0.00  0.00    -0.010 C 
ATOM      9  C   UNL     1      -4.008  -3.524   2.027  0.00  0.00    -0.082 C 
ATOM     10  N   UNL     1      -4.586  -4.783   1.540  0.00  0.00    +0.379 N 
ATOM     11  C   UNL     1      -4.133  -5.043   0.168  0.00  0.00    -0.082 C 
ATOM     12  C   UNL     1      -2.614  -5.235   0.157  0.00  0.00    -0.010 C 
ATOM     13  H   UNL     1      -4.292  -5.540   2.139  0.00  0.00    -0.086 HD
ATOM     14  H   UNL     1      -5.593  -4.717   1.554  0.00  0.00    -0.086 HD
ENDROOT
BRANCH   1  20
ATOM     15  C   UNL     1       1.669  -0.882  -0.846  0.00  0.00    +0.018 A 
ATOM     16  C   UNL     1       2.907  -0.305  -0.940  0.00  0.00    +0.044 A 
ATOM     17  C   UNL     1       3.080   1.014  -0.524  0.00  0.00    +0.121 A 
ATOM     18  N   UNL     1       2.063   1.715  -0.041  0.00  0.00    -0.240 NA
ATOM     19  C   UNL     1       0.857   1.198   0.066  0.00  0.00    +0.126 A 
ATOM     20  C   UNL     1       0.612  -0.118  -0.331  0.00  0.00    +0.055 A 
BRANCH  17  21
ATOM     21  N   UNL     1       4.330   1.601  -0.618  0.00  0.00    -0.311 N 
ATOM     22  C   UNL     1       4.511   3.041  -0.377  0.00  0.00    +0.134 C 
ATOM     23  C   UNL     1       5.653   3.223   0.629  0.00  0.00    +0.178 C 
ATOM     24  O   UNL     1       6.803   2.507   0.172  0.00  0.00    -0.377 OA
ATOM     25  C   UNL     1       6.611   1.093   0.075  0.00  0.00    +0.178 C 
ATOM     26  C   UNL     1       5.519   0.801  -0.954  0.00  0.00    +0.134 C 
ENDBRANCH  17  21
ENDBRANCH   1  20
BRANCH   5  27
ATOM     27  C   UNL     1       0.089  -3.973   2.165  0.00  0.00    +0.218 C 
ATOM     28  O   UNL     1       0.277  -2.853   2.590  0.00  0.00    -0.275 OA
ATOM     29  N   UNL     1       0.333  -5.041   2.949  0.00  0.00    -0.312 N 
ATOM     30  H   UNL     1       0.182  -5.937   2.609  0.00  0.00    +0.149 HD
BRANCH  29  31
ATOM     31  C   UNL     1       0.826  -4.850   4.316  0.00  0.00    +0.073 C 
ATOM     32  C   UNL     1       2.366  -4.771   4.315  0.00  0.00    +0.022 C 
ATOM     33  C   UNL     1       2.784  -5.506   5.614  0.00  0.00    +0.002 C 
ATOM     34  C   UNL     1       1.771  -6.676   5.686  0.00  0.00    +0.002 C 
ATOM     35  C   UNL     1       0.447  -6.061   5.187  0.00  0.00    +0.022 C 
ENDBRANCH  29  31
ENDBRANCH   5  27
TORSDOF 4
