REMARK  Name = ZINC22975764
REMARK  8 active torsions:
REMARK  status: ('A' for Active; 'I' for Inactive)
REMARK    1  A    between atoms: C_1  and  C_2
REMARK    2  A    between atoms: C_2  and  N_3
REMARK    3  A    between atoms: C_9  and  C_15
REMARK    4  A    between atoms: N_17  and  C_18
REMARK    5  A    between atoms: C_23  and  O_24
REMARK    6  A    between atoms: O_24  and  C_25
REMARK    7  A    between atoms: C_25  and  C_26
REMARK    8  A    between atoms: C_28  and  C_31
REMARK                            x       y       z     vdW  Elec       q    Type
REMARK                         _______ _______ _______ _____ _____    ______ ____
ROOT
ATOM      1  C   UNL     1       2.738   5.677   0.923  0.00  0.00    +0.248 C 
ATOM      2  O   UNL     1       1.548   5.444   1.005  0.00  0.00    -0.270 OA
ATOM      3  N   UNL     1       3.597   4.691   0.598  0.00  0.00    -0.278 N 
ATOM      4  H   UNL     1       4.680   4.878   0.613  0.00  0.00    +0.155 HD
ENDROOT
BRANCH   1  11
ATOM      5  N   UNL     1       3.786  11.895   2.244  0.00  0.00    -0.287 N 
ATOM      6  C   UNL     1       4.707  10.958   1.922  0.00  0.00    +0.262 A 
ATOM      7  O   UNL     1       5.890  11.235   1.851  0.00  0.00    -0.267 OA
ATOM      8  C   UNL     1       4.227   9.592   1.660  0.00  0.00    +0.065 A 
ATOM      9  C   UNL     1       5.102   8.561   1.321  0.00  0.00    +0.016 A 
ATOM     10  C   UNL     1       4.617   7.305   1.092  0.00  0.00    +0.014 A 
ATOM     11  C   UNL     1       3.244   7.044   1.182  0.00  0.00    +0.039 A 
ATOM     12  C   UNL     1       2.354   8.056   1.518  0.00  0.00    +0.041 A 
ATOM     13  C   UNL     1       2.839   9.344   1.761  0.00  0.00    +0.080 A 
ATOM     14  N   UNL     1       2.009  10.361   2.091  0.00  0.00    -0.222 NA
ATOM     15  C   UNL     1       2.462  11.569   2.320  0.00  0.00    +0.183 A 
ATOM     16  S   UNL     1       1.309  12.832   2.744  0.00  0.00    -0.011 S 
BRANCH   5  18
ATOM     17  C   UNL     1       4.520  13.426   4.005  0.00  0.00    +0.027 C 
ATOM     18  C   UNL     1       4.212  13.271   2.514  0.00  0.00    +0.124 C 
ENDBRANCH   5  18
ENDBRANCH   1  11
BRANCH   3  19
ATOM     19  C   UNL     1       3.109   3.428   0.240  0.00  0.00    +0.079 A 
ATOM     20  C   UNL     1       1.830   3.301  -0.277  0.00  0.00    +0.073 A 
ATOM     21  C   UNL     1       1.339   2.050  -0.634  0.00  0.00    +0.126 A 
ATOM     22  C   UNL     1       2.147   0.933  -0.458  0.00  0.00    +0.001 A 
ATOM     23  C   UNL     1       3.421   1.054   0.051  0.00  0.00    +0.055 A 
ATOM     24  C   UNL     1       3.912   2.301   0.404  0.00  0.00    +0.142 A 
ATOM     25  C   UNL     1       1.346  -0.271  -0.917  0.00  0.00    +0.083 C 
ATOM     26  C   UNL     1      -0.091   0.299  -0.961  0.00  0.00    +0.175 C 
ATOM     27  O   UNL     1       0.130   1.706  -1.159  0.00  0.00    -0.488 OA
ATOM     28  C   UNL     1      -0.875  -0.297  -2.132  0.00  0.00    +0.052 C 
BRANCH  24  29
ATOM     29  O   UNL     1       5.170   2.425   0.908  0.00  0.00    -0.490 OA
BRANCH  29  30
ATOM     30  C   UNL     1       5.933   1.225   1.048  0.00  0.00    +0.226 C 
ATOM     31  C   UNL     1       7.309   1.560   1.626  0.00  0.00    +0.048 C 
ENDBRANCH  29  30
ENDBRANCH  24  29
ENDBRANCH   3  19
TORSDOF 5
