REMARK  Name = ZINC12896338
REMARK  11 active torsions:
REMARK  status: ('A' for Active; 'I' for Inactive)
REMARK    1  A    between atoms: C_1  and  C_2
REMARK    2  A    between atoms: C_6  and  O_32
REMARK    3  A    between atoms: C_12  and  C_13
REMARK    4  A    between atoms: C_13  and  C_14
REMARK    5  A    between atoms: C_14  and  C_15
REMARK    6  A    between atoms: N_17  and  C_18
REMARK    7  A    between atoms: C_18  and  C_19
REMARK    8  A    between atoms: C_19  and  C_20
REMARK    9  A    between atoms: C_28  and  O_30
REMARK   10  A    between atoms: O_30  and  C_31
REMARK   11  A    between atoms: O_32  and  C_33
REMARK                            x       y       z     vdW  Elec       q    Type
REMARK                         _______ _______ _______ _____ _____    ______ ____
ROOT
ATOM      1  C   UNL     1       6.683  -3.857   1.361  0.00  0.00    +0.213 C 
ATOM      2  O   UNL     1       7.191  -4.167   0.304  0.00  0.00    -0.276 OA
ATOM      3  N   UNL     1       7.269  -4.214   2.521  0.00  0.00    -0.315 N 
ATOM      4  H   UNL     1       6.863  -3.966   3.366  0.00  0.00    +0.149 HD
ENDROOT
BRANCH   1   5
ATOM      5  C   UNL     1       5.396  -3.074   1.377  0.00  0.00    +0.100 C 
BRANCH   5   6
ATOM      6  C   UNL     1       4.947  -2.801  -0.060  0.00  0.00    +0.052 C 
BRANCH   6  18
ATOM      7  C   UNL     1       4.998   0.087  -0.045  0.00  0.00    +0.045 C 
ATOM      8  C   UNL     1       3.689  -0.659  -0.037  0.00  0.00    -0.030 A 
ATOM      9  C   UNL     1       2.414   0.061  -0.021  0.00  0.00    +0.021 A 
ATOM     10  C   UNL     1       2.376   1.460  -0.013  0.00  0.00    +0.015 A 
ATOM     11  C   UNL     1       1.174   2.106   0.002  0.00  0.00    +0.046 A 
ATOM     12  C   UNL     1      -0.017   1.381   0.010  0.00  0.00    +0.124 A 
ATOM     13  C   UNL     1       0.002  -0.004   0.002  0.00  0.00    +0.092 A 
ATOM     14  C   UNL     1       1.215  -0.676  -0.013  0.00  0.00    +0.143 A 
ATOM     15  O   UNL     1       1.256  -2.026  -0.021  0.00  0.00    -0.422 OA
ATOM     16  C   UNL     1       2.421  -2.692  -0.036  0.00  0.00    +0.341 A 
ATOM     17  O   UNL     1       2.409  -3.910  -0.042  0.00  0.00    -0.245 OA
ATOM     18  C   UNL     1       3.659  -2.017  -0.044  0.00  0.00    +0.041 A 
BRANCH  12  19
ATOM     19  O   UNL     1      -1.204   2.038   0.019  0.00  0.00    -0.495 OA
ATOM     20  C   UNL     1      -1.156   3.466   0.026  0.00  0.00    +0.277 C 
ENDBRANCH  12  19
ENDBRANCH   6  18
ENDBRANCH   5   6
ENDBRANCH   1   5
BRANCH   3  21
ATOM     21  C   UNL     1       8.520  -4.976   2.505  0.00  0.00    +0.109 C 
BRANCH  21  22
ATOM     22  C   UNL     1       8.969  -5.248   3.942  0.00  0.00    +0.056 C 
BRANCH  22  23
ATOM     23  C   UNL     1      10.257  -6.032   3.926  0.00  0.00    -0.021 A 
ATOM     24  C   UNL     1      10.380  -7.365   4.011  0.00  0.00    +0.087 A 
ATOM     25  N   UNL     1      11.704  -7.715   3.963  0.00  0.00    -0.360 N 
ATOM     26  H   UNL     1      12.042  -8.623   4.007  0.00  0.00    +0.165 HD
ATOM     27  C   UNL     1      12.482  -6.586   3.843  0.00  0.00    +0.050 A 
ATOM     28  C   UNL     1      11.610  -5.482   3.808  0.00  0.00    +0.003 A 
ATOM     29  C   UNL     1      12.124  -4.189   3.696  0.00  0.00    +0.014 A 
ATOM     30  C   UNL     1      13.475  -4.000   3.609  0.00  0.00    +0.046 A 
ATOM     31  C   UNL     1      14.343  -5.088   3.637  0.00  0.00    +0.122 A 
ATOM     32  C   UNL     1      13.854  -6.375   3.753  0.00  0.00    +0.071 A 
BRANCH  31  33
ATOM     33  O   UNL     1      15.684  -4.882   3.550  0.00  0.00    -0.495 OA
ATOM     34  C   UNL     1      16.126  -3.528   3.432  0.00  0.00    +0.277 C 
ENDBRANCH  31  33
ENDBRANCH  22  23
ENDBRANCH  21  22
ENDBRANCH   3  21
TORSDOF 8
