REMARK  Name = ZINC20215409
REMARK  6 active torsions:
REMARK  status: ('A' for Active; 'I' for Inactive)
REMARK    1  A    between atoms: C_1  and  C_2
REMARK    2  A    between atoms: C_2  and  N_3
REMARK    3  A    between atoms: C_6  and  C_8
REMARK    4  A    between atoms: N_10  and  C_11
REMARK    5  A    between atoms: C_12  and  C_20
REMARK    6  A    between atoms: N_22  and  C_23
REMARK                            x       y       z     vdW  Elec       q    Type
REMARK                         _______ _______ _______ _____ _____    ______ ____
ROOT
ATOM      1  C   UNL     1      -1.201   1.630   0.018  0.00  0.00    +0.085 A 
ATOM      2  C   UNL     1      -2.489   1.112   0.014  0.00  0.00    +0.069 A 
ATOM      3  C   UNL     1      -3.593   2.057   0.028  0.00  0.00    -0.023 A 
ATOM      4  C   UNL     1      -3.235   3.360   0.033  0.00  0.00    -0.004 A 
ATOM      5  S   UNL     1      -1.465   3.342   0.027  0.00  0.00    -0.077 S 
ATOM      6  C   UNL     1      -4.147   4.547   0.040  0.00  0.00    +0.043 C 
ATOM      7  C   UNL     1      -5.559   4.074  -0.336  0.00  0.00    +0.005 C 
ATOM      8  C   UNL     1      -5.903   2.836   0.497  0.00  0.00    +0.005 C 
ATOM      9  C   UNL     1      -5.060   1.647   0.032  0.00  0.00    +0.037 C 
ENDROOT
BRANCH   1  12
ATOM     10  C   UNL     1       1.166   1.624   0.005  0.00  0.00    +0.269 C 
ATOM     11  O   UNL     1       1.159   2.840   0.011  0.00  0.00    -0.268 OA
ATOM     12  N   UNL     1       0.002   0.944   0.011  0.00  0.00    -0.274 N 
ATOM     13  H   UNL     1       0.009  -0.156   0.010  0.00  0.00    +0.156 HD
BRANCH  10  17
ATOM     14  N   UNL     1       3.856  -0.709  -0.028  0.00  0.00    -0.271 N 
ATOM     15  C   UNL     1       4.601   0.417  -0.027  0.00  0.00    +0.109 A 
ATOM     16  C   UNL     1       3.743   1.465  -0.021  0.00  0.00    +0.054 A 
ATOM     17  C   UNL     1       2.449   0.893  -0.008  0.00  0.00    +0.147 A 
ATOM     18  N   UNL     1       2.606  -0.415  -0.017  0.00  0.00    -0.167 NA
BRANCH  14  20
ATOM     19  C   UNL     1       3.825  -2.857   1.142  0.00  0.00    +0.029 C 
ATOM     20  C   UNL     1       4.397  -2.071  -0.040  0.00  0.00    +0.140 C 
ENDBRANCH  14  20
ENDBRANCH  10  17
ENDBRANCH   1  12
BRANCH   2  21
ATOM     21  C   UNL     1      -2.727  -0.334  -0.000  0.00  0.00    +0.251 C 
ATOM     22  O   UNL     1      -2.826  -0.945   1.048  0.00  0.00    -0.270 OA
ATOM     23  N   UNL     1      -2.837  -0.988  -1.174  0.00  0.00    -0.280 N 
ATOM     24  H   UNL     1      -2.839  -0.425  -2.119  0.00  0.00    +0.155 HD
BRANCH  23  25
ATOM     25  C   UNL     1      -2.948  -2.382  -1.190  0.00  0.00    +0.054 A 
ATOM     26  C   UNL     1      -2.448  -3.133  -0.134  0.00  0.00    +0.044 A 
ATOM     27  C   UNL     1      -2.559  -4.510  -0.154  0.00  0.00    +0.043 A 
ATOM     28  C   UNL     1      -3.168  -5.142  -1.224  0.00  0.00    +0.021 A 
ATOM     29  C   UNL     1      -3.667  -4.398  -2.277  0.00  0.00    +0.023 A 
ATOM     30  C   UNL     1      -3.564  -3.019  -2.261  0.00  0.00    +0.062 A 
ATOM     31 CL   UNL     1      -4.197  -2.085  -3.580  0.00  0.00    -0.082 Cl
ATOM     32 CL   UNL     1      -1.935  -5.449   1.166  0.00  0.00    -0.083 Cl
ENDBRANCH  23  25
ENDBRANCH   2  21
TORSDOF 5
