REMARK  Name = ZINC21577479
REMARK  8 active torsions:
REMARK  status: ('A' for Active; 'I' for Inactive)
REMARK    1  A    between atoms: C_1  and  C_2
REMARK    2  A    between atoms: C_2  and  C_3
REMARK    3  A    between atoms: C_3  and  C_4
REMARK    4  A    between atoms: N_9  and  C_12
REMARK    5  A    between atoms: C_17  and  N_18
REMARK    6  A    between atoms: N_18  and  C_19
REMARK    7  A    between atoms: C_19  and  N_21
REMARK    8  A    between atoms: C_22  and  C_24
REMARK                            x       y       z     vdW  Elec       q    Type
REMARK                         _______ _______ _______ _____ _____    ______ ____
ROOT
ATOM      1  C   UNL     1       2.337  -2.783   0.152  0.00  0.00    +0.051 A 
ATOM      2  C   UNL     1       2.300  -4.166   0.242  0.00  0.00    +0.026 A 
ATOM      3  C   UNL     1       1.086  -4.826   0.242  0.00  0.00    +0.022 A 
ATOM      4  C   UNL     1      -0.095  -4.111   0.158  0.00  0.00    +0.043 A 
ATOM      5  C   UNL     1      -0.067  -2.730   0.073  0.00  0.00    +0.045 A 
ATOM      6  C   UNL     1       1.147  -2.060   0.073  0.00  0.00    +0.055 A 
ATOM      7 CL   UNL     1      -1.617  -4.947   0.158  0.00  0.00    -0.083 Cl
ENDROOT
BRANCH   1  13
ATOM      8  C   UNL     1       7.639  -1.985   0.186  0.00  0.00    +0.216 C 
ATOM      9  O   UNL     1       8.220  -2.084   1.246  0.00  0.00    -0.276 OA
ATOM     10  N   UNL     1       6.322  -1.697   0.164  0.00  0.00    -0.298 N 
ATOM     11  C   UNL     1       5.571  -1.500   1.413  0.00  0.00    +0.126 C 
ATOM     12  C   UNL     1       4.322  -2.387   1.375  0.00  0.00    +0.124 C 
ATOM     13  N   UNL     1       3.567  -2.112   0.146  0.00  0.00    -0.325 N 
ATOM     14  C   UNL     1       4.349  -2.458  -1.049  0.00  0.00    +0.124 C 
ATOM     15  C   UNL     1       5.598  -1.573  -1.111  0.00  0.00    +0.126 C 
BRANCH   8  16
ATOM     16  C   UNL     1       8.389  -2.183  -1.105  0.00  0.00    +0.096 C 
BRANCH  16  18
ATOM     17  C   UNL     1      10.617  -2.697  -2.112  0.00  0.00    +0.004 C 
ATOM     18  C   UNL     1       9.855  -2.496  -0.801  0.00  0.00    +0.006 C 
ENDBRANCH  16  18
ENDBRANCH   8  16
ENDBRANCH   1  13
BRANCH   6  19
ATOM     19  N   UNL     1       1.178  -0.662  -0.013  0.00  0.00    -0.295 N 
ATOM     20  H   UNL     1       1.850  -0.086   0.641  0.00  0.00    +0.154 HD
BRANCH  19  21
ATOM     21  C   UNL     1       0.385  -0.023  -0.896  0.00  0.00    +0.141 C 
ATOM     22  S   UNL     1      -0.556  -0.922  -2.008  0.00  0.00    -0.018 S 
BRANCH  21  23
ATOM     23  N   UNL     1       0.333   1.324  -0.903  0.00  0.00    -0.264 N 
ATOM     24  C   UNL     1      -0.456   1.963  -1.789  0.00  0.00    +0.251 C 
ATOM     25  O   UNL     1      -1.120   1.325  -2.582  0.00  0.00    -0.270 OA
ATOM     26  H   UNL     1       0.934   1.901  -0.185  0.00  0.00    +0.157 HD
BRANCH  24  27
ATOM     27  C   UNL     1      -0.513   3.438  -1.797  0.00  0.00    +0.055 A 
ATOM     28  C   UNL     1       0.249   4.174  -0.887  0.00  0.00    +0.016 A 
ATOM     29  C   UNL     1       0.192   5.551  -0.900  0.00  0.00    +0.021 A 
ATOM     30  C   UNL     1      -0.619   6.207  -1.813  0.00  0.00    +0.042 A 
ATOM     31  C   UNL     1      -1.377   5.484  -2.718  0.00  0.00    +0.040 A 
ATOM     32  C   UNL     1      -1.325   4.104  -2.719  0.00  0.00    +0.054 A 
ATOM     33 CL   UNL     1      -2.272   3.199  -3.859  0.00  0.00    -0.083 Cl
ATOM     34 CL   UNL     1      -0.685   7.941  -1.821  0.00  0.00    -0.083 Cl
ENDBRANCH  24  27
ENDBRANCH  21  23
ENDBRANCH  19  21
ENDBRANCH   6  19
TORSDOF 7
