REMARK  Name = ZINC35070296
REMARK  12 active torsions:
REMARK  status: ('A' for Active; 'I' for Inactive)
REMARK    1  A    between atoms: C_1  and  C_2
REMARK    2  A    between atoms: C_5  and  N_9
REMARK    3  A    between atoms: C_6  and  C_8
REMARK    4  A    between atoms: C_19  and  C_20
REMARK    5  A    between atoms: C_20  and  C_22
REMARK    6  A    between atoms: C_20  and  N_23
REMARK    7  A    between atoms: N_23  and  C_24
REMARK    8  A    between atoms: C_24  and  C_25
REMARK    9  A    between atoms: C_25  and  N_26
REMARK   10  A    between atoms: N_26  and  C_27
REMARK   11  A    between atoms: N_26  and  C_28
REMARK   12  A    between atoms: N_31  and  C_32
REMARK                            x       y       z     vdW  Elec       q    Type
REMARK                         _______ _______ _______ _____ _____    ______ ____
ROOT
ATOM      1  C   UNL     1       2.286  -4.143   0.040  0.00  0.00    +0.141 C 
ATOM      2  C   UNL     1       1.975  -2.992  -0.919  0.00  0.00    +0.036 C 
ENDROOT
BRANCH   1  13
ATOM      3  N   UNL     1       0.570  -5.538   1.125  0.00  0.00    -0.263 N 
ATOM      4  C   UNL     1      -0.429  -6.450   1.113  0.00  0.00    +0.266 A 
ATOM      5  O   UNL     1      -0.991  -6.787   2.139  0.00  0.00    -0.267 OA
ATOM      6  C   UNL     1      -0.810  -7.019  -0.188  0.00  0.00    +0.065 A 
ATOM      7  C   UNL     1      -1.827  -7.965  -0.309  0.00  0.00    +0.015 A 
ATOM      8  C   UNL     1      -2.144  -8.465  -1.553  0.00  0.00    +0.001 A 
ATOM      9  C   UNL     1      -1.460  -8.035  -2.683  0.00  0.00    +0.002 A 
ATOM     10  C   UNL     1      -0.452  -7.102  -2.585  0.00  0.00    +0.028 A 
ATOM     11  C   UNL     1      -0.113  -6.579  -1.335  0.00  0.00    +0.078 A 
ATOM     12  N   UNL     1       0.872  -5.658  -1.193  0.00  0.00    -0.231 NA
ATOM     13  C   UNL     1       1.184  -5.168  -0.032  0.00  0.00    +0.138 A 
BRANCH   3  18
ATOM     14  C   UNL     1       2.198  -3.217   6.041  0.00  0.00    +0.044 C 
ATOM     15  C   UNL     1       1.766  -3.834   4.735  0.00  0.00    -0.050 A 
ATOM     16  C   UNL     1       0.843  -3.183   3.937  0.00  0.00    +0.005 A 
ATOM     17  C   UNL     1       0.445  -3.744   2.740  0.00  0.00    +0.027 A 
ATOM     18  C   UNL     1       0.972  -4.965   2.338  0.00  0.00    +0.054 A 
ATOM     19  C   UNL     1       1.899  -5.616   3.142  0.00  0.00    -0.026 A 
ATOM     20  C   UNL     1       2.297  -5.046   4.335  0.00  0.00    +0.008 A 
ATOM     21  C   UNL     1       2.473  -6.941   2.710  0.00  0.00    +0.046 C 
ENDBRANCH   3  18
ENDBRANCH   1  13
BRANCH   1  22
ATOM     22  N   UNL     1       3.557  -4.765  -0.341  0.00  0.00    -0.277 N 
ATOM     23  C   UNL     1       4.583  -4.790   0.533  0.00  0.00    +0.307 C 
ATOM     24  O   UNL     1       4.454  -4.296   1.637  0.00  0.00    -0.252 OA
ATOM     25  N   UNL     1       5.752  -5.362   0.183  0.00  0.00    -0.269 N 
ATOM     26  H   UNL     1       5.832  -5.821  -0.667  0.00  0.00    +0.156 HD
BRANCH  25  27
ATOM     27  C   UNL     1       6.852  -5.293   1.047  0.00  0.00    +0.035 A 
ATOM     28  C   UNL     1       7.763  -6.340   1.099  0.00  0.00    +0.025 A 
ATOM     29  C   UNL     1       8.846  -6.269   1.952  0.00  0.00    +0.022 A 
ATOM     30  C   UNL     1       9.024  -5.157   2.755  0.00  0.00    +0.041 A 
ATOM     31  C   UNL     1       8.118  -4.112   2.706  0.00  0.00    +0.022 A 
ATOM     32  C   UNL     1       7.036  -4.175   1.850  0.00  0.00    +0.025 A 
ATOM     33 CL   UNL     1      10.388  -5.071   3.827  0.00  0.00    -0.084 Cl
ENDBRANCH  25  27
BRANCH  22  34
ATOM     34  C   UNL     1       3.712  -5.359  -1.670  0.00  0.00    +0.091 C 
BRANCH  34  35
ATOM     35  C   UNL     1       4.233  -4.301  -2.645  0.00  0.00    -0.060 C 
BRANCH  35  36
ATOM     36  N   UNL     1       4.389  -4.897  -3.978  0.00  0.00    +0.377 N 
ATOM     37  C   UNL     1       3.071  -5.288  -4.497  0.00  0.00    -0.097 C 
ATOM     38  C   UNL     1       5.000  -3.916  -4.885  0.00  0.00    -0.097 C 
ATOM     39  H   UNL     1       4.981  -5.712  -3.915  0.00  0.00    -0.083 HD
ENDBRANCH  35  36
ENDBRANCH  34  35
ENDBRANCH  22  34
ENDBRANCH   1  22
TORSDOF 7
