REMARK  Name = ZINC07375481
REMARK  12 active torsions:
REMARK  status: ('A' for Active; 'I' for Inactive)
REMARK    1  A    between atoms: C_1  and  C_2
REMARK    2  A    between atoms: C_3  and  C_27
REMARK    3  A    between atoms: C_4  and  C_26
REMARK    4  A    between atoms: C_5  and  S_10
REMARK    5  A    between atoms: C_6  and  C_9
REMARK    6  A    between atoms: C_7  and  C_8
REMARK    7  A    between atoms: S_10  and  N_13
REMARK    8  A    between atoms: N_13  and  C_14
REMARK    9  A    between atoms: C_14  and  C_15
REMARK   10  A    between atoms: C_15  and  C_16
REMARK   11  A    between atoms: C_19  and  S_22
REMARK   12  A    between atoms: S_22  and  N_25
REMARK                            x       y       z     vdW  Elec       q    Type
REMARK                         _______ _______ _______ _____ _____    ______ ____
ROOT
ATOM      1  N   UNL     1      -3.411   4.296  -1.512  0.00  0.00    -0.190 NA
ATOM      2  H   UNL     1      -3.592   5.207  -1.790  0.00  0.00    +0.148 HD
ENDROOT
BRANCH   1   3
ATOM      3  S   UNL     1      -2.985   3.978   0.057  0.00  0.00    +0.059 S 
ATOM      4  O   UNL     1      -3.810   2.906   0.492  0.00  0.00    -0.153 OA
ATOM      5  O   UNL     1      -2.945   5.229   0.729  0.00  0.00    -0.153 OA
BRANCH   3  10
ATOM      6  C   UNL     1       2.672   1.881  -0.020  0.00  0.00    +0.044 C 
ATOM      7  C   UNL     1       1.259   2.405  -0.001  0.00  0.00    -0.044 A 
ATOM      8  C   UNL     1       1.026   3.760   0.135  0.00  0.00    -0.043 A 
ATOM      9  C   UNL     1      -0.270   4.240   0.158  0.00  0.00    -0.021 A 
ATOM     10  C   UNL     1      -1.333   3.365   0.035  0.00  0.00    +0.112 A 
ATOM     11  C   UNL     1      -1.101   2.010  -0.102  0.00  0.00    -0.021 A 
ATOM     12  C   UNL     1       0.196   1.529  -0.120  0.00  0.00    -0.043 A 
ATOM     13  C   UNL     1       0.449   0.051  -0.269  0.00  0.00    +0.044 C 
ATOM     14  C   UNL     1      -2.260   1.056  -0.232  0.00  0.00    +0.046 C 
ATOM     15  C   UNL     1      -0.524   5.718   0.313  0.00  0.00    +0.046 C 
ATOM     16  C   UNL     1       2.185   4.715   0.265  0.00  0.00    +0.044 C 
ENDBRANCH   3  10
ENDBRANCH   1   3
BRANCH   1  17
ATOM     17  C   UNL     1      -3.515   3.200  -2.479  0.00  0.00    +0.110 C 
BRANCH  17  18
ATOM     18  C   UNL     1      -4.268   3.685  -3.719  0.00  0.00    +0.052 C 
BRANCH  18  19
ATOM     19  C   UNL     1      -4.374   2.558  -4.714  0.00  0.00    -0.046 A 
ATOM     20  C   UNL     1      -3.391   2.384  -5.670  0.00  0.00    +0.005 A 
ATOM     21  C   UNL     1      -3.486   1.348  -6.580  0.00  0.00    +0.029 A 
ATOM     22  C   UNL     1      -4.571   0.491  -6.540  0.00  0.00    +0.105 A 
ATOM     23  C   UNL     1      -5.557   0.668  -5.588  0.00  0.00    +0.029 A 
ATOM     24  C   UNL     1      -5.459   1.702  -4.675  0.00  0.00    +0.005 A 
BRANCH  22  25
ATOM     25  S   UNL     1      -4.695  -0.827  -7.702  0.00  0.00    +0.056 S 
ATOM     26  O   UNL     1      -3.373  -1.108  -8.141  0.00  0.00    -0.153 OA
ATOM     27  O   UNL     1      -5.526  -1.815  -7.109  0.00  0.00    -0.153 OA
BRANCH  25  28
ATOM     28  N   UNL     1      -5.516  -0.245  -9.017  0.00  0.00    -0.204 NA
ATOM     29  H   UNL     1      -5.336  -0.604  -9.900  0.00  0.00    +0.144 HD
ATOM     30  H   UNL     1      -6.178   0.455  -8.904  0.00  0.00    +0.144 HD
ENDBRANCH  25  28
ENDBRANCH  22  25
ENDBRANCH  18  19
ENDBRANCH  17  18
ENDBRANCH   1  17
TORSDOF 7
