REMARK  Name = ZINC46773307
REMARK  7 active torsions:
REMARK  status: ('A' for Active; 'I' for Inactive)
REMARK    1  A    between atoms: C_1  and  C_2
REMARK    2  A    between atoms: C_6  and  C_16
REMARK    3  A    between atoms: N_8  and  C_9
REMARK    4  A    between atoms: N_18  and  N_19
REMARK    5  A    between atoms: N_19  and  C_20
REMARK    6  A    between atoms: C_20  and  N_22
REMARK    7  A    between atoms: N_22  and  C_23
REMARK                            x       y       z     vdW  Elec       q    Type
REMARK                         _______ _______ _______ _____ _____    ______ ____
ROOT
ATOM      1  C   UNL     1      -0.126  -4.263   0.315  0.00  0.00    +0.284 C 
ATOM      2  O   UNL     1      -0.462  -4.942  -0.636  0.00  0.00    -0.267 OA
ATOM      3  N   UNL     1      -0.003  -4.824   1.534  0.00  0.00    -0.230 N 
ATOM      4  H   UNL     1       0.265  -4.282   2.292  0.00  0.00    +0.173 HD
ENDROOT
BRANCH   1  10
ATOM      5  C   UNL     1       0.972   1.312  -0.202  0.00  0.00    +0.066 C 
ATOM      6  C   UNL     1       0.665  -0.162  -0.151  0.00  0.00    +0.044 A 
ATOM      7  C   UNL     1       0.300  -0.809  -1.283  0.00  0.00    +0.076 A 
ATOM      8  C   UNL     1       0.019  -2.197  -1.192  0.00  0.00    +0.213 A 
ATOM      9  O   UNL     1      -0.315  -2.844  -2.172  0.00  0.00    -0.285 OA
ATOM     10  C   UNL     1       0.148  -2.823   0.133  0.00  0.00    +0.194 A 
ATOM     11  N   UNL     1       0.513  -2.076   1.154  0.00  0.00    -0.158 NA
ATOM     12  N   UNL     1       0.763  -0.825   1.028  0.00  0.00    -0.236 N 
BRANCH  12  13
ATOM     13  C   UNL     1       1.150  -0.107   2.164  0.00  0.00    +0.066 A 
ATOM     14  C   UNL     1       0.377  -0.161   3.318  0.00  0.00    +0.029 A 
ATOM     15  C   UNL     1       0.762   0.549   4.438  0.00  0.00    +0.022 A 
ATOM     16  C   UNL     1       1.915   1.313   4.412  0.00  0.00    +0.041 A 
ATOM     17  C   UNL     1       2.687   1.369   3.265  0.00  0.00    +0.022 A 
ATOM     18  C   UNL     1       2.310   0.656   2.143  0.00  0.00    +0.029 A 
ATOM     19 CL   UNL     1       2.396   2.205   5.823  0.00  0.00    -0.084 Cl
ENDBRANCH  12  13
ENDBRANCH   1  10
BRANCH   3  20
ATOM     20  N   UNL     1      -0.264  -6.190   1.706  0.00  0.00    -0.245 N 
ATOM     21  H   UNL     1      -0.532  -6.732   0.948  0.00  0.00    +0.172 HD
BRANCH  20  22
ATOM     22  C   UNL     1      -0.141  -6.750   2.926  0.00  0.00    +0.151 C 
ATOM     23  S   UNL     1      -0.459  -8.419   3.136  0.00  0.00    -0.017 S 
BRANCH  22  24
ATOM     24  N   UNL     1       0.232  -5.997   3.979  0.00  0.00    -0.295 N 
ATOM     25  H   UNL     1       0.371  -5.044   3.869  0.00  0.00    +0.154 HD
BRANCH  24  26
ATOM     26  C   UNL     1       0.418  -6.591   5.233  0.00  0.00    +0.051 A 
ATOM     27  C   UNL     1       1.010  -7.844   5.329  0.00  0.00    +0.026 A 
ATOM     28  C   UNL     1       1.192  -8.428   6.567  0.00  0.00    +0.022 A 
ATOM     29  C   UNL     1       0.786  -7.766   7.713  0.00  0.00    +0.042 A 
ATOM     30  C   UNL     1       0.196  -6.518   7.621  0.00  0.00    +0.041 A 
ATOM     31  C   UNL     1       0.016  -5.926   6.385  0.00  0.00    +0.063 A 
ATOM     32 CL   UNL     1      -0.717  -4.357   6.272  0.00  0.00    -0.082 Cl
ATOM     33 CL   UNL     1       1.017  -8.504   9.267  0.00  0.00    -0.083 Cl
ENDBRANCH  24  26
ENDBRANCH  22  24
ENDBRANCH  20  22
ENDBRANCH   3  20
TORSDOF 6
