REMARK  Name = ZINC67366505
REMARK  10 active torsions:
REMARK  status: ('A' for Active; 'I' for Inactive)
REMARK    1  A    between atoms: C_1  and  C_2
REMARK    2  A    between atoms: C_2  and  C_3
REMARK    3  A    between atoms: C_2  and  C_4
REMARK    4  A    between atoms: C_2  and  O_5
REMARK    5  A    between atoms: O_5  and  C_6
REMARK    6  A    between atoms: N_8  and  C_9
REMARK    7  A    between atoms: N_8  and  C_10
REMARK    8  A    between atoms: C_10  and  C_11
REMARK    9  A    between atoms: C_16  and  N_17
REMARK   10  A    between atoms: C_18  and  C_20
REMARK                            x       y       z     vdW  Elec       q    Type
REMARK                         _______ _______ _______ _____ _____    ______ ____
ROOT
ATOM      1  C   UNL     1       4.955  -1.149  -2.068  0.00  0.00    -0.009 A 
ATOM      2  C   UNL     1       5.453  -1.068  -0.782  0.00  0.00    +0.007 A 
ATOM      3  C   UNL     1       6.310  -2.045  -0.309  0.00  0.00    +0.000 A 
ATOM      4  C   UNL     1       6.671  -3.104  -1.121  0.00  0.00    +0.002 A 
ATOM      5  C   UNL     1       6.177  -3.191  -2.407  0.00  0.00    +0.023 A 
ATOM      6  C   UNL     1       5.311  -2.214  -2.884  0.00  0.00    +0.038 A 
ENDROOT
BRANCH   6   7
ATOM      7  N   UNL     1       4.805  -2.301  -4.184  0.00  0.00    -0.281 N 
ATOM      8  C   UNL     1       4.718  -3.500  -4.795  0.00  0.00    +0.254 C 
ATOM      9  O   UNL     1       4.980  -4.516  -4.180  0.00  0.00    -0.270 OA
ATOM     10  H   UNL     1       4.515  -1.500  -4.647  0.00  0.00    +0.155 HD
BRANCH   8  11
ATOM     11  C   UNL     1       4.308  -3.579  -6.205  0.00  0.00    +0.101 A 
ATOM     12  C   UNL     1       4.105  -4.812  -6.818  0.00  0.00    +0.023 A 
ATOM     13  C   UNL     1       3.715  -4.853  -8.159  0.00  0.00    -0.027 A 
ATOM     14  C   UNL     1       3.537  -3.699  -8.852  0.00  0.00    +0.022 A 
ATOM     15  N   UNL     1       3.735  -2.494  -8.255  0.00  0.00    -0.325 N 
ATOM     16  H   UNL     1       3.601  -1.683  -8.771  0.00  0.00    +0.169 HD
ATOM     17  C   UNL     1       4.105  -2.399  -6.967  0.00  0.00    +0.261 A 
ATOM     18  O   UNL     1       4.271  -1.305  -6.457  0.00  0.00    -0.267 OA
ATOM     19  C   UNL     1       3.118  -4.010 -10.276  0.00  0.00    +0.054 C 
ATOM     20  C   UNL     1       3.484  -5.494 -10.489  0.00  0.00    +0.011 C 
ATOM     21  C   UNL     1       3.434  -6.047  -9.048  0.00  0.00    +0.037 C 
ENDBRANCH   8  11
ENDBRANCH   6   7
BRANCH   1  22
ATOM     22  C   UNL     1       4.020  -0.084  -2.583  0.00  0.00    +0.147 C 
BRANCH  22  25
ATOM     23  C   UNL     1       1.945  -0.150  -1.307  0.00  0.00    +0.403 C 
ATOM     24  O   UNL     1       2.474   0.551  -0.467  0.00  0.00    -0.226 OA
ATOM     25  N   UNL     1       2.634  -0.523  -2.404  0.00  0.00    -0.266 N 
ATOM     26  C   UNL     1       1.997  -1.368  -3.416  0.00  0.00    +0.136 C 
BRANCH  23  27
ATOM     27  O   UNL     1       0.671  -0.553  -1.142  0.00  0.00    -0.445 OA
BRANCH  27  29
ATOM     28  C   UNL     1      -0.044   1.409   0.073  0.00  0.00    +0.055 C 
ATOM     29  C   UNL     1       0.002  -0.120   0.043  0.00  0.00    +0.107 C 
ATOM     30  C   UNL     1       0.757  -0.632   1.272  0.00  0.00    +0.055 C 
ATOM     31  C   UNL     1      -1.425  -0.673   0.055  0.00  0.00    +0.055 C 
ENDBRANCH  27  29
ENDBRANCH  23  27
ENDBRANCH  22  25
ENDBRANCH   1  22
TORSDOF 6
