REMARK  Name = ZINC02504007
REMARK  7 active torsions:
REMARK  status: ('A' for Active; 'I' for Inactive)
REMARK    1  A    between atoms: C_1  and  O_2
REMARK    2  A    between atoms: O_2  and  C_3
REMARK    3  A    between atoms: C_3  and  C_5
REMARK    4  A    between atoms: C_5  and  C_6
REMARK    5  A    between atoms: C_5  and  C_16
REMARK    6  A    between atoms: C_5  and  N_20
REMARK    7  A    between atoms: N_23  and  C_24
REMARK                            x       y       z     vdW  Elec       q    Type
REMARK                         _______ _______ _______ _____ _____    ______ ____
ROOT
ATOM      1  C   UNL     1       3.966   0.504  -0.162  0.00  0.00    +0.256 C 
ENDROOT
BRANCH   1   2
ATOM      2  C   UNL     1       2.517   0.751  -0.494  0.00  0.00    +0.020 A 
ATOM      3  C   UNL     1       1.587  -0.181  -0.753  0.00  0.00    +0.090 A 
ATOM      4  N   UNL     1       0.385   0.418  -1.013  0.00  0.00    -0.360 N 
ATOM      5  H   UNL     1      -0.437  -0.051  -1.228  0.00  0.00    +0.165 HD
ATOM      6  C   UNL     1       0.515   1.786  -0.925  0.00  0.00    +0.047 A 
ATOM      7  C   UNL     1       1.856   2.055  -0.595  0.00  0.00    +0.006 A 
ATOM      8  C   UNL     1       2.284   3.374  -0.438  0.00  0.00    +0.010 A 
ATOM      9  C   UNL     1       1.395   4.400  -0.605  0.00  0.00    +0.001 A 
ATOM     10  C   UNL     1       0.071   4.140  -0.930  0.00  0.00    +0.002 A 
ATOM     11  C   UNL     1      -0.373   2.845  -1.085  0.00  0.00    +0.026 A 
ENDBRANCH   1   2
BRANCH   1  12
ATOM     12  N   UNL     1       4.228  -0.937  -0.160  0.00  0.00    -0.273 N 
ATOM     13  C   UNL     1       3.932  -1.677  -1.247  0.00  0.00    +0.305 C 
ATOM     14  O   UNL     1       3.533  -1.136  -2.260  0.00  0.00    -0.252 OA
ATOM     15  N   UNL     1       4.078  -3.016  -1.211  0.00  0.00    -0.269 N 
ATOM     16  H   UNL     1       4.614  -1.359   0.623  0.00  0.00    +0.152 HD
ATOM     17  H   UNL     1       4.468  -3.441  -0.431  0.00  0.00    +0.156 HD
BRANCH  15  18
ATOM     18  C   UNL     1       3.668  -3.794  -2.300  0.00  0.00    +0.036 A 
ATOM     19  C   UNL     1       2.568  -3.409  -3.055  0.00  0.00    +0.023 A 
ATOM     20  C   UNL     1       2.168  -4.176  -4.132  0.00  0.00    +0.003 A 
ATOM     21  C   UNL     1       2.855  -5.332  -4.452  0.00  0.00    +0.020 A 
ATOM     22  C   UNL     1       3.949  -5.722  -3.699  0.00  0.00    +0.043 A 
ATOM     23  C   UNL     1       4.356  -4.955  -2.623  0.00  0.00    +0.043 A 
ATOM     24 CL   UNL     1       4.808  -7.175  -4.104  0.00  0.00    -0.083 Cl
ENDBRANCH  15  18
ENDBRANCH   1  12
BRANCH   1  25
ATOM     25  C   UNL     1       4.277   1.081   1.221  0.00  0.00    +0.425 C 
ATOM     26  F   UNL     1       3.386   0.550   2.159  0.00  0.00    -0.167 F 
ATOM     27  F   UNL     1       5.587   0.746   1.581  0.00  0.00    -0.167 F 
ATOM     28  F   UNL     1       4.144   2.473   1.187  0.00  0.00    -0.167 F 
ENDBRANCH   1  25
BRANCH   1  29
ATOM     29  C   UNL     1       4.838   1.173  -1.192  0.00  0.00    +0.344 C 
ATOM     30  O   UNL     1       5.279   2.279  -0.986  0.00  0.00    -0.248 OA
BRANCH  29  32
ATOM     31  C   UNL     1       5.973   1.243  -3.287  0.00  0.00    +0.280 C 
ATOM     32  O   UNL     1       5.127   0.539  -2.340  0.00  0.00    -0.466 OA
ENDBRANCH  29  32
ENDBRANCH   1  29
TORSDOF 6
