REMARK  Name = ZINC13880652
REMARK  8 active torsions:
REMARK  status: ('A' for Active; 'I' for Inactive)
REMARK    1  A    between atoms: C_1  and  C_2
REMARK    2  A    between atoms: C_6  and  C_24
REMARK    3  A    between atoms: C_7  and  O_8
REMARK    4  A    between atoms: O_8  and  C_9
REMARK    5  A    between atoms: C_9  and  C_10
REMARK    6  A    between atoms: N_12  and  N_13
REMARK    7  A    between atoms: C_14  and  C_15
REMARK    8  A    between atoms: C_17  and  N_21
REMARK                            x       y       z     vdW  Elec       q    Type
REMARK                         _______ _______ _______ _____ _____    ______ ____
ROOT
ATOM      1  C   UNL     1       4.885   4.038  -1.170  0.00  0.00    +0.270 C 
ATOM      2  O   UNL     1       5.045   4.465  -0.046  0.00  0.00    -0.270 OA
ATOM      3  N   UNL     1       5.477   4.652  -2.214  0.00  0.00    -0.204 N 
ATOM      4  H   UNL     1       5.349   4.311  -3.113  0.00  0.00    +0.177 HD
ENDROOT
BRANCH   3   5
ATOM      5  N   UNL     1       6.278   5.782  -2.001  0.00  0.00    -0.188 NA
ATOM      6  C   UNL     1       6.760   6.436  -3.013  0.00  0.00    +0.142 C 
BRANCH   6   7
ATOM      7  C   UNL     1       6.269   6.155  -4.373  0.00  0.00    +0.043 A 
ATOM      8  C   UNL     1       4.986   5.635  -4.564  0.00  0.00    +0.046 A 
ATOM      9  C   UNL     1       4.530   5.380  -5.840  0.00  0.00    +0.127 A 
ATOM     10  C   UNL     1       5.343   5.627  -6.934  0.00  0.00    +0.036 A 
ATOM     11  C   UNL     1       6.615   6.136  -6.758  0.00  0.00    +0.054 A 
ATOM     12  C   UNL     1       7.087   6.403  -5.484  0.00  0.00    +0.188 A 
ATOM     13  O   UNL     1       8.338   6.903  -5.310  0.00  0.00    -0.287 OA
BRANCH   9  14
ATOM     14  N   UNL     1       3.169   4.834  -6.041  0.00  0.00    +0.056 N 
ATOM     15  O   UNL     1       2.766   4.602  -7.167  0.00  0.00    -0.126 OA
ATOM     16  O   UNL     1       2.453   4.616  -5.080  0.00  0.00    -0.126 OA
ENDBRANCH   9  14
ENDBRANCH   6   7
ENDBRANCH   3   5
BRANCH   1  17
ATOM     17  C   UNL     1       4.024   2.823  -1.400  0.00  0.00    +0.326 C 
BRANCH  17  18
ATOM     18  O   UNL     1       3.513   2.358  -0.149  0.00  0.00    -0.482 OA
BRANCH  18  25
ATOM     19  C   UNL     1       4.755  -0.168   0.094  0.00  0.00    +0.047 C 
ATOM     20  C   UNL     1       3.265  -0.006  -0.064  0.00  0.00    -0.007 A 
ATOM     21  C   UNL     1       2.449  -1.121  -0.094  0.00  0.00    +0.022 A 
ATOM     22  C   UNL     1       1.081  -0.974  -0.245  0.00  0.00    +0.019 A 
ATOM     23  C   UNL     1       0.527   0.289  -0.355  0.00  0.00    +0.022 A 
ATOM     24  C   UNL     1       1.340   1.406  -0.325  0.00  0.00    -0.007 A 
ATOM     25  C   UNL     1       2.712   1.261  -0.179  0.00  0.00    +0.127 A 
ATOM     26  C   UNL     1       0.737   2.781  -0.450  0.00  0.00    +0.047 C 
ATOM     27 BR   UNL     1      -0.033  -2.501  -0.294  0.00  0.00    -0.050 Br
ENDBRANCH  18  25
ENDBRANCH  17  18
ENDBRANCH   1  17
TORSDOF 6
