REMARK  Name = ZINC46024078
REMARK  7 active torsions:
REMARK  status: ('A' for Active; 'I' for Inactive)
REMARK    1  A    between atoms: C_1  and  C_2
REMARK    2  A    between atoms: C_2  and  C_3
REMARK    3  A    between atoms: C_2  and  C_4
REMARK    4  A    between atoms: C_2  and  C_5
REMARK    5  A    between atoms: C_11  and  N_13
REMARK    6  A    between atoms: N_16  and  N_17
REMARK    7  A    between atoms: C_18  and  C_20
REMARK                            x       y       z     vdW  Elec       q    Type
REMARK                         _______ _______ _______ _____ _____    ______ ____
ROOT
ATOM      1  N   UNL     1       2.506  -1.429  -0.241  0.00  0.00    -0.295 N 
ATOM      2  C   UNL     1       3.741  -1.035   0.129  0.00  0.00    +0.316 C 
ATOM      3  O   UNL     1       4.329  -0.189  -0.517  0.00  0.00    -0.251 OA
ATOM      4  N   UNL     1       4.325  -1.580   1.215  0.00  0.00    -0.218 N 
ATOM      5  H   UNL     1       2.038  -2.104   0.275  0.00  0.00    +0.151 HD
ATOM      6  H   UNL     1       5.214  -1.297   1.481  0.00  0.00    +0.174 HD
ENDROOT
BRANCH   1  12
ATOM      7  C   UNL     1       0.354  -0.815  -1.227  0.00  0.00    +0.015 C 
ATOM      8  C   UNL     1      -0.309  -0.196  -2.459  0.00  0.00    +0.006 C 
ATOM      9  C   UNL     1       0.035  -1.029  -3.696  0.00  0.00    +0.000 C 
ATOM     10  C   UNL     1       1.553  -1.051  -3.890  0.00  0.00    +0.002 C 
ATOM     11  C   UNL     1       2.216  -1.669  -2.657  0.00  0.00    +0.022 C 
ATOM     12  C   UNL     1       1.872  -0.836  -1.421  0.00  0.00    +0.078 C 
BRANCH   7  14
ATOM     13  C   UNL     1       0.660   1.398  -0.108  0.00  0.00    +0.011 C 
ATOM     14  C   UNL     1       0.010   0.018   0.009  0.00  0.00    -0.033 C 
ATOM     15  C   UNL     1       0.533  -0.687   1.262  0.00  0.00    +0.011 C 
ATOM     16  C   UNL     1      -1.509   0.177   0.111  0.00  0.00    +0.011 C 
ENDBRANCH   7  14
ENDBRANCH   1  12
BRANCH   4  17
ATOM     17  N   UNL     1       3.648  -2.555   1.959  0.00  0.00    -0.229 N 
ATOM     18  C   UNL     1       4.232  -3.100   3.045  0.00  0.00    +0.260 C 
ATOM     19  O   UNL     1       5.346  -2.745   3.378  0.00  0.00    -0.269 OA
ATOM     20  H   UNL     1       2.760  -2.838   1.693  0.00  0.00    +0.173 HD
BRANCH  18  21
ATOM     21  C   UNL     1       3.519  -4.127   3.829  0.00  0.00    +0.042 A 
ATOM     22  C   UNL     1       2.241  -4.541   3.444  0.00  0.00    +0.017 A 
ATOM     23  C   UNL     1       1.578  -5.499   4.178  0.00  0.00    +0.050 A 
ATOM     24  C   UNL     1       2.175  -6.059   5.302  0.00  0.00    +0.162 A 
ATOM     25  C   UNL     1       3.450  -5.652   5.689  0.00  0.00    +0.163 A 
ATOM     26  C   UNL     1       4.122  -4.693   4.954  0.00  0.00    +0.062 A 
ATOM     27  O   UNL     1       4.052  -6.196   6.783  0.00  0.00    -0.485 OA
ATOM     28  C   UNL     1       3.204  -6.888   7.706  0.00  0.00    +0.270 C 
ATOM     29  C   UNL     1       2.273  -7.809   6.907  0.00  0.00    +0.270 C 
ATOM     30  O   UNL     1       1.500  -7.000   6.013  0.00  0.00    -0.485 OA
ENDBRANCH  18  21
ENDBRANCH   4  17
TORSDOF 4
