REMARK  Name = ZINC39850883
REMARK  8 active torsions:
REMARK  status: ('A' for Active; 'I' for Inactive)
REMARK    1  A    between atoms: C_1  and  C_2
REMARK    2  A    between atoms: C_3  and  C_7
REMARK    3  A    between atoms: N_9  and  C_10
REMARK    4  A    between atoms: C_13  and  C_16
REMARK    5  A    between atoms: C_16  and  C_18
REMARK    6  A    between atoms: C_19  and  C_20
REMARK    7  A    between atoms: C_23  and  C_25
REMARK    8  A    between atoms: C_28  and  N_31
REMARK                            x       y       z     vdW  Elec       q    Type
REMARK                         _______ _______ _______ _____ _____    ______ ____
ROOT
ATOM      1  C   UNL     1      -8.944   0.020   0.411  0.00  0.00    +0.186 C 
ATOM      2  O   UNL     1      -9.282   1.191   0.410  0.00  0.00    -0.287 OA
ENDROOT
BRANCH   1   6
ATOM      3  C   UNL     1      -4.831  -1.003   0.110  0.00  0.00    +0.034 A 
ATOM      4  C   UNL     1      -5.216   0.335   0.107  0.00  0.00    +0.024 A 
ATOM      5  C   UNL     1      -6.548   0.669   0.205  0.00  0.00    +0.013 A 
ATOM      6  C   UNL     1      -7.513  -0.336   0.306  0.00  0.00    +0.022 A 
ATOM      7  C   UNL     1      -7.124  -1.678   0.307  0.00  0.00    +0.013 A 
ATOM      8  C   UNL     1      -5.791  -2.006   0.204  0.00  0.00    +0.024 A 
BRANCH   3  11
ATOM      9  C   UNL     1      -2.549  -0.560   0.597  0.00  0.00    +0.252 C 
ATOM     10  O   UNL     1      -2.877   0.478   1.139  0.00  0.00    -0.270 OA
ATOM     11  N   UNL     1      -3.481  -1.338   0.011  0.00  0.00    -0.281 N 
ATOM     12  H   UNL     1      -3.213  -2.131  -0.479  0.00  0.00    +0.155 HD
BRANCH   9  15
ATOM     13  C   UNL     1      -0.148   1.014   1.861  0.00  0.00    +0.087 C 
ATOM     14  C   UNL     1      -0.076  -0.298   1.123  0.00  0.00    +0.114 A 
ATOM     15  C   UNL     1      -1.133  -0.968   0.580  0.00  0.00    +0.078 A 
ATOM     16  C   UNL     1      -0.565  -2.181  -0.025  0.00  0.00    +0.054 A 
ATOM     17  C   UNL     1       0.755  -2.126   0.208  0.00  0.00    +0.196 A 
ATOM     18  O   UNL     1       1.036  -1.002   0.885  0.00  0.00    -0.467 OA
ENDBRANCH   9  15
ENDBRANCH   3  11
ENDBRANCH   1   6
BRANCH   1  19
ATOM     19  C   UNL     1      -9.918  -0.997   0.513  0.00  0.00    +0.055 C 
ATOM     20  C   UNL     1     -11.235  -0.670   0.610  0.00  0.00    +0.050 C 
BRANCH  20  21
ATOM     21  C   UNL     1     -12.210  -1.686   0.712  0.00  0.00    +0.129 A 
ATOM     22  C   UNL     1     -13.576  -1.493   0.810  0.00  0.00    +0.050 A 
ATOM     23  C   UNL     1     -14.159  -2.760   0.889  0.00  0.00    +0.050 A 
ATOM     24  C   UNL     1     -13.133  -3.678   0.837  0.00  0.00    +0.136 A 
ATOM     25  O   UNL     1     -11.969  -3.014   0.724  0.00  0.00    -0.455 OA
BRANCH  24  26
ATOM     26  C   UNL     1     -13.287  -5.145   0.888  0.00  0.00    +0.017 A 
ATOM     27  C   UNL     1     -14.559  -5.714   0.995  0.00  0.00    +0.014 A 
ATOM     28  C   UNL     1     -14.695  -7.085   1.043  0.00  0.00    +0.033 A 
ATOM     29  C   UNL     1     -13.576  -7.898   0.986  0.00  0.00    +0.126 A 
ATOM     30  C   UNL     1     -12.313  -7.341   0.880  0.00  0.00    +0.033 A 
ATOM     31  C   UNL     1     -12.162  -5.971   0.826  0.00  0.00    +0.014 A 
BRANCH  29  32
ATOM     32  N   UNL     1     -13.730  -9.369   1.038  0.00  0.00    +0.056 N 
ATOM     33  O   UNL     1     -14.832  -9.858   1.131  0.00  0.00    -0.126 OA
ATOM     34  O   UNL     1     -12.754 -10.081   0.989  0.00  0.00    -0.126 OA
ENDBRANCH  29  32
ENDBRANCH  24  26
ENDBRANCH  20  21
ENDBRANCH   1  19
TORSDOF 7
