REMARK  Name = ZINC09311054
REMARK  6 active torsions:
REMARK  status: ('A' for Active; 'I' for Inactive)
REMARK    1  A    between atoms: C_7  and  C_21
REMARK    2  A    between atoms: N_9  and  C_10
REMARK    3  A    between atoms: C_10  and  C_11
REMARK    4  A    between atoms: N_13  and  C_14
REMARK    5  A    between atoms: N_22  and  N_23
REMARK    6  A    between atoms: C_24  and  C_26
REMARK                            x       y       z     vdW  Elec       q    Type
REMARK                         _______ _______ _______ _____ _____    ______ ____
ROOT
ATOM      1  C   UNL     1       1.168   3.160  -0.015  0.00  0.00    +0.001 A 
ATOM      2  C   UNL     1       1.168   1.773  -0.024  0.00  0.00    +0.002 A 
ATOM      3  C   UNL     1      -0.016   1.070  -0.010  0.00  0.00    +0.026 A 
ATOM      4  C   UNL     1      -1.228   1.753   0.009  0.00  0.00    +0.050 A 
ATOM      5  C   UNL     1      -1.228   3.158   0.024  0.00  0.00    +0.009 A 
ATOM      6  C   UNL     1      -0.021   3.855   0.009  0.00  0.00    +0.010 A 
ATOM      7  C   UNL     1      -2.643   3.565   0.050  0.00  0.00    +0.020 A 
ATOM      8  C   UNL     1      -3.377   2.419   0.054  0.00  0.00    +0.096 A 
ATOM      9  N   UNL     1      -2.544   1.340   0.034  0.00  0.00    -0.337 N 
ENDROOT
BRANCH   7  10
ATOM     10  C   UNL     1      -3.163   4.942   0.067  0.00  0.00    +0.140 C 
ATOM     11  N   UNL     1      -2.339   5.947   0.060  0.00  0.00    -0.187 NA
BRANCH  11  12
ATOM     12  N   UNL     1      -2.834   7.258   0.076  0.00  0.00    -0.203 N 
ATOM     13  C   UNL     1      -1.980   8.300   0.069  0.00  0.00    +0.263 C 
ATOM     14  O   UNL     1      -0.780   8.103   0.049  0.00  0.00    -0.268 OA
ATOM     15  H   UNL     1      -3.791   7.415   0.093  0.00  0.00    +0.178 HD
BRANCH  13  16
ATOM     16  C   UNL     1      -2.501   9.683   0.087  0.00  0.00    +0.039 A 
ATOM     17  C   UNL     1      -3.878   9.913   0.105  0.00  0.00    +0.013 A 
ATOM     18  C   UNL     1      -4.359  11.205   0.126  0.00  0.00    +0.002 A 
ATOM     19  C   UNL     1      -3.480  12.274   0.118  0.00  0.00    +0.015 A 
ATOM     20  C   UNL     1      -2.113  12.054   0.095  0.00  0.00    +0.019 A 
ATOM     21  C   UNL     1      -1.619  10.765   0.079  0.00  0.00    +0.028 A 
ATOM     22 BR   UNL     1      -0.921  13.521   0.085  0.00  0.00    -0.050 Br
ENDBRANCH  13  16
ENDBRANCH  11  12
ENDBRANCH   7  10
BRANCH   9  23
ATOM     23  C   UNL     1      -2.983  -0.057   0.033  0.00  0.00    +0.217 C 
BRANCH  23  24
ATOM     24  C   UNL     1      -2.993  -0.582   1.445  0.00  0.00    +0.237 C 
ATOM     25  O   UNL     1      -2.664   0.140   2.363  0.00  0.00    -0.274 OA
ATOM     26  N   UNL     1      -3.365  -1.854   1.689  0.00  0.00    -0.284 N 
ATOM     27  H   UNL     1      -3.691  -2.411   0.965  0.00  0.00    +0.155 HD
BRANCH  26  28
ATOM     28  C   UNL     1      -3.282  -2.371   2.988  0.00  0.00    +0.034 A 
ATOM     29  C   UNL     1      -2.949  -3.705   3.185  0.00  0.00    +0.026 A 
ATOM     30  C   UNL     1      -2.861  -4.211   4.466  0.00  0.00    +0.040 A 
ATOM     31  C   UNL     1      -3.116  -3.394   5.554  0.00  0.00    +0.124 A 
ATOM     32  C   UNL     1      -3.454  -2.065   5.360  0.00  0.00    +0.040 A 
ATOM     33  C   UNL     1      -3.537  -1.553   4.080  0.00  0.00    +0.026 A 
ATOM     34  F   UNL     1      -3.035  -3.893   6.807  0.00  0.00    -0.205 F 
ENDBRANCH  26  28
ENDBRANCH  23  24
ENDBRANCH   9  23
TORSDOF 6
