REMARK  Name = ZINC12469498
REMARK  11 active torsions:
REMARK  status: ('A' for Active; 'I' for Inactive)
REMARK    1  A    between atoms: C_1  and  C_2
REMARK    2  A    between atoms: C_5  and  C_33
REMARK    3  A    between atoms: C_6  and  N_8
REMARK    4  A    between atoms: C_9  and  C_11
REMARK    5  A    between atoms: C_11  and  C_31
REMARK    6  A    between atoms: C_12  and  C_13
REMARK    7  A    between atoms: C_16  and  S_22
REMARK    8  A    between atoms: C_17  and  N_19
REMARK    9  A    between atoms: S_22  and  C_23
REMARK   10  A    between atoms: C_25  and  C_30
REMARK   11  A    between atoms: C_27  and  C_29
REMARK                            x       y       z     vdW  Elec       q    Type
REMARK                         _______ _______ _______ _____ _____    ______ ____
ROOT
ATOM      1  C   UNL     1       1.418   1.858   0.142  0.00  0.00    -0.021 A 
ATOM      2  C   UNL     1       2.412   1.071  -0.460  0.00  0.00    +0.009 A 
ATOM      3  C   UNL     1       3.639   1.609  -0.722  0.00  0.00    +0.018 A 
ATOM      4  C   UNL     1       3.908   2.934  -0.384  0.00  0.00    +0.046 A 
ATOM      5  C   UNL     1       2.926   3.718   0.219  0.00  0.00    +0.140 A 
ATOM      6  C   UNL     1       1.695   3.192   0.481  0.00  0.00    +0.041 A 
ENDROOT
BRANCH   5   7
ATOM      7  N   UNL     1       3.220   5.125   0.576  0.00  0.00    +0.058 N 
ATOM      8  O   UNL     1       2.362   5.811   1.103  0.00  0.00    -0.126 OA
ATOM      9  O   UNL     1       4.319   5.596   0.343  0.00  0.00    -0.126 OA
ENDBRANCH   5   7
BRANCH   1  11
ATOM     10  C   UNL     1      -0.022  -0.050   0.727  0.00  0.00    +0.114 C 
ATOM     11  C   UNL     1       0.100   1.289   0.421  0.00  0.00    +0.032 C 
BRANCH  10  13
ATOM     12  N   UNL     1      -1.475  -1.967   1.148  0.00  0.00    -0.281 N 
ATOM     13  C   UNL     1      -1.356  -0.658   0.849  0.00  0.00    +0.259 C 
ATOM     14  O   UNL     1      -2.351   0.020   0.680  0.00  0.00    -0.269 OA
ATOM     15  H   UNL     1      -0.687  -2.487   1.371  0.00  0.00    +0.155 HD
BRANCH  12  21
ATOM     16  C   UNL     1      -6.337  -1.641   1.796  0.00  0.00    +0.044 C 
ATOM     17  C   UNL     1      -5.108  -2.441   1.447  0.00  0.00    -0.049 A 
ATOM     18  C   UNL     1      -5.226  -3.778   1.116  0.00  0.00    +0.004 A 
ATOM     19  C   UNL     1      -4.101  -4.516   0.796  0.00  0.00    +0.005 A 
ATOM     20  C   UNL     1      -2.856  -3.918   0.806  0.00  0.00    -0.029 A 
ATOM     21  C   UNL     1      -2.734  -2.575   1.137  0.00  0.00    +0.037 A 
ATOM     22  C   UNL     1      -3.866  -1.838   1.462  0.00  0.00    +0.027 A 
ATOM     23  C   UNL     1      -1.630  -4.723   0.457  0.00  0.00    +0.045 C 
ENDBRANCH  12  21
ENDBRANCH  10  13
BRANCH  10  24
ATOM     24  C   UNL     1       1.149  -0.849   0.926  0.00  0.00    +0.104 C 
ATOM     25  N   UNL     1       2.079  -1.482   1.084  0.00  0.00    -0.191 NA
ENDBRANCH  10  24
ENDBRANCH   1  11
BRANCH   4  26
ATOM     26  S   UNL     1       5.496   3.620  -0.720  0.00  0.00    -0.048 S 
BRANCH  26  27
ATOM     27  C   UNL     1       5.128   4.546  -2.173  0.00  0.00    +0.193 A 
ATOM     28  N   UNL     1       3.877   4.599  -2.607  0.00  0.00    -0.227 NA
ATOM     29  C   UNL     1       3.567   5.289  -3.692  0.00  0.00    +0.043 A 
ATOM     30  C   UNL     1       4.570   5.952  -4.381  0.00  0.00    +0.046 A 
ATOM     31  C   UNL     1       5.868   5.872  -3.903  0.00  0.00    +0.043 A 
ATOM     32  N   UNL     1       6.110   5.169  -2.809  0.00  0.00    -0.227 NA
ATOM     33  C   UNL     1       6.990   6.577  -4.620  0.00  0.00    +0.066 C 
ATOM     34  C   UNL     1       2.140   5.349  -4.175  0.00  0.00    +0.066 C 
ENDBRANCH  26  27
ENDBRANCH   4  26
TORSDOF 7
