REMARK  Name = ZINC45557391
REMARK  11 active torsions:
REMARK  status: ('A' for Active; 'I' for Inactive)
REMARK    1  A    between atoms: C_1  and  C_2
REMARK    2  A    between atoms: C_2  and  C_4
REMARK    3  A    between atoms: C_2  and  N_12
REMARK    4  A    between atoms: N_12  and  C_13
REMARK    5  A    between atoms: C_13  and  C_15
REMARK    6  A    between atoms: C_13  and  C_16
REMARK    7  A    between atoms: N_18  and  C_19
REMARK    8  A    between atoms: C_23  and  S_25
REMARK    9  A    between atoms: S_25  and  N_28
REMARK   10  A    between atoms: N_28  and  C_29
REMARK   11  A    between atoms: N_28  and  C_30
REMARK                            x       y       z     vdW  Elec       q    Type
REMARK                         _______ _______ _______ _____ _____    ______ ____
ROOT
ATOM      1  C   UNL     1       2.394  -1.458   2.186  0.00  0.00    +0.203 C 
ATOM      2  O   UNL     1       2.007  -2.339   2.924  0.00  0.00    -0.277 OA
ATOM      3  N   UNL     1       3.561  -0.832   2.437  0.00  0.00    -0.287 N 
ATOM      4  H   UNL     1       3.839  -0.084   1.885  0.00  0.00    +0.155 HD
ENDROOT
BRANCH   3   5
ATOM      5  C   UNL     1       4.372  -1.261   3.494  0.00  0.00    +0.035 A 
ATOM      6  C   UNL     1       5.128  -0.341   4.208  0.00  0.00    +0.025 A 
ATOM      7  C   UNL     1       5.928  -0.767   5.251  0.00  0.00    +0.024 A 
ATOM      8  C   UNL     1       5.976  -2.109   5.584  0.00  0.00    +0.067 A 
ATOM      9  C   UNL     1       5.223  -3.028   4.874  0.00  0.00    +0.125 A 
ATOM     10  C   UNL     1       4.417  -2.606   3.834  0.00  0.00    +0.053 A 
ATOM     11 CL   UNL     1       6.982  -2.641   6.894  0.00  0.00    -0.082 Cl
BRANCH   9  12
ATOM     12  S   UNL     1       5.287  -4.736   5.301  0.00  0.00    +0.062 S 
ATOM     13  O   UNL     1       4.410  -5.411   4.410  0.00  0.00    -0.153 OA
ATOM     14  O   UNL     1       6.662  -5.074   5.418  0.00  0.00    -0.153 OA
BRANCH  12  15
ATOM     15  N   UNL     1       4.632  -4.887   6.815  0.00  0.00    -0.183 NA
ATOM     16  C   UNL     1       3.178  -4.954   6.980  0.00  0.00    +0.131 C 
ATOM     17  C   UNL     1       5.507  -4.955   7.988  0.00  0.00    +0.131 C 
ENDBRANCH  12  15
ENDBRANCH   9  12
ENDBRANCH   3   5
BRANCH   1  18
ATOM     18  C   UNL     1       1.570  -1.064   0.987  0.00  0.00    +0.014 C 
ATOM     19  C   UNL     1       1.182   0.412   1.098  0.00  0.00    -0.004 C 
BRANCH  18  20
ATOM     20  N   UNL     1       0.355  -1.888   0.935  0.00  0.00    +0.391 N 
ATOM     21  H   UNL     1      -0.221  -1.688   1.740  0.00  0.00    -0.084 HD
ATOM     22  H   UNL     1       0.611  -2.864   0.938  0.00  0.00    -0.084 HD
BRANCH  20  24
ATOM     23  C   UNL     1      -1.713  -2.354  -0.290  0.00  0.00    -0.009 C 
ATOM     24  C   UNL     1      -0.393  -1.581  -0.291  0.00  0.00    -0.042 C 
BRANCH  24  25
ATOM     25  C   UNL     1       0.424  -1.984  -1.492  0.00  0.00    -0.043 A 
ATOM     26  C   UNL     1       1.379  -2.976  -1.376  0.00  0.00    +0.005 A 
ATOM     27  C   UNL     1       2.129  -3.346  -2.477  0.00  0.00    +0.020 A 
ATOM     28  C   UNL     1       1.923  -2.724  -3.695  0.00  0.00    +0.042 A 
ATOM     29  C   UNL     1       0.967  -1.731  -3.812  0.00  0.00    +0.040 A 
ATOM     30  C   UNL     1       0.213  -1.365  -2.711  0.00  0.00    +0.044 A 
ATOM     31 CL   UNL     1      -0.991  -0.123  -2.857  0.00  0.00    -0.083 Cl
ATOM     32 CL   UNL     1       2.865  -3.188  -5.078  0.00  0.00    -0.083 Cl
ENDBRANCH  24  25
ENDBRANCH  20  24
ENDBRANCH  18  20
ENDBRANCH   1  18
TORSDOF 7
