REMARK  Name = ZINC02686353
REMARK  8 active torsions:
REMARK  status: ('A' for Active; 'I' for Inactive)
REMARK    1  A    between atoms: C_1  and  C_2
REMARK    2  A    between atoms: C_5  and  S_8
REMARK    3  A    between atoms: S_8  and  N_11
REMARK    4  A    between atoms: N_11  and  C_12
REMARK    5  A    between atoms: C_16  and  C_18
REMARK    6  A    between atoms: C_18  and  C_20
REMARK    7  A    between atoms: C_20  and  C_21
REMARK    8  A    between atoms: C_21  and  O_32
REMARK                            x       y       z     vdW  Elec       q    Type
REMARK                         _______ _______ _______ _____ _____    ______ ____
ROOT
ATOM      1  C   UNL     1       0.168  -5.322  -3.648  0.00  0.00    +0.049 A 
ATOM      2  C   UNL     1       1.121  -5.105  -4.637  0.00  0.00    +0.024 A 
ATOM      3  C   UNL     1       1.973  -4.019  -4.558  0.00  0.00    +0.003 A 
ATOM      4  C   UNL     1       1.885  -3.142  -3.498  0.00  0.00    +0.011 A 
ATOM      5  C   UNL     1       0.930  -3.349  -2.497  0.00  0.00    +0.019 A 
ATOM      6  C   UNL     1       0.073  -4.450  -2.575  0.00  0.00    +0.035 A 
ENDROOT
BRANCH   1   7
ATOM      7  N   UNL     1      -0.690  -6.421  -3.733  0.00  0.00    -0.216 N 
ATOM      8  H   UNL     1      -1.637  -6.312  -3.558  0.00  0.00    +0.174 HD
BRANCH   7   9
ATOM      9  S   UNL     1      -0.088  -7.912  -4.132  0.00  0.00    +0.072 S 
ATOM     10  O   UNL     1      -1.187  -8.812  -4.110  0.00  0.00    -0.150 OA
ATOM     11  O   UNL     1       0.723  -7.727  -5.285  0.00  0.00    -0.150 OA
BRANCH   9  16
ATOM     12  C   UNL     1       3.611  -9.595   0.327  0.00  0.00    +0.044 C 
ATOM     13  C   UNL     1       2.687  -9.175  -0.787  0.00  0.00    -0.050 A 
ATOM     14  C   UNL     1       1.346  -9.504  -0.733  0.00  0.00    +0.005 A 
ATOM     15  C   UNL     1       0.498  -9.118  -1.755  0.00  0.00    +0.029 A 
ATOM     16  C   UNL     1       0.992  -8.403  -2.830  0.00  0.00    +0.109 A 
ATOM     17  C   UNL     1       2.335  -8.079  -2.886  0.00  0.00    +0.029 A 
ATOM     18  C   UNL     1       3.182  -8.461  -1.863  0.00  0.00    +0.005 A 
ENDBRANCH   9  16
ENDBRANCH   7   9
ENDBRANCH   1   7
BRANCH   5  19
ATOM     19  C   UNL     1       0.833  -2.416  -1.363  0.00  0.00    +0.167 C 
ATOM     20  O   UNL     1       0.005  -2.598  -0.497  0.00  0.00    -0.292 OA
BRANCH  19  21
ATOM     21  C   UNL     1       1.764  -1.233  -1.279  0.00  0.00    +0.129 C 
BRANCH  21  22
ATOM     22  C   UNL     1       1.455  -0.430  -0.014  0.00  0.00    +0.175 C 
ATOM     23  C   UNL     1       2.220   0.874  -0.014  0.00  0.00    +0.015 A 
ATOM     24  C   UNL     1       3.564   1.170  -0.025  0.00  0.00    +0.024 A 
ATOM     25  C   UNL     1       3.980   2.490  -0.024  0.00  0.00    +0.018 A 
ATOM     26  C   UNL     1       3.042   3.507  -0.009  0.00  0.00    +0.017 A 
ATOM     27  C   UNL     1       1.694   3.212   0.002  0.00  0.00    +0.025 A 
ATOM     28  C   UNL     1       1.268   1.885   0.000  0.00  0.00    +0.040 A 
ATOM     29  N   UNL     1      -0.016   1.339   0.009  0.00  0.00    -0.282 N 
ATOM     30  C   UNL     1       0.002  -0.004   0.002  0.00  0.00    +0.254 C 
ATOM     31  O   UNL     1      -0.964  -0.738   0.008  0.00  0.00    -0.272 OA
ATOM     32 BR   UNL     1       5.826   2.904  -0.038  0.00  0.00    -0.050 Br
ATOM     33  H   UNL     1      -0.829   1.869   0.016  0.00  0.00    +0.155 HD
BRANCH  22  34
ATOM     34  O   UNL     1       1.765  -1.196   1.152  0.00  0.00    -0.374 OA
ATOM     35  H   UNL     1       1.257  -2.015   1.231  0.00  0.00    +0.211 HD
ENDBRANCH  22  34
ENDBRANCH  21  22
ENDBRANCH  19  21
ENDBRANCH   5  19
TORSDOF 7
