REMARK  Name = ZINC14584089
REMARK  9 active torsions:
REMARK  status: ('A' for Active; 'I' for Inactive)
REMARK    1  A    between atoms: C_1  and  C_2
REMARK    2  A    between atoms: C_2  and  N_3
REMARK    3  A    between atoms: N_3  and  C_4
REMARK    4  A    between atoms: C_5  and  N_20
REMARK    5  A    between atoms: N_6  and  C_13
REMARK    6  A    between atoms: C_13  and  C_14
REMARK    7  A    between atoms: C_21  and  C_23
REMARK    8  A    between atoms: C_24  and  C_25
REMARK    9  A    between atoms: C_28  and  C_31
REMARK                            x       y       z     vdW  Elec       q    Type
REMARK                         _______ _______ _______ _____ _____    ______ ____
ROOT
ATOM      1  C   UNL     1       3.346   2.732   1.128  0.00  0.00    +0.140 A 
ATOM      2  C   UNL     1       3.653   1.677   0.292  0.00  0.00    +0.128 A 
ATOM      3  N   UNL     1       2.928   1.503  -0.864  0.00  0.00    -0.276 N 
ATOM      4  C   UNL     1       1.925   2.346  -1.171  0.00  0.00    +0.331 A 
ATOM      5  O   UNL     1       1.293   2.172  -2.196  0.00  0.00    -0.246 OA
ATOM      6  N   UNL     1       1.609   3.376  -0.367  0.00  0.00    -0.273 N 
ATOM      7  H   UNL     1       0.859   3.988  -0.619  0.00  0.00    +0.173 HD
ATOM      8  C   UNL     1       2.291   3.594   0.774  0.00  0.00    +0.277 A 
ATOM      9  O   UNL     1       1.996   4.531   1.497  0.00  0.00    -0.266 OA
ENDROOT
BRANCH   1  10
ATOM     10  N   UNL     1       4.074   2.939   2.318  0.00  0.00    -0.261 N 
ATOM     11  C   UNL     1       3.467   2.797   3.513  0.00  0.00    +0.244 C 
ATOM     12  O   UNL     1       2.318   2.400   3.568  0.00  0.00    -0.270 OA
BRANCH  10  14
ATOM     13  C   UNL     1       5.622   4.833   2.314  0.00  0.00    +0.025 C 
ATOM     14  C   UNL     1       5.490   3.310   2.255  0.00  0.00    +0.111 C 
ENDBRANCH  10  14
BRANCH  11  15
ATOM     15  C   UNL     1       4.190   3.121   4.744  0.00  0.00    +0.068 C 
ATOM     16  C   UNL     1       3.583   2.978   5.939  0.00  0.00    +0.013 C 
BRANCH  16  17
ATOM     17  C   UNL     1       4.310   3.304   7.177  0.00  0.00    -0.025 A 
ATOM     18  C   UNL     1       5.633   3.755   7.118  0.00  0.00    +0.008 A 
ATOM     19  C   UNL     1       6.305   4.062   8.282  0.00  0.00    +0.004 A 
ATOM     20  C   UNL     1       5.678   3.915   9.507  0.00  0.00    -0.050 A 
ATOM     21  C   UNL     1       4.372   3.464   9.574  0.00  0.00    +0.004 A 
ATOM     22  C   UNL     1       3.684   3.157   8.419  0.00  0.00    +0.008 A 
ATOM     23  C   UNL     1       6.423   4.247  10.774  0.00  0.00    +0.044 C 
ENDBRANCH  16  17
ENDBRANCH  11  15
ENDBRANCH   1  10
BRANCH   2  24
ATOM     24  N   UNL     1       4.674   0.813   0.609  0.00  0.00    -0.343 N 
ATOM     25  H   UNL     1       4.853   0.046   0.043  0.00  0.00    +0.144 HD
ATOM     26  H   UNL     1       5.215   0.970   1.399  0.00  0.00    +0.144 HD
ENDBRANCH   2  24
BRANCH   3  27
ATOM     27  C   UNL     1       3.246   0.391  -1.762  0.00  0.00    +0.163 C 
BRANCH  27  28
ATOM     28  C   UNL     1       4.268   0.839  -2.775  0.00  0.00    -0.028 A 
ATOM     29  C   UNL     1       3.857   1.383  -3.977  0.00  0.00    +0.005 A 
ATOM     30  C   UNL     1       4.795   1.798  -4.904  0.00  0.00    +0.000 A 
ATOM     31  C   UNL     1       6.143   1.661  -4.632  0.00  0.00    +0.000 A 
ATOM     32  C   UNL     1       6.554   1.112  -3.432  0.00  0.00    +0.000 A 
ATOM     33  C   UNL     1       5.616   0.701  -2.503  0.00  0.00    +0.005 A 
ENDBRANCH  27  28
ENDBRANCH   3  27
TORSDOF 7
