REMARK  Name = ZINC38041557
REMARK  5 active torsions:
REMARK  status: ('A' for Active; 'I' for Inactive)
REMARK    1  A    between atoms: C_1  and  O_2
REMARK    2  A    between atoms: O_2  and  C_3
REMARK    3  A    between atoms: C_3  and  C_5
REMARK    4  A    between atoms: C_10  and  N_11
REMARK    5  A    between atoms: N_11  and  C_12
REMARK                            x       y       z     vdW  Elec       q    Type
REMARK                         _______ _______ _______ _____ _____    ______ ____
ROOT
ATOM      1  C   UNL     1      -0.571  -1.280  -3.671  0.00  0.00    +0.082 A 
ATOM      2  C   UNL     1      -1.943  -1.510  -3.524  0.00  0.00    +0.032 A 
ATOM      3  C   UNL     1      -2.385  -2.672  -2.931  0.00  0.00    +0.020 A 
ATOM      4  C   UNL     1      -1.477  -3.618  -2.478  0.00  0.00    +0.032 A 
ATOM      5  C   UNL     1      -0.121  -3.406  -2.615  0.00  0.00    +0.041 A 
ATOM      6  C   UNL     1       0.345  -2.241  -3.216  0.00  0.00    +0.056 A 
ATOM      7 BR   UNL     1       1.106  -4.703  -1.992  0.00  0.00    -0.048 Br
ATOM      8 BR   UNL     1      -4.241  -2.980  -2.734  0.00  0.00    -0.050 Br
ENDROOT
BRANCH   1   9
ATOM      9  C   UNL     1      -0.091  -0.040  -4.304  0.00  0.00    +0.341 C 
ATOM     10  O   UNL     1       1.099   0.205  -4.336  0.00  0.00    -0.245 OA
BRANCH   9  12
ATOM     11  C   UNL     1      -0.436   2.006  -5.444  0.00  0.00    +0.280 C 
ATOM     12  O   UNL     1      -0.972   0.824  -4.847  0.00  0.00    -0.464 OA
ENDBRANCH   9  12
ENDBRANCH   1   9
BRANCH   6  13
ATOM     13  N   UNL     1       1.710  -2.028  -3.360  0.00  0.00    -0.340 N 
ATOM     14  H   UNL     1       2.172  -1.422  -2.761  0.00  0.00    +0.146 HD
BRANCH  13  15
ATOM     15  C   UNL     1       2.451  -2.719  -4.419  0.00  0.00    +0.067 C 
ATOM     16  C   UNL     1       3.896  -2.947  -3.966  0.00  0.00    +0.003 C 
ATOM     17  C   UNL     1       4.685  -3.596  -5.106  0.00  0.00    -0.081 C 
ATOM     18  N   UNL     1       4.671  -2.715  -6.279  0.00  0.00    +0.379 N 
ATOM     19  C   UNL     1       3.295  -2.550  -6.762  0.00  0.00    -0.081 C 
ATOM     20  C   UNL     1       2.453  -1.860  -5.687  0.00  0.00    +0.003 C 
ATOM     21  H   UNL     1       5.049  -1.814  -6.027  0.00  0.00    -0.086 HD
ATOM     22  H   UNL     1       5.237  -3.122  -7.010  0.00  0.00    -0.086 HD
ENDBRANCH  13  15
ENDBRANCH   6  13
TORSDOF 4
